# DDEC6 charges by PACMAN v1.1 (https://github.com/mtap-research/PACMAN-charge/)
data_0000[Ho][nan]3[ASR]1
_chemical_formula_sum              "Ho12 H176 C320 O64"
_cell_length_a       30.6894
_cell_length_b       30.6894
_cell_length_c       32.1508
_cell_angle_alpha    90
_cell_angle_beta     90
_cell_angle_gamma    149.149

_symmetry_space_group_name_H-M    "P 1"
_symmetry_Int_Tables_number       1

loop_
  _symmetry_equiv_pos_as_xyz
  'x, y, z'

loop_
  _atom_site_type_symbol
  _atom_site_label
  _atom_site_symmetry_multiplicity
  _atom_site_fract_x
  _atom_site_fract_y
  _atom_site_fract_z
  _atom_site_occupancy
  _atom_site_charge
Ho  Ho1       1.0  0.65013  0.34987  0.50000  1.0000 2.0388895732
Ho  Ho2       1.0  0.34987  0.65013  0.50000  1.0000 2.0388895732
Ho  Ho3       1.0  0.84987  0.15013  0.00000  1.0000 2.0388895732
Ho  Ho4       1.0  0.15013  0.84987  0.00000  1.0000 2.0388895732
Ho  Ho5       1.0  0.37711  0.14564  0.47949  1.0000 2.0327494007
Ho  Ho6       1.0  0.62288  0.85435  0.47949  1.0000 2.0327494007
Ho  Ho7       1.0  0.85435  0.62289  0.52051  1.0000 2.0327494007
Ho  Ho8       1.0  0.14564  0.37711  0.52051  1.0000 2.0327494007
Ho  Ho9       1.0  0.12289  0.35436  0.02051  1.0000 2.0327494007
Ho  Ho10      1.0  0.87711  0.64565  0.02051  1.0000 2.0327494007
Ho  Ho11      1.0  0.64565  0.87711  0.97949  1.0000 2.0327494007
Ho  Ho12      1.0  0.35435  0.12289  0.97949  1.0000 2.0327494007
H   H1        1.0  0.49500  0.45740  0.32480  1.0000 0.1081977355
H   H2        1.0  0.50500  0.54260  0.32480  1.0000 0.1081977355
H   H3        1.0  0.54260  0.50500  0.67520  1.0000 0.1081977355
H   H4        1.0  0.45740  0.49500  0.67520  1.0000 0.1081977355
H   H5        1.0  0.00500  0.04260  0.17520  1.0000 0.1081977355
H   H6        1.0  0.99500  0.95740  0.17520  1.0000 0.1081977355
H   H7        1.0  0.95740  0.99500  0.82480  1.0000 0.1081977355
H   H8        1.0  0.04260  0.00500  0.82480  1.0000 0.1013355915
H   H9        1.0  0.64020  0.49240  0.26790  1.0000 0.1013355915
H   H10       1.0  0.35980  0.50760  0.26790  1.0000 0.1013355915
H   H11       1.0  0.50760  0.35980  0.73210  1.0000 0.1013355915
H   H12       1.0  0.49240  0.64020  0.73210  1.0000 0.1013355915
H   H13       1.0  0.85980  0.00760  0.23210  1.0000 0.1013355915
H   H14       1.0  0.14020  0.99240  0.23210  1.0000 0.1013355915
H   H15       1.0  0.99240  0.14020  0.76790  1.0000 0.1013355915
H   H16       1.0  0.00760  0.85980  0.76790  1.0000 0.1013355915
H   H17       1.0  0.56540  0.53720  0.20720  1.0000 0.1013355915
H   H18       1.0  0.43460  0.46280  0.20720  1.0000 0.1013355915
H   H19       1.0  0.46280  0.43460  0.79280  1.0000 0.1013355915
H   H20       1.0  0.53720  0.56540  0.79280  1.0000 0.1013355915
H   H21       1.0  0.93460  0.96280  0.29280  1.0000 0.1013355915
H   H22       1.0  0.06540  0.03720  0.29280  1.0000 0.1013355915
H   H23       1.0  0.03720  0.06540  0.70720  1.0000 0.1013355915
H   H24       1.0  0.96280  0.93460  0.70720  1.0000 0.1013355915
H   H25       1.0  0.44460  0.34640  0.35520  1.0000 0.1081977355
H   H26       1.0  0.55540  0.65360  0.35520  1.0000 0.1081977355
H   H27       1.0  0.65360  0.55540  0.64480  1.0000 0.1081977355
H   H28       1.0  0.34640  0.44460  0.64480  1.0000 0.1081977355
H   H29       1.0  0.05540  0.15360  0.14480  1.0000 0.1081977355
H   H30       1.0  0.94460  0.84640  0.14480  1.0000 0.1081977355
H   H31       1.0  0.84640  0.94460  0.85520  1.0000 0.1081977355
H   H32       1.0  0.15360  0.05540  0.85520  1.0000 0.1081977355
H   H33       1.0  0.44040  0.29620  0.41130  1.0000 0.1201471911
H   H34       1.0  0.55960  0.70380  0.41130  1.0000 0.1201471911
H   H35       1.0  0.70380  0.55960  0.58870  1.0000 0.1201471911
H   H36       1.0  0.29620  0.44040  0.58870  1.0000 0.1201471911
H   H37       1.0  0.05960  0.20380  0.08870  1.0000 0.1201471911
H   H38       1.0  0.94040  0.79620  0.08870  1.0000 0.1201471911
H   H39       1.0  0.79620  0.94040  0.91130  1.0000 0.1201471911
H   H40       1.0  0.20380  0.05960  0.91130  1.0000 0.1201471911
H   H41       1.0  0.68380  0.47580  0.39390  1.0000 0.1285925072
H   H42       1.0  0.31620  0.52420  0.39390  1.0000 0.1285925072
H   H43       1.0  0.52420  0.31620  0.60610  1.0000 0.1285925072
H   H44       1.0  0.47580  0.68380  0.60610  1.0000 0.1285925072
H   H45       1.0  0.81620  0.02420  0.10610  1.0000 0.1285925072
H   H46       1.0  0.18380  0.97580  0.10610  1.0000 0.1285925072
H   H47       1.0  0.97580  0.18380  0.89390  1.0000 0.1285925072
H   H48       1.0  0.02420  0.81620  0.89390  1.0000 0.1285925072
H   H49       1.0  0.68660  0.52380  0.33750  1.0000 0.1081977355
H   H50       1.0  0.31340  0.47620  0.33750  1.0000 0.1081977355
H   H51       1.0  0.47620  0.31340  0.66250  1.0000 0.1081977355
H   H52       1.0  0.52380  0.68660  0.66250  1.0000 0.1081977355
H   H53       1.0  0.81340  0.97620  0.16250  1.0000 0.1081977355
H   H54       1.0  0.18660  0.02380  0.16250  1.0000 0.1081977355
H   H55       1.0  0.02380  0.18660  0.83750  1.0000 0.1081977355
H   H56       1.0  0.97620  0.81340  0.83750  1.0000 0.1081977355
H   H57       1.0  0.66060  0.48280  0.20900  1.0000 0.1081977355
H   H58       1.0  0.33940  0.51720  0.20900  1.0000 0.1081977355
H   H59       1.0  0.51720  0.33940  0.79100  1.0000 0.1081977355
H   H60       1.0  0.48280  0.66060  0.79100  1.0000 0.1081977355
H   H61       1.0  0.83940  0.01720  0.29100  1.0000 0.1081977355
H   H62       1.0  0.16060  0.98280  0.29100  1.0000 0.1081977355
H   H63       1.0  0.98280  0.16060  0.70900  1.0000 0.1081977355
H   H64       1.0  0.01720  0.83940  0.70900  1.0000 0.1081977355
H   H65       1.0  0.73110  0.51810  0.15110  1.0000 0.1201471911
H   H66       1.0  0.26890  0.48190  0.15110  1.0000 0.1201471911
H   H67       1.0  0.48190  0.26890  0.84890  1.0000 0.1201471911
H   H68       1.0  0.51810  0.73110  0.84890  1.0000 0.1201471911
H   H69       1.0  0.76890  0.98190  0.34890  1.0000 0.1201471911
H   H70       1.0  0.23110  0.01810  0.34890  1.0000 0.1201471911
H   H71       1.0  0.01810  0.23110  0.65110  1.0000 0.1201471911
H   H72       1.0  0.98190  0.76890  0.65110  1.0000 0.1201471911
H   H73       1.0  0.74210  0.64570  0.10820  1.0000 0.1201471911
H   H74       1.0  0.25790  0.35430  0.10820  1.0000 0.1201471911
H   H75       1.0  0.35430  0.25790  0.89180  1.0000 0.1201471911
H   H76       1.0  0.64570  0.74210  0.89180  1.0000 0.1201471911
H   H77       1.0  0.75790  0.85430  0.39180  1.0000 0.1201471911
H   H78       1.0  0.24210  0.14570  0.39180  1.0000 0.1201471911
H   H79       1.0  0.14570  0.24210  0.60820  1.0000 0.1201471911
H   H80       1.0  0.85430  0.75790  0.60820  1.0000 0.1201471911
H   H81       1.0  0.66610  0.60610  0.16470  1.0000 0.1081977355
H   H82       1.0  0.33390  0.39390  0.16470  1.0000 0.1081977355
H   H83       1.0  0.39390  0.33390  0.83530  1.0000 0.1081977355
H   H84       1.0  0.60610  0.66610  0.83530  1.0000 0.1081977355
H   H85       1.0  0.83390  0.89390  0.33530  1.0000 0.1081977355
H   H86       1.0  0.16610  0.10610  0.33530  1.0000 0.1081977355
H   H87       1.0  0.10610  0.16610  0.66470  1.0000 0.1081977355
H   H88       1.0  0.89390  0.83390  0.66470  1.0000 0.1081977355
H   H89       1.0  0.94870  0.48550  0.32290  1.0000 0.1081977355
H   H90       1.0  0.05130  0.51450  0.32290  1.0000 0.1081977355
H   H91       1.0  0.51450  0.05130  0.67710  1.0000 0.1081977355
H   H92       1.0  0.48550  0.94870  0.67710  1.0000 0.1081977355
H   H93       1.0  0.55130  0.01450  0.17710  1.0000 0.1081977355
H   H94       1.0  0.44870  0.98550  0.17710  1.0000 0.1081977355
H   H95       1.0  0.98550  0.44870  0.82290  1.0000 0.1081977355
H   H96       1.0  0.01450  0.55130  0.82290  1.0000 0.1081977355
H   H97       1.0  0.93880  0.59160  0.26150  1.0000 0.1081977355
H   H98       1.0  0.06120  0.40840  0.26150  1.0000 0.1081977355
H   H99       1.0  0.40840  0.06120  0.73850  1.0000 0.1081977355
H   H100      1.0  0.59160  0.93880  0.73850  1.0000 0.1081977355
H   H101      1.0  0.56120  0.90840  0.23850  1.0000 0.1081977355
H   H102      1.0  0.43880  0.09160  0.23850  1.0000 0.1081977355
H   H103      1.0  0.09160  0.43880  0.76150  1.0000 0.1081977355
H   H104      1.0  0.90840  0.56120  0.76150  1.0000 0.1081977355
H   H105      1.0  0.02230  0.55570  0.20450  1.0000 0.1081977355
H   H106      1.0  0.97770  0.44430  0.20450  1.0000 0.1081977355
H   H107      1.0  0.44430  0.97770  0.79550  1.0000 0.1081977355
H   H108      1.0  0.55570  0.02230  0.79550  1.0000 0.1081977355
H   H109      1.0  0.47770  0.94430  0.29550  1.0000 0.1081977355
H   H110      1.0  0.52230  0.05570  0.29550  1.0000 0.1081977355
H   H111      1.0  0.05570  0.52230  0.70450  1.0000 0.1081977355
H   H112      1.0  0.94430  0.47770  0.70450  1.0000 0.1081977355
H   H113      1.0  0.97360  0.64600  0.32940  1.0000 0.1081977355
H   H114      1.0  0.02640  0.35400  0.32940  1.0000 0.1081977355
H   H115      1.0  0.35400  0.02640  0.67060  1.0000 0.1081977355
H   H116      1.0  0.64600  0.97360  0.67060  1.0000 0.1081977355
H   H117      1.0  0.52640  0.85400  0.17060  1.0000 0.1081977355
H   H118      1.0  0.47360  0.14600  0.17060  1.0000 0.1081977355
H   H119      1.0  0.14600  0.47360  0.82940  1.0000 0.1081977355
H   H120      1.0  0.85400  0.52640  0.82940  1.0000 0.1081977355
H   H121      1.0  0.93020  0.64300  0.38860  1.0000 0.1201471911
H   H122      1.0  0.06980  0.35700  0.38860  1.0000 0.1201471911
H   H123      1.0  0.35700  0.06980  0.61140  1.0000 0.1201471911
H   H124      1.0  0.64300  0.93020  0.61140  1.0000 0.1081977355
H   H125      1.0  0.56980  0.85700  0.11140  1.0000 0.1081977355
H   H126      1.0  0.43020  0.14300  0.11140  1.0000 0.1081977355
H   H127      1.0  0.14300  0.43020  0.88860  1.0000 0.1201471911
H   H128      1.0  0.85700  0.56980  0.88860  1.0000 0.1081977355
H   H129      1.0  0.78110  0.41390  0.41440  1.0000 0.1201471911
H   H130      1.0  0.21890  0.58610  0.41440  1.0000 0.1201471911
H   H131      1.0  0.58610  0.21890  0.58560  1.0000 0.1201471911
H   H132      1.0  0.41390  0.78110  0.58560  1.0000 0.1201471911
H   H133      1.0  0.71890  0.08610  0.08560  1.0000 0.1201471911
H   H134      1.0  0.28110  0.91390  0.08560  1.0000 0.1201471911
H   H135      1.0  0.91390  0.28110  0.91440  1.0000 0.1201471911
H   H136      1.0  0.08610  0.71890  0.91440  1.0000 0.1201471911
H   H137      1.0  0.83200  0.42100  0.35690  1.0000 0.1081977355
H   H138      1.0  0.16800  0.57900  0.35690  1.0000 0.1081977355
H   H139      1.0  0.57900  0.16800  0.64310  1.0000 0.1081977355
H   H140      1.0  0.42100  0.83200  0.64310  1.0000 0.1081977355
H   H141      1.0  0.66800  0.07900  0.14310  1.0000 0.1081977355
H   H142      1.0  0.33200  0.92100  0.14310  1.0000 0.1081977355
H   H143      1.0  0.92100  0.33200  0.85690  1.0000 0.1081977355
H   H144      1.0  0.07900  0.66800  0.85690  1.0000 0.1081977355
H   H145      1.0  0.10630  0.68490  0.17280  1.0000 0.1081977355
H   H146      1.0  0.89370  0.31510  0.17280  1.0000 0.1081977355
H   H147      1.0  0.31510  0.89370  0.82720  1.0000 0.1081977355
H   H148      1.0  0.68490  0.10630  0.82720  1.0000 0.1081977355
H   H149      1.0  0.39370  0.81510  0.32720  1.0000 0.1081977355
H   H150      1.0  0.60630  0.18490  0.32720  1.0000 0.1081977355
H   H151      1.0  0.18490  0.60630  0.67280  1.0000 0.1081977355
H   H152      1.0  0.81510  0.39370  0.67280  1.0000 0.1081977355
H   H153      1.0  0.12400  0.73760  0.11230  1.0000 0.1201471911
H   H154      1.0  0.87600  0.26240  0.11230  1.0000 0.1201471911
H   H155      1.0  0.26240  0.87600  0.88770  1.0000 0.1201471911
H   H156      1.0  0.73760  0.12400  0.88770  1.0000 0.1201471911
H   H157      1.0  0.37600  0.76240  0.38770  1.0000 0.1201471911
H   H158      1.0  0.62400  0.23760  0.38770  1.0000 0.1201471911
H   H159      1.0  0.23760  0.62400  0.61230  1.0000 0.1201471911
H   H160      1.0  0.76240  0.37600  0.61230  1.0000 0.1201471911
H   H161      1.0  0.89930  0.60390  0.12850  1.0000 0.1285925072
H   H162      1.0  0.10070  0.39610  0.12850  1.0000 0.1285925072
H   H163      1.0  0.39610  0.10070  0.87150  1.0000 0.1285925072
H   H164      1.0  0.60390  0.89930  0.87150  1.0000 0.1285925072
H   H165      1.0  0.60070  0.89610  0.37150  1.0000 0.1285925072
H   H166      1.0  0.39930  0.10390  0.37150  1.0000 0.1285925072
H   H167      1.0  0.10390  0.39930  0.62850  1.0000 0.1285925072
H   H168      1.0  0.89610  0.60070  0.62850  1.0000 0.1285925072
H   H169      1.0  0.88540  0.55620  0.19140  1.0000 0.1081977355
H   H170      1.0  0.11460  0.44380  0.19140  1.0000 0.1081977355
H   H171      1.0  0.44380  0.11460  0.80860  1.0000 0.1081977355
H   H172      1.0  0.55620  0.88540  0.80860  1.0000 0.1081977355
H   H173      1.0  0.61460  0.94380  0.30860  1.0000 0.1081977355
H   H174      1.0  0.38540  0.05620  0.30860  1.0000 0.1081977355
H   H175      1.0  0.05620  0.38540  0.69140  1.0000 0.1081977355
H   H176      1.0  0.94380  0.61460  0.69140  1.0000 0.1081977355
C   C1        1.0  0.52220  0.49740  0.26569  1.0000 0.0774881118
C   C2        1.0  0.47780  0.50260  0.26569  1.0000 0.0774881118
C   C3        1.0  0.50260  0.47780  0.73431  1.0000 0.0774881118
C   C4        1.0  0.49740  0.52220  0.73431  1.0000 0.0774881118
C   C5        1.0  0.97780  0.00260  0.23431  1.0000 0.0774881118
C   C6        1.0  0.02220  0.99740  0.23431  1.0000 0.0774881118
C   C7        1.0  0.99740  0.02220  0.76569  1.0000 0.0774881118
C   C8        1.0  0.00260  0.97780  0.76569  1.0000 0.0774881118
C   C9        1.0  0.52333  0.47211  0.30114  1.0000 -0.2093125235
C   C10       1.0  0.47667  0.52789  0.30114  1.0000 -0.2093125235
C   C11       1.0  0.52789  0.47667  0.69886  1.0000 -0.2093125235
C   C12       1.0  0.47211  0.52333  0.69886  1.0000 -0.2093125235
C   C13       1.0  0.97667  0.02789  0.19886  1.0000 -0.2093125235
C   C14       1.0  0.02333  0.97211  0.19886  1.0000 -0.2093125235
C   C15       1.0  0.97211  0.02333  0.80114  1.0000 -0.2093125235
C   C16       1.0  0.02789  0.97667  0.80114  1.0000 -0.2093125235
C   C17       1.0  0.56613  0.46807  0.30231  1.0000 0.0724050302
C   C18       1.0  0.43387  0.53193  0.30231  1.0000 0.0724050302
C   C19       1.0  0.53193  0.43387  0.69769  1.0000 0.0724050302
C   C20       1.0  0.46807  0.56613  0.69769  1.0000 0.0724050302
C   C21       1.0  0.93387  0.03193  0.19769  1.0000 0.0724050302
C   C22       1.0  0.06613  0.96807  0.19769  1.0000 0.0724050302
C   C23       1.0  0.96807  0.06613  0.80231  1.0000 0.0724050302
C   C24       1.0  0.03193  0.93387  0.80231  1.0000 0.0724050302
C   C25       1.0  0.61036  0.49284  0.26742  1.0000 -0.2093125235
C   C26       1.0  0.38964  0.50716  0.26742  1.0000 -0.2093125235
C   C27       1.0  0.50716  0.38964  0.73258  1.0000 -0.2093125235
C   C28       1.0  0.49284  0.61036  0.73258  1.0000 -0.2093125235
C   C29       1.0  0.88964  0.00716  0.23258  1.0000 -0.2093125235
C   C30       1.0  0.11036  0.99284  0.23258  1.0000 -0.2093125235
C   C31       1.0  0.99284  0.11036  0.76742  1.0000 -0.2093125235
C   C32       1.0  0.00716  0.88964  0.76742  1.0000 -0.2093125235
C   C33       1.0  0.61079  0.51881  0.23123  1.0000 0.0899106042
C   C34       1.0  0.38921  0.48119  0.23123  1.0000 0.0899106042
C   C35       1.0  0.48119  0.38921  0.76877  1.0000 0.0899106042
C   C36       1.0  0.51881  0.61079  0.76877  1.0000 0.0899106042
C   C37       1.0  0.88921  0.98119  0.26877  1.0000 0.0899106042
C   C38       1.0  0.11079  0.01881  0.26877  1.0000 0.0899106042
C   C39       1.0  0.01881  0.11079  0.73123  1.0000 0.0899106042
C   C40       1.0  0.98119  0.88921  0.73123  1.0000 0.0899106042
C   C41       1.0  0.56553  0.52027  0.23114  1.0000 -0.2197669808
C   C42       1.0  0.43447  0.47973  0.23114  1.0000 -0.2197669808
C   C43       1.0  0.47973  0.43447  0.76886  1.0000 -0.2197669808
C   C44       1.0  0.52027  0.56553  0.76886  1.0000 -0.2197669808
C   C45       1.0  0.93447  0.97973  0.26886  1.0000 -0.2197669808
C   C46       1.0  0.06553  0.02027  0.26886  1.0000 -0.2197669808
C   C47       1.0  0.02027  0.06553  0.73114  1.0000 -0.2197669808
C   C48       1.0  0.97973  0.93447  0.73114  1.0000 -0.2197669808
C   C49       1.0  0.56534  0.43966  0.33932  1.0000 0.0603620639
C   C50       1.0  0.43466  0.56034  0.33932  1.0000 0.0603620639
C   C51       1.0  0.56034  0.43466  0.66068  1.0000 0.0603620639
C   C52       1.0  0.43966  0.56534  0.66068  1.0000 0.0603620639
C   C53       1.0  0.93466  0.06034  0.16068  1.0000 0.0603620639
C   C54       1.0  0.06534  0.93966  0.16068  1.0000 0.0603620639
C   C55       1.0  0.93966  0.06534  0.83932  1.0000 0.0603620639
C   C56       1.0  0.06034  0.93466  0.83932  1.0000 0.0603620639
C   C57       1.0  0.49317  0.37263  0.36245  1.0000 -0.1532343603
C   C58       1.0  0.50683  0.62737  0.36245  1.0000 -0.1532343603
C   C59       1.0  0.62737  0.50683  0.63755  1.0000 -0.1532343603
C   C60       1.0  0.37263  0.49317  0.63755  1.0000 -0.1532343603
C   C61       1.0  0.00683  0.12737  0.13755  1.0000 -0.1532343603
C   C62       1.0  0.99317  0.87263  0.13755  1.0000 -0.1532343603
C   C63       1.0  0.87263  0.99317  0.86245  1.0000 -0.1532343603
C   C64       1.0  0.12737  0.00683  0.86245  1.0000 -0.1532343603
C   C65       1.0  0.49050  0.34270  0.39636  1.0000 -0.1007581448
C   C66       1.0  0.50950  0.65730  0.39636  1.0000 -0.1007581448
C   C67       1.0  0.65730  0.50950  0.60364  1.0000 -0.1007581448
C   C68       1.0  0.34270  0.49050  0.60364  1.0000 -0.1007581448
C   C69       1.0  0.00950  0.15730  0.10364  1.0000 -0.1007581448
C   C70       1.0  0.99050  0.84270  0.10364  1.0000 -0.1007581448
C   C71       1.0  0.84270  0.99050  0.89636  1.0000 -0.1007581448
C   C72       1.0  0.15730  0.00950  0.89636  1.0000 -0.1007581448
C   C73       1.0  0.56305  0.38235  0.40808  1.0000 -0.0209489053
C   C74       1.0  0.43695  0.61765  0.40808  1.0000 -0.0209489053
C   C75       1.0  0.61765  0.43695  0.59192  1.0000 -0.0209489053
C   C76       1.0  0.38235  0.56305  0.59192  1.0000 -0.0209489053
C   C77       1.0  0.93695  0.11765  0.09192  1.0000 -0.0209489053
C   C78       1.0  0.06305  0.88235  0.09192  1.0000 -0.0209489053
C   C79       1.0  0.88235  0.06305  0.90808  1.0000 -0.0209489053
C   C80       1.0  0.11765  0.93695  0.90808  1.0000 -0.0209489053
C   C81       1.0  0.63489  0.44891  0.38621  1.0000 -0.1007581448
C   C82       1.0  0.36511  0.55109  0.38621  1.0000 -0.1007581448
C   C83       1.0  0.55109  0.36511  0.61379  1.0000 -0.1007581448
C   C84       1.0  0.44891  0.63489  0.61379  1.0000 -0.1007581448
C   C85       1.0  0.86511  0.05109  0.11379  1.0000 -0.1007581448
C   C86       1.0  0.13489  0.94891  0.11379  1.0000 -0.1007581448
C   C87       1.0  0.94891  0.13489  0.88621  1.0000 -0.1007581448
C   C88       1.0  0.05109  0.86511  0.88621  1.0000 -0.1007581448
C   C89       1.0  0.63618  0.47742  0.35226  1.0000 -0.1532343603
C   C90       1.0  0.36382  0.52258  0.35226  1.0000 -0.1532343603
C   C91       1.0  0.52258  0.36382  0.64774  1.0000 -0.1532343603
C   C92       1.0  0.47742  0.63618  0.64774  1.0000 -0.1532343603
C   C93       1.0  0.86382  0.02258  0.14774  1.0000 -0.1532343603
C   C94       1.0  0.13618  0.97742  0.14774  1.0000 -0.1532343603
C   C95       1.0  0.97742  0.13618  0.85226  1.0000 -0.1532343603
C   C96       1.0  0.02258  0.86382  0.85226  1.0000 -0.1532343603
C   C97       1.0  0.56171  0.35029  0.44531  1.0000 0.6453398172
C   C98       1.0  0.43829  0.64971  0.44531  1.0000 0.6453398172
C   C99       1.0  0.64971  0.43829  0.55469  1.0000 0.6453398172
C   C100      1.0  0.35029  0.56171  0.55469  1.0000 0.6453398172
C   C101      1.0  0.93829  0.14971  0.05469  1.0000 0.6453398172
C   C102      1.0  0.06171  0.85029  0.05469  1.0000 0.6453398172
C   C103      1.0  0.85029  0.06171  0.94531  1.0000 0.6453398172
C   C104      1.0  0.14971  0.93829  0.94531  1.0000 0.6453398172
C   C105      1.0  0.65677  0.54223  0.19393  1.0000 0.0603620639
C   C106      1.0  0.34323  0.45777  0.19393  1.0000 0.0549136858
C   C107      1.0  0.45777  0.34323  0.80607  1.0000 0.0549136858
C   C108      1.0  0.54223  0.65677  0.80607  1.0000 0.0603620639
C   C109      1.0  0.84323  0.95777  0.30607  1.0000 0.0549136858
C   C110      1.0  0.15677  0.04223  0.30607  1.0000 0.0549136858
C   C111      1.0  0.04223  0.15677  0.69393  1.0000 0.0549136858
C   C112      1.0  0.95777  0.84323  0.69393  1.0000 0.0603620639
C   C113      1.0  0.67655  0.51625  0.18857  1.0000 -0.1756441898
C   C114      1.0  0.32345  0.48375  0.18857  1.0000 -0.1756441898
C   C115      1.0  0.48375  0.32345  0.81143  1.0000 -0.1756441898
C   C116      1.0  0.51625  0.67655  0.81143  1.0000 -0.1756441898
C   C117      1.0  0.82345  0.98375  0.31143  1.0000 -0.1756441898
C   C118      1.0  0.17655  0.01625  0.31143  1.0000 -0.1756441898
C   C119      1.0  0.01625  0.17655  0.68857  1.0000 -0.1756441898
C   C120      1.0  0.98375  0.82345  0.68857  1.0000 -0.1756441898
C   C121      1.0  0.71973  0.53787  0.15374  1.0000 -0.1080852493
C   C122      1.0  0.28027  0.46213  0.15374  1.0000 -0.1080852493
C   C123      1.0  0.46213  0.28027  0.84626  1.0000 -0.1080852493
C   C124      1.0  0.53787  0.71973  0.84626  1.0000 -0.1080852493
C   C125      1.0  0.78027  0.96213  0.34626  1.0000 -0.1080852493
C   C126      1.0  0.21973  0.03787  0.34626  1.0000 -0.1080852493
C   C127      1.0  0.03787  0.21973  0.65374  1.0000 -0.1080852493
C   C128      1.0  0.96213  0.78027  0.65374  1.0000 -0.1080852493
C   C129      1.0  0.74442  0.58658  0.12441  1.0000 -0.0209489053
C   C130      1.0  0.25558  0.41342  0.12441  1.0000 -0.0209489053
C   C131      1.0  0.41342  0.25558  0.87559  1.0000 -0.0209489053
C   C132      1.0  0.58658  0.74442  0.87559  1.0000 -0.0209489053
C   C133      1.0  0.75558  0.91342  0.37559  1.0000 -0.0209489053
C   C134      1.0  0.24442  0.08658  0.37559  1.0000 -0.0209489053
C   C135      1.0  0.08658  0.24442  0.62441  1.0000 -0.0209489053
C   C136      1.0  0.91342  0.75558  0.62441  1.0000 -0.0209489053
C   C137      1.0  0.72515  0.61165  0.12873  1.0000 -0.1080852493
C   C138      1.0  0.27485  0.38835  0.12873  1.0000 -0.1080852493
C   C139      1.0  0.38835  0.27485  0.87127  1.0000 -0.1080852493
C   C140      1.0  0.61165  0.72515  0.87127  1.0000 -0.1080852493
C   C141      1.0  0.77485  0.88835  0.37127  1.0000 -0.1080852493
C   C142      1.0  0.22515  0.11165  0.37127  1.0000 -0.1080852493
C   C143      1.0  0.11165  0.22515  0.62873  1.0000 -0.1080852493
C   C144      1.0  0.88835  0.77485  0.62873  1.0000 -0.1080852493
C   C145      1.0  0.67996  0.58864  0.16324  1.0000 -0.160433411
C   C146      1.0  0.32004  0.41136  0.16324  1.0000 -0.160433411
C   C147      1.0  0.41136  0.32004  0.83676  1.0000 -0.160433411
C   C148      1.0  0.58864  0.67996  0.83676  1.0000 -0.160433411
C   C149      1.0  0.82004  0.91136  0.33676  1.0000 -0.160433411
C   C150      1.0  0.17996  0.08864  0.33676  1.0000 -0.160433411
C   C151      1.0  0.08864  0.17996  0.66324  1.0000 -0.160433411
C   C152      1.0  0.91136  0.82004  0.66324  1.0000 -0.160433411
C   C153      1.0  0.79073  0.60967  0.08677  1.0000 0.5685120981
C   C154      1.0  0.20927  0.39033  0.08677  1.0000 0.5685120981
C   C155      1.0  0.39033  0.20927  0.91323  1.0000 0.5685120981
C   C156      1.0  0.60967  0.79073  0.91323  1.0000 0.5685120981
C   C157      1.0  0.70927  0.89033  0.41323  1.0000 0.5685120981
C   C158      1.0  0.29073  0.10967  0.41323  1.0000 0.5685120981
C   C159      1.0  0.10967  0.29073  0.58677  1.0000 0.5685120981
C   C160      1.0  0.89033  0.70927  0.58677  1.0000 0.5685120981
C   C161      1.0  0.99001  0.51599  0.26398  1.0000 0.0774881118
C   C162      1.0  0.00999  0.48401  0.26398  1.0000 0.0774881118
C   C163      1.0  0.48401  0.00999  0.73602  1.0000 0.0774881118
C   C164      1.0  0.51599  0.99001  0.73602  1.0000 0.0774881118
C   C165      1.0  0.50999  0.98401  0.23602  1.0000 0.0774881118
C   C166      1.0  0.49001  0.01599  0.23602  1.0000 0.0774881118
C   C167      1.0  0.01599  0.49001  0.76398  1.0000 0.0774881118
C   C168      1.0  0.98401  0.50999  0.76398  1.0000 0.0774881118
C   C169      1.0  0.95798  0.50942  0.29871  1.0000 -0.2197669808
C   C170      1.0  0.04202  0.49058  0.29871  1.0000 -0.2197669808
C   C171      1.0  0.49058  0.04202  0.70129  1.0000 -0.2197669808
C   C172      1.0  0.50942  0.95798  0.70129  1.0000 -0.2197669808
C   C173      1.0  0.54202  0.99058  0.20129  1.0000 -0.2197669808
C   C174      1.0  0.45798  0.00942  0.20129  1.0000 -0.2197669808
C   C175      1.0  0.00942  0.45798  0.79871  1.0000 -0.2197669808
C   C176      1.0  0.99058  0.54202  0.79871  1.0000 -0.2197669808
C   C177      1.0  0.93879  0.53821  0.29857  1.0000 0.0774881118
C   C178      1.0  0.06121  0.46179  0.29857  1.0000 0.0774881118
C   C179      1.0  0.46179  0.06121  0.70143  1.0000 0.0774881118
C   C180      1.0  0.53821  0.93879  0.70143  1.0000 0.0774881118
C   C181      1.0  0.56121  0.96179  0.20143  1.0000 0.0774881118
C   C182      1.0  0.43879  0.03821  0.20143  1.0000 0.0774881118
C   C183      1.0  0.03821  0.43879  0.79857  1.0000 0.0774881118
C   C184      1.0  0.96179  0.56121  0.79857  1.0000 0.0774881118
C   C185      1.0  0.95070  0.57210  0.26216  1.0000 -0.2093125235
C   C186      1.0  0.04930  0.42790  0.26216  1.0000 -0.2093125235
C   C187      1.0  0.42790  0.04930  0.73784  1.0000 -0.2093125235
C   C188      1.0  0.57210  0.95070  0.73784  1.0000 -0.2093125235
C   C189      1.0  0.54930  0.92790  0.23784  1.0000 -0.2093125235
C   C190      1.0  0.45070  0.07210  0.23784  1.0000 -0.2093125235
C   C191      1.0  0.07210  0.45070  0.76216  1.0000 -0.2093125235
C   C192      1.0  0.92790  0.54930  0.76216  1.0000 -0.2093125235
C   C193      1.0  0.98007  0.57653  0.22700  1.0000 0.0724050302
C   C194      1.0  0.01993  0.42347  0.22700  1.0000 0.0724050302
C   C195      1.0  0.42347  0.01993  0.77300  1.0000 0.0724050302
C   C196      1.0  0.57653  0.98007  0.77300  1.0000 0.0724050302
C   C197      1.0  0.51993  0.92347  0.27300  1.0000 0.0724050302
C   C198      1.0  0.48007  0.07653  0.27300  1.0000 0.0724050302
C   C199      1.0  0.07653  0.48007  0.72700  1.0000 0.0724050302
C   C200      1.0  0.92347  0.51993  0.72700  1.0000 0.0724050302
C   C201      1.0  0.00061  0.55019  0.22830  1.0000 -0.2093125235
C   C202      1.0  0.99939  0.44981  0.22830  1.0000 -0.2093125235
C   C203      1.0  0.44981  0.99939  0.77170  1.0000 -0.2093125235
C   C204      1.0  0.55019  0.00061  0.77170  1.0000 -0.2093125235
C   C205      1.0  0.49939  0.94981  0.27170  1.0000 -0.2093125235
C   C206      1.0  0.50061  0.05019  0.27170  1.0000 -0.2093125235
C   C207      1.0  0.05019  0.50061  0.72830  1.0000 -0.2093125235
C   C208      1.0  0.94981  0.49939  0.72830  1.0000 -0.2093125235
C   C209      1.0  0.90780  0.53360  0.33635  1.0000 0.0603620639
C   C210      1.0  0.09220  0.46640  0.33635  1.0000 0.0603620639
C   C211      1.0  0.46640  0.09220  0.66365  1.0000 0.0603620639
C   C212      1.0  0.53360  0.90780  0.66365  1.0000 0.0603620639
C   C213      1.0  0.59220  0.96640  0.16365  1.0000 0.0603620639
C   C214      1.0  0.40780  0.03360  0.16365  1.0000 0.0603620639
C   C215      1.0  0.03360  0.40780  0.83635  1.0000 0.0603620639
C   C216      1.0  0.96640  0.59220  0.83635  1.0000 0.0603620639
C   C217      1.0  0.93580  0.59940  0.34707  1.0000 -0.160433411
C   C218      1.0  0.06420  0.40060  0.34707  1.0000 -0.160433411
C   C219      1.0  0.40060  0.06420  0.65293  1.0000 -0.160433411
C   C220      1.0  0.59940  0.93580  0.65293  1.0000 -0.160433411
C   C221      1.0  0.56420  0.90060  0.15293  1.0000 -0.160433411
C   C222      1.0  0.43580  0.09940  0.15293  1.0000 -0.160433411
C   C223      1.0  0.09940  0.43580  0.84707  1.0000 -0.160433411
C   C224      1.0  0.90060  0.56420  0.84707  1.0000 -0.160433411
C   C225      1.0  0.91000  0.59800  0.38247  1.0000 -0.1007581448
C   C226      1.0  0.09000  0.40200  0.38247  1.0000 -0.1007581448
C   C227      1.0  0.40200  0.09000  0.61753  1.0000 -0.1007581448
C   C228      1.0  0.59800  0.91000  0.61753  1.0000 -0.1007581448
C   C229      1.0  0.59000  0.90200  0.11753  1.0000 -0.1007581448
C   C230      1.0  0.41000  0.09800  0.11753  1.0000 -0.1007581448
C   C231      1.0  0.09800  0.41000  0.88247  1.0000 -0.1007581448
C   C232      1.0  0.90200  0.59000  0.88247  1.0000 -0.1007581448
C   C233      1.0  0.85456  0.53024  0.40869  1.0000 -0.0410184949
C   C234      1.0  0.14544  0.46976  0.40869  1.0000 -0.0410184949
C   C235      1.0  0.46976  0.14544  0.59131  1.0000 -0.0410184949
C   C236      1.0  0.53024  0.85456  0.59131  1.0000 -0.0410184949
C   C237      1.0  0.64544  0.96976  0.09131  1.0000 -0.0410184949
C   C238      1.0  0.35456  0.03024  0.09131  1.0000 -0.0410184949
C   C239      1.0  0.03024  0.35456  0.90869  1.0000 -0.0410184949
C   C240      1.0  0.96976  0.64544  0.90869  1.0000 -0.0410184949
C   C241      1.0  0.82261  0.46239  0.39784  1.0000 -0.1007581448
C   C242      1.0  0.17739  0.53761  0.39784  1.0000 -0.1007581448
C   C243      1.0  0.53761  0.17739  0.60216  1.0000 -0.1007581448
C   C244      1.0  0.46239  0.82261  0.60216  1.0000 -0.1007581448
C   C245      1.0  0.67739  0.03761  0.10216  1.0000 -0.1007581448
C   C246      1.0  0.32261  0.96239  0.10216  1.0000 -0.1007581448
C   C247      1.0  0.96239  0.32261  0.89784  1.0000 -0.1007581448
C   C248      1.0  0.03761  0.67739  0.89784  1.0000 -0.1007581448
C   C249      1.0  0.85129  0.46551  0.36269  1.0000 -0.160433411
C   C250      1.0  0.14871  0.53449  0.36269  1.0000 -0.160433411
C   C251      1.0  0.53449  0.14871  0.63731  1.0000 -0.160433411
C   C252      1.0  0.46551  0.85129  0.63731  1.0000 -0.160433411
C   C253      1.0  0.64871  0.03449  0.13731  1.0000 -0.160433411
C   C254      1.0  0.35129  0.96551  0.13731  1.0000 -0.160433411
C   C255      1.0  0.96551  0.35129  0.86269  1.0000 -0.160433411
C   C256      1.0  0.03449  0.64871  0.86269  1.0000 -0.160433411
C   C257      1.0  0.82899  0.53201  0.44859  1.0000 0.6439097982
C   C258      1.0  0.17101  0.46799  0.44859  1.0000 0.6439097982
C   C259      1.0  0.46799  0.17101  0.55141  1.0000 0.6439097982
C   C260      1.0  0.53201  0.82899  0.55141  1.0000 0.6439097982
C   C261      1.0  0.67101  0.96799  0.05141  1.0000 0.6439097982
C   C262      1.0  0.32899  0.03201  0.05141  1.0000 0.6453398172
C   C263      1.0  0.03201  0.32899  0.94859  1.0000 0.6453398172
C   C264      1.0  0.96799  0.67101  0.94859  1.0000 0.6453398172
C   C265      1.0  0.99276  0.61324  0.18788  1.0000 0.0603620639
C   C266      1.0  0.00724  0.38676  0.18788  1.0000 0.0603620639
C   C267      1.0  0.38676  0.00724  0.81212  1.0000 0.0603620639
C   C268      1.0  0.61324  0.99276  0.81212  1.0000 0.0603620639
C   C269      1.0  0.50724  0.88676  0.31212  1.0000 0.0603620639
C   C270      1.0  0.49276  0.11324  0.31212  1.0000 0.0603620639
C   C271      1.0  0.11324  0.49276  0.68788  1.0000 0.0603620639
C   C272      1.0  0.88676  0.50724  0.68788  1.0000 0.0603620639
C   C273      1.0  0.06467  0.66873  0.16405  1.0000 -0.160433411
C   C274      1.0  0.93533  0.33127  0.16405  1.0000 -0.160433411
C   C275      1.0  0.33127  0.93533  0.83595  1.0000 -0.160433411
C   C276      1.0  0.66873  0.06467  0.83595  1.0000 -0.160433411
C   C277      1.0  0.43533  0.83127  0.33595  1.0000 -0.160433411
C   C278      1.0  0.56467  0.16873  0.33595  1.0000 -0.160433411
C   C279      1.0  0.16873  0.56467  0.66405  1.0000 -0.160433411
C   C280      1.0  0.83127  0.43533  0.66405  1.0000 -0.160433411
C   C281      1.0  0.07505  0.69975  0.12798  1.0000 -0.1007581448
C   C282      1.0  0.92495  0.30025  0.12798  1.0000 -0.1007581448
C   C283      1.0  0.30025  0.92495  0.87202  1.0000 -0.1007581448
C   C284      1.0  0.69975  0.07505  0.87202  1.0000 -0.1007581448
C   C285      1.0  0.42495  0.80025  0.37202  1.0000 -0.1007581448
C   C286      1.0  0.57505  0.19975  0.37202  1.0000 -0.1007581448
C   C287      1.0  0.19975  0.57505  0.62798  1.0000 -0.1007581448
C   C288      1.0  0.80025  0.42495  0.62798  1.0000 -0.1007581448
C   C289      1.0  0.01318  0.67562  0.11406  1.0000 -0.033712785
C   C290      1.0  0.98682  0.32438  0.11406  1.0000 -0.033712785
C   C291      1.0  0.32438  0.98682  0.88594  1.0000 -0.033712785
C   C292      1.0  0.67562  0.01318  0.88594  1.0000 -0.033712785
C   C293      1.0  0.48682  0.82438  0.38594  1.0000 -0.033712785
C   C294      1.0  0.51318  0.17562  0.38594  1.0000 -0.033712785
C   C295      1.0  0.17562  0.51318  0.61406  1.0000 -0.033712785
C   C296      1.0  0.82438  0.48682  0.61406  1.0000 -0.033712785
C   C297      1.0  0.94137  0.62083  0.13759  1.0000 -0.1007581448
C   C298      1.0  0.05863  0.37917  0.13759  1.0000 -0.1007581448
C   C299      1.0  0.37917  0.05863  0.86241  1.0000 -0.1007581448
C   C300      1.0  0.62083  0.94137  0.86241  1.0000 -0.1007581448
C   C301      1.0  0.55863  0.87917  0.36241  1.0000 -0.1007581448
C   C302      1.0  0.44137  0.12083  0.36241  1.0000 -0.1007581448
C   C303      1.0  0.12083  0.44137  0.63759  1.0000 -0.1007581448
C   C304      1.0  0.87917  0.55863  0.63759  1.0000 -0.1007581448
C   C305      1.0  0.93260  0.59140  0.17484  1.0000 -0.1532343603
C   C306      1.0  0.06740  0.40860  0.17484  1.0000 -0.1532343603
C   C307      1.0  0.40860  0.06740  0.82516  1.0000 -0.1532343603
C   C308      1.0  0.59140  0.93260  0.82516  1.0000 -0.1532343603
C   C309      1.0  0.56740  0.90860  0.32516  1.0000 -0.1532343603
C   C310      1.0  0.43260  0.09140  0.32516  1.0000 -0.1532343603
C   C311      1.0  0.09140  0.43260  0.67484  1.0000 -0.1532343603
C   C312      1.0  0.90860  0.56740  0.67484  1.0000 -0.1532343603
C   C313      1.0  0.02273  0.70787  0.07311  1.0000 0.6453398172
C   C314      1.0  0.97727  0.29213  0.07311  1.0000 0.6453398172
C   C315      1.0  0.29213  0.97727  0.92689  1.0000 0.6453398172
C   C316      1.0  0.70787  0.02273  0.92689  1.0000 0.6453398172
C   C317      1.0  0.47727  0.79213  0.42689  1.0000 0.6453398172
C   C318      1.0  0.52273  0.20787  0.42689  1.0000 0.6453398172
C   C319      1.0  0.20787  0.52273  0.57311  1.0000 0.6453398172
C   C320      1.0  0.79213  0.47727  0.57311  1.0000 0.6453398172
O   O1        1.0  0.62750  0.38876  0.45539  1.0000 -0.6201881308
O   O2        1.0  0.37250  0.61124  0.45539  1.0000 -0.6201881308
O   O3        1.0  0.61124  0.37250  0.54461  1.0000 -0.6201881308
O   O4        1.0  0.38876  0.62750  0.54461  1.0000 -0.6201881308
O   O5        1.0  0.87250  0.11124  0.04461  1.0000 -0.6201881308
O   O6        1.0  0.12750  0.88876  0.04461  1.0000 -0.6201881308
O   O7        1.0  0.88876  0.12750  0.95539  1.0000 -0.6201881308
O   O8        1.0  0.11124  0.87250  0.95539  1.0000 -0.6201881308
O   O9        1.0  0.49210  0.28490  0.46318  1.0000 -0.7046997288
O   O10       1.0  0.50790  0.71510  0.46318  1.0000 -0.7060552463
O   O11       1.0  0.71510  0.50790  0.53682  1.0000 -0.7060552463
O   O12       1.0  0.28490  0.49210  0.53682  1.0000 -0.7046997288
O   O13       1.0  0.00790  0.21510  0.03682  1.0000 -0.7046997288
O   O14       1.0  0.99210  0.78490  0.03682  1.0000 -0.7046997288
O   O15       1.0  0.78490  0.99210  0.96318  1.0000 -0.7060552463
O   O16       1.0  0.21510  0.00790  0.96318  1.0000 -0.7046997288
O   O17       1.0  0.81041  0.58619  0.08620  1.0000 -0.6520950435
O   O18       1.0  0.18959  0.41381  0.08620  1.0000 -0.6520950435
O   O19       1.0  0.41381  0.18959  0.91380  1.0000 -0.6520950435
O   O20       1.0  0.58619  0.81041  0.91380  1.0000 -0.6520950435
O   O21       1.0  0.68959  0.91381  0.41380  1.0000 -0.6520950435
O   O22       1.0  0.31041  0.08619  0.41380  1.0000 -0.6520950435
O   O23       1.0  0.08619  0.31041  0.58620  1.0000 -0.6520950435
O   O24       1.0  0.91381  0.68959  0.58620  1.0000 -0.6520950435
O   O25       1.0  0.80663  0.64651  0.05754  1.0000 -0.5859449644
O   O26       1.0  0.19337  0.35349  0.05754  1.0000 -0.583378905
O   O27       1.0  0.35349  0.19337  0.94246  1.0000 -0.583378905
O   O28       1.0  0.64651  0.80663  0.94246  1.0000 -0.583378905
O   O29       1.0  0.69337  0.85349  0.44246  1.0000 -0.583378905
O   O30       1.0  0.30663  0.14651  0.44246  1.0000 -0.583378905
O   O31       1.0  0.14651  0.30663  0.55754  1.0000 -0.5859449644
O   O32       1.0  0.85349  0.69337  0.55754  1.0000 -0.583378905
O   O33       1.0  0.77457  0.46523  0.46876  1.0000 -0.7046997288
O   O34       1.0  0.22543  0.53477  0.46876  1.0000 -0.7046997288
O   O35       1.0  0.53477  0.22543  0.53124  1.0000 -0.7060552463
O   O36       1.0  0.46523  0.77457  0.53124  1.0000 -0.7046997288
O   O37       1.0  0.72543  0.03477  0.03124  1.0000 -0.7046997288
O   O38       1.0  0.27457  0.96523  0.03124  1.0000 -0.7060552463
O   O39       1.0  0.96523  0.27457  0.96876  1.0000 -0.7060552463
O   O40       1.0  0.03477  0.72543  0.96876  1.0000 -0.7060552463
O   O41       1.0  0.86106  0.59334  0.45764  1.0000 -0.6444397587
O   O42       1.0  0.13894  0.40666  0.45764  1.0000 -0.6444397587
O   O43       1.0  0.40666  0.13894  0.54236  1.0000 -0.6520950435
O   O44       1.0  0.59334  0.86106  0.54236  1.0000 -0.6520950435
O   O45       1.0  0.63894  0.90666  0.04236  1.0000 -0.6444397587
O   O46       1.0  0.36106  0.09334  0.04236  1.0000 -0.6444397587
O   O47       1.0  0.09334  0.36106  0.95764  1.0000 -0.6520950435
O   O48       1.0  0.90666  0.63894  0.95764  1.0000 -0.6444397587
O   O49       1.0  0.95861  0.66879  0.05768  1.0000 -0.6754657934
O   O50       1.0  0.04139  0.33121  0.05768  1.0000 -0.6754657934
O   O51       1.0  0.33121  0.04139  0.94232  1.0000 -0.6754657934
O   O52       1.0  0.66879  0.95861  0.94232  1.0000 -0.6754657934
O   O53       1.0  0.54139  0.83121  0.44232  1.0000 -0.6743700046
O   O54       1.0  0.45861  0.16879  0.44232  1.0000 -0.6754657934
O   O55       1.0  0.16879  0.45861  0.55768  1.0000 -0.6754657934
O   O56       1.0  0.83121  0.54139  0.55768  1.0000 -0.6754657934
O   O57       1.0  0.09349  0.76869  0.05751  1.0000 -0.6520950435
O   O58       1.0  0.90651  0.23131  0.05751  1.0000 -0.6520950435
O   O59       1.0  0.23131  0.90651  0.94249  1.0000 -0.6561170954
O   O60       1.0  0.76869  0.09349  0.94249  1.0000 -0.6520950435
O   O61       1.0  0.40651  0.73131  0.44249  1.0000 -0.6520950435
O   O62       1.0  0.59349  0.26869  0.44249  1.0000 -0.6520950435
O   O63       1.0  0.26869  0.59349  0.55751  1.0000 -0.6520950435
O   O64       1.0  0.73131  0.40651  0.55751  1.0000 -0.6520950435
