# DDEC6 charges by PACMAN v1.1 (https://github.com/mtap-research/PACMAN-charge/)
data_0000[Cd][nbo]3[ASR]1
_chemical_formula_sum              "Cd3 H60 C78 N18"
_cell_length_a       16.3816
_cell_length_b       16.3816
_cell_length_c       16.3816
_cell_angle_alpha    90.8925
_cell_angle_beta     90.8925
_cell_angle_gamma    90.8925

_symmetry_space_group_name_H-M    "P 1"
_symmetry_Int_Tables_number       1

loop_
  _symmetry_equiv_pos_as_xyz
  'x, y, z'

loop_
  _atom_site_type_symbol
  _atom_site_label
  _atom_site_symmetry_multiplicity
  _atom_site_fract_x
  _atom_site_fract_y
  _atom_site_fract_z
  _atom_site_occupancy
  _atom_site_charge
Cd  Cd1       1.0  0.50000  0.50000  0.00000  1.0000 0.6625815086
Cd  Cd2       1.0  0.00000  0.50000  0.50000  1.0000 0.6625815086
Cd  Cd3       1.0  0.50000  0.00000  0.50000  1.0000 0.6625815086
H   H1        1.0  0.42916  0.33090  0.94518  1.0000 0.0782891446
H   H2        1.0  0.42502  0.18865  0.99173  1.0000 0.1177330019
H   H3        1.0  0.57785  0.26081  0.19819  1.0000 0.1177330019
H   H4        1.0  0.57305  0.40291  0.15090  1.0000 0.0719034823
H   H5        1.0  0.39758  0.99672  0.10990  1.0000 0.1121034037
H   H6        1.0  0.94518  0.42916  0.33090  1.0000 0.0782891446
H   H7        1.0  0.99173  0.42502  0.18865  1.0000 0.1177330019
H   H8        1.0  0.19819  0.57785  0.26081  1.0000 0.1177330019
H   H9        1.0  0.15090  0.57305  0.40291  1.0000 0.0719034823
H   H10       1.0  0.10990  0.39758  0.99672  1.0000 0.1121034037
H   H11       1.0  0.33090  0.94518  0.42916  1.0000 0.0782891446
H   H12       1.0  0.18865  0.99173  0.42502  1.0000 0.1177330019
H   H13       1.0  0.26081  0.19819  0.57785  1.0000 0.1177330019
H   H14       1.0  0.40291  0.15090  0.57305  1.0000 0.0719034823
H   H15       1.0  0.99672  0.10990  0.39758  1.0000 0.1121034037
H   H16       1.0  0.67286  0.44197  0.06246  1.0000 0.0719034823
H   H17       1.0  0.81304  0.43560  0.01542  1.0000 0.1177330019
H   H18       1.0  0.73739  0.55219  0.79270  1.0000 0.1121034037
H   H19       1.0  0.59572  0.54727  0.84097  1.0000 0.0719034823
H   H20       1.0  0.00348  0.39574  0.88868  1.0000 0.1121034037
H   H21       1.0  0.44197  0.06246  0.67286  1.0000 0.0719034823
H   H22       1.0  0.43560  0.01542  0.81304  1.0000 0.1177330019
H   H23       1.0  0.55219  0.79270  0.73739  1.0000 0.1121034037
H   H24       1.0  0.54727  0.84096  0.59572  1.0000 0.0719034823
H   H25       1.0  0.39574  0.88868  0.00348  1.0000 0.1121034037
H   H26       1.0  0.06246  0.67286  0.44197  1.0000 0.0719034823
H   H27       1.0  0.01542  0.81304  0.43560  1.0000 0.1177330019
H   H28       1.0  0.79270  0.73739  0.55219  1.0000 0.1121034037
H   H29       1.0  0.84096  0.59572  0.54727  1.0000 0.0719034823
H   H30       1.0  0.88868  0.00348  0.39574  1.0000 0.1121034037
H   H31       1.0  0.57084  0.66910  0.05482  1.0000 0.0782891446
H   H32       1.0  0.57498  0.81135  0.00827  1.0000 0.1177330019
H   H33       1.0  0.42215  0.73919  0.80181  1.0000 0.1177330019
H   H34       1.0  0.42695  0.59709  0.84910  1.0000 0.0719034823
H   H35       1.0  0.60241  0.00328  0.89010  1.0000 0.1121034037
H   H36       1.0  0.05482  0.57084  0.66910  1.0000 0.0782891446
H   H37       1.0  0.00827  0.57498  0.81135  1.0000 0.1177330019
H   H38       1.0  0.80181  0.42215  0.73919  1.0000 0.1177330019
H   H39       1.0  0.84910  0.42695  0.59709  1.0000 0.0719034823
H   H40       1.0  0.89010  0.60242  0.00328  1.0000 0.1121034037
H   H41       1.0  0.66910  0.05482  0.57084  1.0000 0.0782891446
H   H42       1.0  0.81135  0.00827  0.57498  1.0000 0.1177330019
H   H43       1.0  0.73919  0.80181  0.42215  1.0000 0.1177330019
H   H44       1.0  0.59709  0.84910  0.42695  1.0000 0.0719034823
H   H45       1.0  0.00328  0.89010  0.60241  1.0000 0.1121034037
H   H46       1.0  0.32714  0.55803  0.93754  1.0000 0.0719034823
H   H47       1.0  0.18696  0.56440  0.98458  1.0000 0.1177330019
H   H48       1.0  0.26261  0.44781  0.20730  1.0000 0.1121034037
H   H49       1.0  0.40428  0.45273  0.15904  1.0000 0.0719034823
H   H50       1.0  0.99652  0.60426  0.11132  1.0000 0.1121034037
H   H51       1.0  0.55803  0.93754  0.32714  1.0000 0.0719034823
H   H52       1.0  0.56440  0.98458  0.18696  1.0000 0.1177330019
H   H53       1.0  0.44781  0.20730  0.26261  1.0000 0.1121034037
H   H54       1.0  0.45273  0.15904  0.40428  1.0000 0.0719034823
H   H55       1.0  0.60426  0.11132  0.99652  1.0000 0.1121034037
H   H56       1.0  0.93754  0.32714  0.55803  1.0000 0.0719034823
H   H57       1.0  0.98458  0.18696  0.56440  1.0000 0.1177330019
H   H58       1.0  0.20730  0.26261  0.44781  1.0000 0.1121034037
H   H59       1.0  0.15904  0.40428  0.45273  1.0000 0.0719034823
H   H60       1.0  0.11132  0.99652  0.60426  1.0000 0.1121034037
C   C1        1.0  0.46157  0.31510  0.00061  1.0000 0.0782891446
C   C2        1.0  0.45932  0.23387  0.02752  1.0000 -0.2484177798
C   C3        1.0  0.50109  0.21149  0.09970  1.0000 0.2163385015
C   C4        1.0  0.54360  0.27418  0.14314  1.0000 -0.2484177798
C   C5        1.0  0.54265  0.35521  0.11501  1.0000 0.052135089
C   C6        1.0  0.44261  0.99856  0.06226  1.0000 -0.1812511506
C   C7        1.0  0.00062  0.46157  0.31510  1.0000 0.0782891446
C   C8        1.0  0.02752  0.45932  0.23387  1.0000 -0.2484177798
C   C9        1.0  0.09970  0.50109  0.21149  1.0000 0.2163385015
C   C10       1.0  0.14314  0.54360  0.27418  1.0000 -0.2484177798
C   C11       1.0  0.11501  0.54265  0.35521  1.0000 0.052135089
C   C12       1.0  0.06227  0.44262  0.99856  1.0000 -0.1812511506
C   C13       1.0  0.31510  0.00061  0.46157  1.0000 0.0782891446
C   C14       1.0  0.23387  0.02752  0.45932  1.0000 -0.2484177798
C   C15       1.0  0.21149  0.09970  0.50109  1.0000 0.2163385015
C   C16       1.0  0.27418  0.14314  0.54360  1.0000 -0.2484177798
C   C17       1.0  0.35521  0.11501  0.54265  1.0000 0.052135089
C   C18       1.0  0.99856  0.06227  0.44261  1.0000 -0.1812511506
C   C19       1.0  0.68625  0.46361  0.00235  1.0000 0.0782891446
C   C20       1.0  0.76727  0.46127  0.97545  1.0000 -0.2484177798
C   C21       1.0  0.78895  0.49326  0.89906  1.0000 0.2163385015
C   C22       1.0  0.72496  0.52481  0.85095  1.0000 -0.2484177798
C   C23       1.0  0.64375  0.52298  0.87902  1.0000 0.0782891446
C   C24       1.0  0.00163  0.44165  0.93684  1.0000 -0.1812511506
C   C25       1.0  0.46361  0.00235  0.68625  1.0000 0.0782891446
C   C26       1.0  0.46126  0.97544  0.76727  1.0000 -0.2416039703
C   C27       1.0  0.49326  0.89906  0.78894  1.0000 0.2163385015
C   C28       1.0  0.52481  0.85095  0.72496  1.0000 -0.2484177798
C   C29       1.0  0.52297  0.87902  0.64375  1.0000 0.0782891446
C   C30       1.0  0.44165  0.93684  0.00163  1.0000 -0.1812511506
C   C31       1.0  0.00235  0.68625  0.46361  1.0000 0.0782891446
C   C32       1.0  0.97544  0.76727  0.46126  1.0000 -0.2416039703
C   C33       1.0  0.89905  0.78894  0.49326  1.0000 0.2163385015
C   C34       1.0  0.85095  0.72496  0.52481  1.0000 -0.2484177798
C   C35       1.0  0.87902  0.64375  0.52298  1.0000 0.0782891446
C   C36       1.0  0.93684  0.00163  0.44165  1.0000 -0.1812511506
C   C37       1.0  0.53843  0.68490  0.99939  1.0000 0.0782891446
C   C38       1.0  0.54068  0.76613  0.97248  1.0000 -0.2484177798
C   C39       1.0  0.49891  0.78851  0.90030  1.0000 0.2149287365
C   C40       1.0  0.45640  0.72582  0.85686  1.0000 -0.2484177798
C   C41       1.0  0.45735  0.64479  0.88499  1.0000 0.052135089
C   C42       1.0  0.55738  0.00144  0.93773  1.0000 -0.1812511506
C   C43       1.0  0.99939  0.53843  0.68490  1.0000 0.0782891446
C   C44       1.0  0.97248  0.54068  0.76613  1.0000 -0.2484177798
C   C45       1.0  0.90030  0.49891  0.78851  1.0000 0.2163385015
C   C46       1.0  0.85686  0.45640  0.72582  1.0000 -0.2484177798
C   C47       1.0  0.88499  0.45735  0.64479  1.0000 0.052135089
C   C48       1.0  0.93774  0.55738  0.00144  1.0000 -0.1812511506
C   C49       1.0  0.68490  0.99939  0.53843  1.0000 0.0782891446
C   C50       1.0  0.76613  0.97248  0.54068  1.0000 -0.2484177798
C   C51       1.0  0.78851  0.90030  0.49891  1.0000 0.2163385015
C   C52       1.0  0.72582  0.85686  0.45640  1.0000 -0.2484177798
C   C53       1.0  0.64479  0.88499  0.45735  1.0000 0.052135089
C   C54       1.0  0.00144  0.93774  0.55738  1.0000 -0.1812511506
C   C55       1.0  0.31375  0.53639  0.99765  1.0000 0.0782891446
C   C56       1.0  0.23273  0.53873  0.02456  1.0000 -0.2416039703
C   C57       1.0  0.21106  0.50674  0.10095  1.0000 0.2163385015
C   C58       1.0  0.27504  0.47519  0.14905  1.0000 -0.2484177798
C   C59       1.0  0.35625  0.47702  0.12098  1.0000 0.0782891446
C   C60       1.0  0.99837  0.55835  0.06316  1.0000 -0.1812511506
C   C61       1.0  0.53638  0.99765  0.31375  1.0000 0.0782891446
C   C62       1.0  0.53873  0.02455  0.23273  1.0000 -0.2416039703
C   C63       1.0  0.50674  0.10094  0.21106  1.0000 0.2163385015
C   C64       1.0  0.47519  0.14905  0.27504  1.0000 -0.2484177798
C   C65       1.0  0.47702  0.12098  0.35625  1.0000 0.0782891446
C   C66       1.0  0.55835  0.06316  0.99837  1.0000 -0.1812511506
C   C67       1.0  0.99765  0.31375  0.53639  1.0000 0.0782891446
C   C68       1.0  0.02455  0.23273  0.53873  1.0000 -0.2484177798
C   C69       1.0  0.10094  0.21106  0.50674  1.0000 0.2163385015
C   C70       1.0  0.14905  0.27504  0.47519  1.0000 -0.2484177798
C   C71       1.0  0.12098  0.35625  0.47702  1.0000 0.0782891446
C   C72       1.0  0.06316  0.99837  0.55835  1.0000 -0.1812511506
C   C73       1.0  0.50110  0.06245  0.06154  1.0000 0.1674401589
C   C74       1.0  0.06154  0.50110  0.06245  1.0000 0.1674401589
C   C75       1.0  0.06245  0.06154  0.50110  1.0000 0.1674401589
C   C76       1.0  0.93846  0.49890  0.93755  1.0000 0.1674401589
C   C77       1.0  0.49890  0.93755  0.93846  1.0000 0.1674401589
C   C78       1.0  0.93755  0.93846  0.49890  1.0000 0.1674401589
N   N1        1.0  0.50351  0.37440  0.04369  1.0000 -0.3076115735
N   N2        1.0  0.04369  0.50351  0.37440  1.0000 -0.3076115735
N   N3        1.0  0.37440  0.04369  0.50351  1.0000 -0.3076115735
N   N4        1.0  0.62534  0.49357  0.95434  1.0000 -0.3076115735
N   N5        1.0  0.49357  0.95433  0.62534  1.0000 -0.3076115735
N   N6        1.0  0.95433  0.62534  0.49357  1.0000 -0.3076115735
N   N7        1.0  0.49649  0.62560  0.95631  1.0000 -0.3076115735
N   N8        1.0  0.95631  0.49649  0.62560  1.0000 -0.3076115735
N   N9        1.0  0.62560  0.95631  0.49649  1.0000 -0.3076115735
N   N10       1.0  0.37466  0.50643  0.04567  1.0000 -0.3076115735
N   N11       1.0  0.50643  0.04566  0.37466  1.0000 -0.3044230886
N   N12       1.0  0.04566  0.37466  0.50643  1.0000 -0.3044230886
N   N13       1.0  0.50292  0.12585  0.12510  1.0000 -0.2416039703
N   N14       1.0  0.12510  0.50292  0.12586  1.0000 -0.2416039703
N   N15       1.0  0.12585  0.12510  0.50292  1.0000 -0.2330376454
N   N16       1.0  0.87490  0.49708  0.87415  1.0000 -0.2330376454
N   N17       1.0  0.49708  0.87415  0.87490  1.0000 -0.2330376454
N   N18       1.0  0.87415  0.87490  0.49708  1.0000 -0.2330376454
