# DDEC6 charges by PACMAN v1.1 (https://github.com/mtap-research/PACMAN-charge/)
data_0000[Co][nan]2[ASR]4
_chemical_formula_sum              "Co6 H48 C96 N24 Cl12 O26"
_cell_length_a       13.9294
_cell_length_b       13.9294
_cell_length_c       26.264
_cell_angle_alpha    90
_cell_angle_beta     90
_cell_angle_gamma    120

_symmetry_space_group_name_H-M    "P 1"
_symmetry_Int_Tables_number       1

loop_
  _symmetry_equiv_pos_as_xyz
  'x, y, z'

loop_
  _atom_site_type_symbol
  _atom_site_label
  _atom_site_symmetry_multiplicity
  _atom_site_fract_x
  _atom_site_fract_y
  _atom_site_fract_z
  _atom_site_occupancy
  _atom_site_charge
Co  Co1       1.0  0.35221  0.81952  0.75000  1.0000 1.1637721674
Co  Co2       1.0  0.18048  0.53269  0.75000  1.0000 1.1637721674
Co  Co3       1.0  0.46731  0.64779  0.75000  1.0000 1.1637721674
Co  Co4       1.0  0.53269  0.18048  0.25000  1.0000 1.1637721674
Co  Co5       1.0  0.64779  0.46731  0.25000  1.0000 1.1637721674
Co  Co6       1.0  0.81952  0.35221  0.25000  1.0000 1.1637721674
H   H1        1.0  0.83372  0.95128  0.57233  1.0000 0.125363133
H   H2        1.0  0.67914  0.82590  0.61713  1.0000 0.1212351164
H   H3        1.0  0.62623  0.06964  0.66697  1.0000 0.1375556803
H   H4        1.0  0.86164  0.28440  0.61669  1.0000 0.2889955382
H   H5        1.0  0.04872  0.88244  0.57233  1.0000 0.125363133
H   H6        1.0  0.17410  0.85324  0.61713  1.0000 0.1212351164
H   H7        1.0  0.93036  0.55659  0.66697  1.0000 0.1375556803
H   H8        1.0  0.71560  0.57724  0.61669  1.0000 0.2889955382
H   H9        1.0  0.11756  0.16628  0.57233  1.0000 0.125363133
H   H10       1.0  0.14676  0.32086  0.61713  1.0000 0.1212351164
H   H11       1.0  0.44341  0.37377  0.66697  1.0000 0.1375556803
H   H12       1.0  0.42276  0.13836  0.61669  1.0000 0.2889955382
H   H13       1.0  0.83372  0.95128  0.92767  1.0000 0.125363133
H   H14       1.0  0.67914  0.82590  0.88287  1.0000 0.1212351164
H   H15       1.0  0.62623  0.06964  0.83303  1.0000 0.1375556803
H   H16       1.0  0.86164  0.28440  0.88331  1.0000 0.2889955382
H   H17       1.0  0.04872  0.88244  0.92767  1.0000 0.125363133
H   H18       1.0  0.17410  0.85324  0.88287  1.0000 0.1212351164
H   H19       1.0  0.93036  0.55659  0.83303  1.0000 0.1375556803
H   H20       1.0  0.71560  0.57724  0.88331  1.0000 0.2889955382
H   H21       1.0  0.11756  0.16628  0.92767  1.0000 0.125363133
H   H22       1.0  0.14676  0.32086  0.88287  1.0000 0.1212351164
H   H23       1.0  0.44341  0.37377  0.83303  1.0000 0.1375556803
H   H24       1.0  0.42276  0.13836  0.88331  1.0000 0.2889955382
H   H25       1.0  0.88244  0.04872  0.42767  1.0000 0.125363133
H   H26       1.0  0.85324  0.17410  0.38287  1.0000 0.1212351164
H   H27       1.0  0.55659  0.93036  0.33303  1.0000 0.1375556803
H   H28       1.0  0.57724  0.71560  0.38331  1.0000 0.2889955382
H   H29       1.0  0.16628  0.11756  0.42767  1.0000 0.125363133
H   H30       1.0  0.32086  0.14676  0.38287  1.0000 0.1212351164
H   H31       1.0  0.37377  0.44341  0.33303  1.0000 0.1375556803
H   H32       1.0  0.13836  0.42276  0.38331  1.0000 0.2889955382
H   H33       1.0  0.95128  0.83372  0.42767  1.0000 0.125363133
H   H34       1.0  0.82590  0.67914  0.38287  1.0000 0.1212351164
H   H35       1.0  0.06964  0.62623  0.33303  1.0000 0.1375556803
H   H36       1.0  0.28440  0.86164  0.38331  1.0000 0.2889955382
H   H37       1.0  0.88244  0.04872  0.07233  1.0000 0.125363133
H   H38       1.0  0.85324  0.17410  0.11713  1.0000 0.1212351164
H   H39       1.0  0.55659  0.93036  0.16697  1.0000 0.1375556803
H   H40       1.0  0.57724  0.71560  0.11669  1.0000 0.2889955382
H   H41       1.0  0.16628  0.11756  0.07233  1.0000 0.125363133
H   H42       1.0  0.32086  0.14676  0.11713  1.0000 0.1212351164
H   H43       1.0  0.37377  0.44341  0.16697  1.0000 0.1375556803
H   H44       1.0  0.13836  0.42276  0.11669  1.0000 0.2889955382
H   H45       1.0  0.95128  0.83372  0.07233  1.0000 0.125363133
H   H46       1.0  0.82590  0.67914  0.11713  1.0000 0.1212351164
H   H47       1.0  0.06964  0.62623  0.16697  1.0000 0.1375556803
H   H48       1.0  0.28440  0.86164  0.11669  1.0000 0.2889955382
C   C1        1.0  0.72450  0.28270  0.61840  1.0000 0.5538813687
C   C2        1.0  0.75460  0.12410  0.61780  1.0000 0.1736223614
C   C3        1.0  0.81650  0.08620  0.58870  1.0000 0.0638291404
C   C4        1.0  0.79030  0.97520  0.59040  1.0000 -0.1772306384
C   C5        1.0  0.70170  0.90250  0.61830  1.0000 -0.0746868932
C   C6        1.0  0.64250  0.93760  0.64870  1.0000 -0.0020191589
C   C7        1.0  0.66850  0.04690  0.64730  1.0000 -0.1704864883
C   C8        1.0  0.54930  0.85900  0.68190  1.0000 0.5905621266
C   C9        1.0  0.71730  0.44180  0.61840  1.0000 0.5538813687
C   C10       1.0  0.87590  0.63050  0.61780  1.0000 0.1736223614
C   C11       1.0  0.91380  0.73030  0.58870  1.0000 0.0638291404
C   C12       1.0  0.02480  0.81510  0.59040  1.0000 -0.1772306384
C   C13       1.0  0.09750  0.79920  0.61830  1.0000 -0.0746868932
C   C14       1.0  0.06240  0.70490  0.64870  1.0000 -0.0020191589
C   C15       1.0  0.95310  0.62160  0.64730  1.0000 -0.1704864883
C   C16       1.0  0.14100  0.69030  0.68190  1.0000 0.5905621266
C   C17       1.0  0.55820  0.27550  0.61840  1.0000 0.5538813687
C   C18       1.0  0.36950  0.24540  0.61780  1.0000 0.1736223614
C   C19       1.0  0.26970  0.18350  0.58870  1.0000 0.0638291404
C   C20       1.0  0.18490  0.20970  0.59040  1.0000 -0.1772306384
C   C21       1.0  0.20080  0.29830  0.61830  1.0000 -0.0746868932
C   C22       1.0  0.29510  0.35750  0.64870  1.0000 -0.0020191589
C   C23       1.0  0.37840  0.33150  0.64730  1.0000 -0.1704864883
C   C24       1.0  0.30970  0.45070  0.68190  1.0000 0.5905621266
C   C25       1.0  0.72450  0.28270  0.88160  1.0000 0.5538813687
C   C26       1.0  0.75460  0.12410  0.88220  1.0000 0.1736223614
C   C27       1.0  0.81650  0.08620  0.91130  1.0000 0.0638291404
C   C28       1.0  0.79030  0.97520  0.90960  1.0000 -0.1772306384
C   C29       1.0  0.70170  0.90250  0.88170  1.0000 -0.0746868932
C   C30       1.0  0.64250  0.93760  0.85130  1.0000 -0.0020191589
C   C31       1.0  0.66850  0.04690  0.85270  1.0000 -0.1704864883
C   C32       1.0  0.54930  0.85900  0.81810  1.0000 0.5905621266
C   C33       1.0  0.71730  0.44180  0.88160  1.0000 0.5538813687
C   C34       1.0  0.87590  0.63050  0.88220  1.0000 0.1736223614
C   C35       1.0  0.91380  0.73030  0.91130  1.0000 0.0638291404
C   C36       1.0  0.02480  0.81510  0.90960  1.0000 -0.1772306384
C   C37       1.0  0.09750  0.79920  0.88170  1.0000 -0.0746868932
C   C38       1.0  0.06240  0.70490  0.85130  1.0000 -0.0020191589
C   C39       1.0  0.95310  0.62160  0.85270  1.0000 -0.1704864883
C   C40       1.0  0.14100  0.69030  0.81810  1.0000 0.5905621266
C   C41       1.0  0.55820  0.27550  0.88160  1.0000 0.5538813687
C   C42       1.0  0.36950  0.24540  0.88220  1.0000 0.1736223614
C   C43       1.0  0.26970  0.18350  0.91130  1.0000 0.0638291404
C   C44       1.0  0.18490  0.20970  0.90960  1.0000 -0.1772306384
C   C45       1.0  0.20080  0.29830  0.88170  1.0000 -0.0746868932
C   C46       1.0  0.29510  0.35750  0.85130  1.0000 -0.0020191589
C   C47       1.0  0.37840  0.33150  0.85270  1.0000 -0.1704864883
C   C48       1.0  0.30970  0.45070  0.81810  1.0000 0.5905621266
C   C49       1.0  0.44180  0.71730  0.38160  1.0000 0.5538813687
C   C50       1.0  0.63050  0.87590  0.38220  1.0000 0.1736223614
C   C51       1.0  0.73030  0.91380  0.41130  1.0000 0.0638291404
C   C52       1.0  0.81510  0.02480  0.40960  1.0000 -0.1772306384
C   C53       1.0  0.79920  0.09750  0.38170  1.0000 -0.0746868932
C   C54       1.0  0.70490  0.06240  0.35130  1.0000 -0.0020191589
C   C55       1.0  0.62160  0.95310  0.35270  1.0000 -0.1704864883
C   C56       1.0  0.69030  0.14100  0.31810  1.0000 0.5905621266
C   C57       1.0  0.27550  0.55820  0.38160  1.0000 0.5538813687
C   C58       1.0  0.24540  0.36950  0.38220  1.0000 0.1736223614
C   C59       1.0  0.18350  0.26970  0.41130  1.0000 0.0638291404
C   C60       1.0  0.20970  0.18490  0.40960  1.0000 -0.1772306384
C   C61       1.0  0.29830  0.20080  0.38170  1.0000 -0.0746868932
C   C62       1.0  0.35750  0.29510  0.35130  1.0000 -0.0020191589
C   C63       1.0  0.33150  0.37840  0.35270  1.0000 -0.1704864883
C   C64       1.0  0.45070  0.30970  0.31810  1.0000 0.5905621266
C   C65       1.0  0.28270  0.72450  0.38160  1.0000 0.5538813687
C   C66       1.0  0.12410  0.75460  0.38220  1.0000 0.1736223614
C   C67       1.0  0.08620  0.81650  0.41130  1.0000 0.0638291404
C   C68       1.0  0.97520  0.79030  0.40960  1.0000 -0.1772306384
C   C69       1.0  0.90250  0.70170  0.38170  1.0000 -0.0746868932
C   C70       1.0  0.93760  0.64250  0.35130  1.0000 -0.0020191589
C   C71       1.0  0.04690  0.66850  0.35270  1.0000 -0.1704864883
C   C72       1.0  0.85900  0.54930  0.31810  1.0000 0.5905621266
C   C73       1.0  0.44180  0.71730  0.11840  1.0000 0.5538813687
C   C74       1.0  0.63050  0.87590  0.11780  1.0000 0.1736223614
C   C75       1.0  0.73030  0.91380  0.08870  1.0000 0.0638291404
C   C76       1.0  0.81510  0.02480  0.09040  1.0000 -0.1772306384
C   C77       1.0  0.79920  0.09750  0.11830  1.0000 -0.0746868932
C   C78       1.0  0.70490  0.06240  0.14870  1.0000 -0.0020191589
C   C79       1.0  0.62160  0.95310  0.14730  1.0000 -0.1704864883
C   C80       1.0  0.69030  0.14100  0.18190  1.0000 0.5905621266
C   C81       1.0  0.27550  0.55820  0.11840  1.0000 0.5538813687
C   C82       1.0  0.24540  0.36950  0.11780  1.0000 0.1736223614
C   C83       1.0  0.18350  0.26970  0.08870  1.0000 0.0638291404
C   C84       1.0  0.20970  0.18490  0.09040  1.0000 -0.1772306384
C   C85       1.0  0.29830  0.20080  0.11830  1.0000 -0.0746868932
C   C86       1.0  0.35750  0.29510  0.14870  1.0000 -0.0020191589
C   C87       1.0  0.33150  0.37840  0.14730  1.0000 -0.1704864883
C   C88       1.0  0.45070  0.30970  0.18190  1.0000 0.5905621266
C   C89       1.0  0.28270  0.72450  0.11840  1.0000 0.5538813687
C   C90       1.0  0.12410  0.75460  0.11780  1.0000 0.1736223614
C   C91       1.0  0.08620  0.81650  0.08870  1.0000 0.0638291404
C   C92       1.0  0.97520  0.79030  0.09040  1.0000 -0.1772306384
C   C93       1.0  0.90250  0.70170  0.11830  1.0000 -0.0746868932
C   C94       1.0  0.93760  0.64250  0.14870  1.0000 -0.0020191589
C   C95       1.0  0.04690  0.66850  0.14730  1.0000 -0.1704864883
C   C96       1.0  0.85900  0.54930  0.18190  1.0000 0.5905621266
N   N1        1.0  0.78970  0.23810  0.61750  1.0000 -0.3444830533
N   N2        1.0  0.61780  0.22020  0.61780  1.0000 -0.5034583294
N   N3        1.0  0.76190  0.55160  0.61750  1.0000 -0.3444830533
N   N4        1.0  0.77980  0.39760  0.61780  1.0000 -0.5034583294
N   N5        1.0  0.44840  0.21030  0.61750  1.0000 -0.3444830533
N   N6        1.0  0.60240  0.38220  0.61780  1.0000 -0.5034583294
N   N7        1.0  0.78970  0.23810  0.88250  1.0000 -0.3444830533
N   N8        1.0  0.61780  0.22020  0.88220  1.0000 -0.5034583294
N   N9        1.0  0.76190  0.55160  0.88250  1.0000 -0.3450743341
N   N10       1.0  0.77980  0.39760  0.88220  1.0000 -0.5034583294
N   N11       1.0  0.44840  0.21030  0.88250  1.0000 -0.3444830533
N   N12       1.0  0.60240  0.38220  0.88220  1.0000 -0.5034583294
N   N13       1.0  0.55160  0.76190  0.38250  1.0000 -0.3444830533
N   N14       1.0  0.39760  0.77980  0.38220  1.0000 -0.5034583294
N   N15       1.0  0.21030  0.44840  0.38250  1.0000 -0.3444830533
N   N16       1.0  0.38220  0.60240  0.38220  1.0000 -0.5034583294
N   N17       1.0  0.23810  0.78970  0.38250  1.0000 -0.3444830533
N   N18       1.0  0.22020  0.61780  0.38220  1.0000 -0.5034583294
N   N19       1.0  0.55160  0.76190  0.11750  1.0000 -0.3444830533
N   N20       1.0  0.39760  0.77980  0.11780  1.0000 -0.5034583294
N   N21       1.0  0.21030  0.44840  0.11750  1.0000 -0.3444830533
N   N22       1.0  0.38220  0.60240  0.11780  1.0000 -0.5034583294
N   N23       1.0  0.23810  0.78970  0.11750  1.0000 -0.3444830533
N   N24       1.0  0.22020  0.61780  0.11780  1.0000 -0.5034583294
Cl  Cl1       1.0  0.92280  0.17850  0.54976  1.0000 -0.092104331
Cl  Cl2       1.0  0.82150  0.74430  0.54976  1.0000 -0.092104331
Cl  Cl3       1.0  0.25570  0.07720  0.54976  1.0000 -0.092104331
Cl  Cl4       1.0  0.92280  0.17850  0.95024  1.0000 -0.092104331
Cl  Cl5       1.0  0.82150  0.74430  0.95024  1.0000 -0.092104331
Cl  Cl6       1.0  0.25570  0.07720  0.95024  1.0000 -0.092104331
Cl  Cl7       1.0  0.74430  0.82150  0.45024  1.0000 -0.092104331
Cl  Cl8       1.0  0.07720  0.25570  0.45024  1.0000 -0.092104331
Cl  Cl9       1.0  0.17850  0.92280  0.45024  1.0000 -0.092104331
Cl  Cl10      1.0  0.74430  0.82150  0.04976  1.0000 -0.092104331
Cl  Cl11      1.0  0.07720  0.25570  0.04976  1.0000 -0.092104331
Cl  Cl12      1.0  0.17850  0.92280  0.04976  1.0000 -0.092104331
O   O1        1.0  0.47740  0.88370  0.69430  1.0000 -0.554081796
O   O2        1.0  0.54740  0.76940  0.69290  1.0000 -0.5622140551
O   O3        1.0  0.11630  0.59370  0.69430  1.0000 -0.554081796
O   O4        1.0  0.23060  0.77800  0.69290  1.0000 -0.5622140551
O   O5        1.0  0.40630  0.52260  0.69430  1.0000 -0.554081796
O   O6        1.0  0.22200  0.45260  0.69290  1.0000 -0.5622140551
O   O7        1.0  0.47740  0.88370  0.80570  1.0000 -0.554081796
O   O8        1.0  0.54740  0.76940  0.80710  1.0000 -0.5622140551
O   O9        1.0  0.11630  0.59370  0.80570  1.0000 -0.554081796
O   O10       1.0  0.23060  0.77800  0.80710  1.0000 -0.5622140551
O   O11       1.0  0.40630  0.52260  0.80570  1.0000 -0.554081796
O   O12       1.0  0.22200  0.45260  0.80710  1.0000 -0.5622140551
O   O13       1.0  0.33333  0.66667  0.75000  1.0000 -0.9366991901
O   O14       1.0  0.59370  0.11630  0.30570  1.0000 -0.554081796
O   O15       1.0  0.77800  0.23060  0.30710  1.0000 -0.5622140551
O   O16       1.0  0.52260  0.40630  0.30570  1.0000 -0.554081796
O   O17       1.0  0.45260  0.22200  0.30710  1.0000 -0.5622140551
O   O18       1.0  0.88370  0.47740  0.30570  1.0000 -0.554081796
O   O19       1.0  0.76940  0.54740  0.30710  1.0000 -0.5622140551
O   O20       1.0  0.59370  0.11630  0.19430  1.0000 -0.554081796
O   O21       1.0  0.77800  0.23060  0.19290  1.0000 -0.5622140551
O   O22       1.0  0.52260  0.40630  0.19430  1.0000 -0.554081796
O   O23       1.0  0.45260  0.22200  0.19290  1.0000 -0.5622140551
O   O24       1.0  0.88370  0.47740  0.19430  1.0000 -0.554081796
O   O25       1.0  0.76940  0.54740  0.19290  1.0000 -0.5622140551
O   O26       1.0  0.66667  0.33333  0.25000  1.0000 -0.9366991901
