# DDEC6 charges by PACMAN v1.1 (https://github.com/mtap-research/PACMAN-charge/)
data_0000[Zn][nan]3[ASR]2
_chemical_formula_sum              "Zn8 H92 C152 N24 O24"
_cell_length_a       14.9953
_cell_length_b       17.5335
_cell_length_c       20.3606
_cell_angle_alpha    64.053
_cell_angle_beta     74.2131
_cell_angle_gamma    74.394

_symmetry_space_group_name_H-M    "P 1"
_symmetry_Int_Tables_number       1

loop_
  _symmetry_equiv_pos_as_xyz
  'x, y, z'

loop_
  _atom_site_type_symbol
  _atom_site_label
  _atom_site_symmetry_multiplicity
  _atom_site_fract_x
  _atom_site_fract_y
  _atom_site_fract_z
  _atom_site_occupancy
  _atom_site_charge
Zn  Zn1       1.0  0.26872  0.29259  0.34736  1.0000 0.7649849193
Zn  Zn2       1.0  0.20290  0.75927  0.94255  1.0000 0.7664326565
Zn  Zn3       1.0  0.14192  0.09963  0.67850  1.0000 0.6503253119
Zn  Zn4       1.0  0.31238  0.94958  0.60739  1.0000 0.7166082995
Zn  Zn5       1.0  0.73128  0.70741  0.65264  1.0000 0.7664326565
Zn  Zn6       1.0  0.79710  0.24073  0.05745  1.0000 0.7664326565
Zn  Zn7       1.0  0.85808  0.90037  0.32150  1.0000 0.6503253119
Zn  Zn8       1.0  0.68762  0.05042  0.39261  1.0000 0.7166082995
H   H1        1.0  0.32000  0.03350  0.17310  1.0000 0.1206071079
H   H2        1.0  0.39250  0.69830  0.99200  1.0000 0.1206071079
H   H3        1.0  0.47020  0.32440  0.28600  1.0000 0.1206071079
H   H4        1.0  0.57140  0.39600  0.29520  1.0000 0.1308938182
H   H5        1.0  0.65350  0.70300  0.41910  1.0000 0.1106370099
H   H6        1.0  0.39170  0.64980  0.47120  1.0000 0.1106370099
H   H7        1.0  0.44190  0.57940  0.40180  1.0000 0.1206071079
H   H8        1.0  0.59560  0.81290  0.46070  1.0000 0.1106370099
H   H9        1.0  0.36450  0.95780  0.10500  1.0000 0.1206071079
H   H10       1.0  0.22880  0.31250  0.74350  1.0000 0.1382724257
H   H11       1.0  0.30470  0.79620  0.77310  1.0000 0.1308938182
H   H12       1.0  0.66620  0.42350  0.34360  1.0000 0.1308938182
H   H13       1.0  0.13060  0.25180  0.71970  1.0000 0.1206071079
H   H14       1.0  0.28070  0.12010  0.24110  1.0000 0.1308938182
H   H15       1.0  0.53070  0.19290  0.72040  1.0000 0.1206071079
H   H16       1.0  0.19310  0.88960  0.00300  1.0000 0.1206071079
H   H17       1.0  0.31220  0.33180  0.80830  1.0000 0.1206071079
H   H18       1.0  0.11690  0.95670  0.84100  1.0000 0.1308938182
H   H19       1.0  0.36390  0.47920  0.42950  1.0000 0.1308938182
H   H20       1.0  0.33070  0.05840  0.71320  1.0000 0.1042477699
H   H21       1.0  0.43110  0.11200  0.74160  1.0000 0.1308938182
H   H22       1.0  0.35300  0.09890  0.44420  1.0000 0.1308938182
H   H23       1.0  0.15390  0.25070  0.51640  1.0000 0.1308938182
H   H24       1.0  0.58660  0.81090  0.03020  1.0000 0.1206071079
H   H25       1.0  0.59050  0.05360  0.13960  1.0000 0.1106370099
H   H26       1.0  0.27660  0.45420  0.81940  1.0000 0.1206071079
H   H27       1.0  0.48820  0.74250  0.03370  1.0000 0.1308938182
H   H28       1.0  0.53800  0.41510  0.85330  1.0000 0.1206071079
H   H29       1.0  0.89650  0.74180  0.99300  1.0000 0.1308938182
H   H30       1.0  0.33910  0.75260  0.52220  1.0000 0.1206071079
H   H31       1.0  0.54980  0.14120  0.20310  1.0000 0.1206071079
H   H32       1.0  0.75050  0.93250  0.10000  1.0000 0.1106370099
H   H33       1.0  0.26560  0.41160  0.41260  1.0000 0.1206071079
H   H34       1.0  0.23090  0.55730  0.86630  1.0000 0.1308938182
H   H35       1.0  0.49270  0.52930  0.89280  1.0000 0.1206071079
H   H36       1.0  0.73470  0.77230  0.01580  1.0000 0.1206071079
H   H37       1.0  0.28550  0.93930  0.04170  1.0000 0.1308938182
H   H38       1.0  0.90900  0.91560  0.06470  1.0000 0.1308938182
H   H39       1.0  0.83760  0.09760  0.71250  1.0000 0.1206071079
H   H40       1.0  0.67550  0.13220  0.74410  1.0000 0.1106370099
H   H41       1.0  0.70010  0.37280  0.70140  1.0000 0.1206071079
H   H42       1.0  0.86210  0.33830  0.66980  1.0000 0.1308938182
H   H43       1.0  0.97670  0.48590  0.42920  1.0000 0.1308938182
H   H44       1.0  0.81560  0.53210  0.43490  1.0000 0.1206071079
H   H45       1.0  0.81780  0.41580  0.30260  1.0000 0.1206071079
H   H46       1.0  0.97890  0.36950  0.29690  1.0000 0.1206071079
H   H47       1.0  0.68000  0.96650  0.82690  1.0000 0.1206071079
H   H48       1.0  0.60750  0.30170  0.00800  1.0000 0.1206071079
H   H49       1.0  0.52980  0.67560  0.71400  1.0000 0.1206071079
H   H50       1.0  0.42860  0.60400  0.70480  1.0000 0.1308938182
H   H51       1.0  0.34650  0.29700  0.58090  1.0000 0.1106370099
H   H52       1.0  0.60830  0.35020  0.52880  1.0000 0.1106370099
H   H53       1.0  0.55810  0.42060  0.59820  1.0000 0.1206071079
H   H54       1.0  0.40440  0.18710  0.53930  1.0000 0.1106370099
H   H55       1.0  0.63550  0.04220  0.89500  1.0000 0.1206071079
H   H56       1.0  0.77120  0.68750  0.25650  1.0000 0.1382724257
H   H57       1.0  0.69530  0.20380  0.22690  1.0000 0.1308938182
H   H58       1.0  0.33380  0.57650  0.65640  1.0000 0.1308938182
H   H59       1.0  0.86940  0.74820  0.28030  1.0000 0.1206071079
H   H60       1.0  0.71930  0.87990  0.75890  1.0000 0.1308938182
H   H61       1.0  0.46930  0.80710  0.27960  1.0000 0.1206071079
H   H62       1.0  0.80690  0.11040  0.99700  1.0000 0.1206071079
H   H63       1.0  0.68780  0.66820  0.19170  1.0000 0.1206071079
H   H64       1.0  0.88310  0.04330  0.15900  1.0000 0.1308938182
H   H65       1.0  0.63610  0.52080  0.57050  1.0000 0.1308938182
H   H66       1.0  0.66930  0.94160  0.28680  1.0000 0.1042477699
H   H67       1.0  0.56890  0.88800  0.25840  1.0000 0.1308938182
H   H68       1.0  0.64700  0.90110  0.55580  1.0000 0.1308938182
H   H69       1.0  0.84610  0.74930  0.48360  1.0000 0.1308938182
H   H70       1.0  0.41340  0.18910  0.96980  1.0000 0.1206071079
H   H71       1.0  0.40950  0.94640  0.86040  1.0000 0.1106370099
H   H72       1.0  0.72340  0.54580  0.18060  1.0000 0.1206071079
H   H73       1.0  0.51180  0.25750  0.96630  1.0000 0.1308938182
H   H74       1.0  0.46200  0.58490  0.14670  1.0000 0.1206071079
H   H75       1.0  0.10350  0.25820  0.00700  1.0000 0.1308938182
H   H76       1.0  0.66090  0.24740  0.47780  1.0000 0.1206071079
H   H77       1.0  0.45020  0.85880  0.79690  1.0000 0.1206071079
H   H78       1.0  0.24950  0.06750  0.90000  1.0000 0.1106370099
H   H79       1.0  0.73440  0.58840  0.58740  1.0000 0.1206071079
H   H80       1.0  0.76910  0.44270  0.13370  1.0000 0.1308938182
H   H81       1.0  0.50730  0.47070  0.10720  1.0000 0.1206071079
H   H82       1.0  0.26530  0.22770  0.98420  1.0000 0.1206071079
H   H83       1.0  0.71450  0.06070  0.95830  1.0000 0.1308938182
H   H84       1.0  0.09100  0.08440  0.93530  1.0000 0.1308938182
H   H85       1.0  0.16240  0.90240  0.28750  1.0000 0.1206071079
H   H86       1.0  0.32450  0.86780  0.25590  1.0000 0.1106370099
H   H87       1.0  0.29990  0.62720  0.29860  1.0000 0.1206071079
H   H88       1.0  0.13790  0.66170  0.33020  1.0000 0.1308938182
H   H89       1.0  0.02330  0.51410  0.57080  1.0000 0.1308938182
H   H90       1.0  0.18440  0.46790  0.56510  1.0000 0.1206071079
H   H91       1.0  0.18220  0.58420  0.69740  1.0000 0.1206071079
H   H92       1.0  0.02110  0.63050  0.70310  1.0000 0.1206071079
C   C1        1.0  0.47950  0.44780  0.36220  1.0000 0.1106370099
C   C2        1.0  0.36670  0.05320  0.18050  1.0000 -0.1594341
C   C3        1.0  0.37030  0.74770  0.00200  1.0000 0.068960222
C   C4        1.0  0.44710  0.35810  0.31380  1.0000 0.1042477699
C   C5        1.0  0.46050  0.79730  0.49340  1.0000 -0.010040768
C   C6        1.0  0.52840  0.66480  0.44050  1.0000 0.0302050725
C   C7        1.0  0.50940  0.40040  0.32000  1.0000 -0.1818297221
C   C8        1.0  0.38700  0.18670  0.27880  1.0000 0.5562746958
C   C9        1.0  0.58970  0.71410  0.43790  1.0000 -0.1401554446
C   C10       1.0  0.43340  0.68110  0.47030  1.0000 -0.1532376273
C   C11       1.0  0.50630  0.55860  0.39680  1.0000 -0.2309314473
C   C12       1.0  0.40900  0.25740  0.75990  1.0000 0.1106370099
C   C13       1.0  0.55460  0.77960  0.46360  1.0000 -0.1092695234
C   C14       1.0  0.42900  0.93870  0.09550  1.0000 -0.2507234527
C   C15       1.0  0.25100  0.26020  0.73820  1.0000 -0.1818297221
C   C16       1.0  0.46450  0.87890  0.06320  1.0000 0.1206071079
C   C17       1.0  0.56520  0.59510  0.41290  1.0000 0.2112082826
C   C18       1.0  0.26280  0.84570  0.77450  1.0000 0.1620031582
C   C19       1.0  0.63890  0.46620  0.36190  1.0000 -0.2389246164
C   C20       1.0  0.19240  0.22380  0.72300  1.0000 0.0854508975
C   C21       1.0  0.34330  0.10590  0.22090  1.0000 -0.1092695234
C   C22       1.0  0.44220  0.35380  0.80240  1.0000 0.2112082826
C   C23       1.0  0.72450  0.86230  0.05590  1.0000 0.0302050725
C   C24       1.0  0.54330  0.49100  0.37340  1.0000 0.1106370099
C   C25       1.0  0.41090  0.42090  0.83380  1.0000 0.0302050725
C   C26       1.0  0.41090  0.13620  0.23080  1.0000 -0.0008629825
C   C27       1.0  0.49280  0.97010  0.11390  1.0000 0.2112082826
C   C28       1.0  0.50650  0.23370  0.74120  1.0000 -0.2389246164
C   C29       1.0  0.42250  0.86750  0.52170  1.0000 0.5491560323
C   C30       1.0  0.46080  0.03120  0.15170  1.0000 0.0302050725
C   C31       1.0  0.25400  0.85970  0.00800  1.0000 0.0805453943
C   C32       1.0  0.37640  0.31670  0.79280  1.0000 -0.2507234527
C   C33       1.0  0.16200  0.93260  0.81070  1.0000 0.1620031582
C   C34       1.0  0.38700  0.44970  0.39820  1.0000 -0.1818297221
C   C35       1.0  0.30940  0.11000  0.71980  1.0000 0.068960222
C   C36       1.0  0.37050  0.14260  0.73640  1.0000 -0.1702377288
C   C37       1.0  0.30510  0.12040  0.47490  1.0000 0.1854898172
C   C38       1.0  0.19730  0.20230  0.51430  1.0000 0.1721258001
C   C39       1.0  0.56100  0.85200  0.05060  1.0000 -0.2389246164
C   C40       1.0  0.52780  0.06610  0.16040  1.0000 -0.1401554446
C   C41       1.0  0.34380  0.21910  0.74550  1.0000 0.1106370099
C   C42       1.0  0.32030  0.46680  0.83630  1.0000 -0.1594341
C   C43       1.0  0.61960  0.88720  0.06900  1.0000 0.2192692594
C   C44       1.0  0.56670  0.27160  0.75410  1.0000 0.2112082826
C   C45       1.0  0.92030  0.83080  0.02220  1.0000 -0.010040768
C   C46       1.0  0.69610  0.50600  0.37800  1.0000 0.2192692594
C   C47       1.0  0.42840  0.77440  0.02690  1.0000 -0.1818297221
C   C48       1.0  0.47620  0.44430  0.85510  1.0000 -0.1401554446
C   C49       1.0  0.86620  0.78440  0.01090  1.0000 -0.1092695234
C   C50       1.0  0.40150  0.74490  0.49890  1.0000 -0.1200478686
C   C51       1.0  0.50380  0.11800  0.19860  1.0000 -0.0983356418
C   C52       1.0  0.77960  0.89780  0.07360  1.0000 -0.1401554446
C   C53       1.0  0.32790  0.40830  0.38840  1.0000 0.0610204102
C   C54       1.0  0.29340  0.53000  0.86280  1.0000 -0.0983356418
C   C55       1.0  0.44840  0.51260  0.87980  1.0000 -0.0930472365
C   C56       1.0  0.76960  0.80130  0.02570  1.0000 -0.1702377288
C   C57       1.0  0.30900  0.88970  0.03200  1.0000 -0.1930919054
C   C58       1.0  0.09670  0.38850  0.36310  1.0000 0.5562746958
C   C59       1.0  0.39950  0.84680  0.04170  1.0000 0.1106370099
C   C60       1.0  0.35670  0.55440  0.88470  1.0000 -0.0468527632
C   C61       1.0  0.87510  0.88570  0.05480  1.0000 -0.0930472365
C   C62       1.0  0.33000  0.63000  0.90350  1.0000 0.5491560323
C   C63       1.0  0.02640  0.82130  0.99340  1.0000 0.5491560323
C   C64       1.0  0.86590  0.21450  0.68800  1.0000 -0.0211412398
C   C65       1.0  0.81000  0.15270  0.71030  1.0000 -0.1092695234
C   C66       1.0  0.71290  0.17350  0.72920  1.0000 -0.1594341
C   C67       1.0  0.67180  0.25590  0.72590  1.0000 0.0414705785
C   C68       1.0  0.72770  0.31770  0.70360  1.0000 -0.1401554446
C   C69       1.0  0.82470  0.29690  0.68470  1.0000 -0.0983356418
C   C70       1.0  0.97040  0.18780  0.67670  1.0000 0.5491560323
C   C71       1.0  0.94480  0.47190  0.40380  1.0000 -0.0844485698
C   C72       1.0  0.84830  0.49960  0.40720  1.0000 -0.1401554446
C   C73       1.0  0.80070  0.47850  0.36930  1.0000 0.0302050725
C   C74       1.0  0.84960  0.42980  0.32800  1.0000 -0.1594341
C   C75       1.0  0.94610  0.40220  0.32450  1.0000 -0.0983356418
C   C76       1.0  0.99370  0.42310  0.36250  1.0000 -0.010040768
C   C77       1.0  0.52050  0.55220  0.63780  1.0000 0.1106370099
C   C78       1.0  0.63330  0.94680  0.81950  1.0000 -0.1594341
C   C79       1.0  0.62970  0.25230  0.99800  1.0000 0.068960222
C   C80       1.0  0.55290  0.64190  0.68620  1.0000 0.1042477699
C   C81       1.0  0.53950  0.20270  0.50660  1.0000 -0.010040768
C   C82       1.0  0.47160  0.33520  0.55950  1.0000 0.0302050725
C   C83       1.0  0.49060  0.59960  0.68000  1.0000 -0.1818297221
C   C84       1.0  0.61300  0.81330  0.72120  1.0000 0.5562746958
C   C85       1.0  0.41030  0.28590  0.56210  1.0000 -0.1401554446
C   C86       1.0  0.56660  0.31890  0.52970  1.0000 -0.1532376273
C   C87       1.0  0.49370  0.44140  0.60320  1.0000 -0.2309314473
C   C88       1.0  0.59100  0.74260  0.24010  1.0000 0.1106370099
C   C89       1.0  0.44540  0.22040  0.53640  1.0000 -0.1092695234
C   C90       1.0  0.57100  0.06130  0.90450  1.0000 -0.2507234527
C   C91       1.0  0.74900  0.73980  0.26180  1.0000 -0.1818297221
C   C92       1.0  0.53550  0.12110  0.93680  1.0000 0.1206071079
C   C93       1.0  0.43480  0.40490  0.58710  1.0000 0.2112082826
C   C94       1.0  0.73720  0.15430  0.22550  1.0000 0.1620031582
C   C95       1.0  0.36110  0.53380  0.63810  1.0000 -0.2389246164
C   C96       1.0  0.80760  0.77620  0.27700  1.0000 0.0854508975
C   C97       1.0  0.65670  0.89410  0.77910  1.0000 -0.1092695234
C   C98       1.0  0.55780  0.64620  0.19760  1.0000 0.2112082826
C   C99       1.0  0.27550  0.13770  0.94410  1.0000 0.0302050725
C   C100      1.0  0.45670  0.50900  0.62660  1.0000 0.1106370099
C   C101      1.0  0.58910  0.57910  0.16620  1.0000 0.0302050725
C   C102      1.0  0.58910  0.86380  0.76920  1.0000 -0.0008629825
C   C103      1.0  0.50720  0.02990  0.88610  1.0000 0.2112082826
C   C104      1.0  0.49350  0.76630  0.25880  1.0000 -0.2389246164
C   C105      1.0  0.57750  0.13250  0.47830  1.0000 0.5491560323
C   C106      1.0  0.53920  0.96880  0.84830  1.0000 0.0302050725
C   C107      1.0  0.74600  0.14030  0.99200  1.0000 0.0805453943
C   C108      1.0  0.62360  0.68330  0.20720  1.0000 -0.2507234527
C   C109      1.0  0.83800  0.06740  0.18930  1.0000 0.1620031582
C   C110      1.0  0.61300  0.55030  0.60180  1.0000 -0.1818297221
C   C111      1.0  0.69060  0.89000  0.28020  1.0000 0.068960222
C   C112      1.0  0.62950  0.85740  0.26360  1.0000 -0.1702377288
C   C113      1.0  0.69490  0.87960  0.52510  1.0000 0.1854898172
C   C114      1.0  0.80270  0.79770  0.48570  1.0000 0.1721258001
C   C115      1.0  0.43900  0.14800  0.94940  1.0000 -0.2389246164
C   C116      1.0  0.47220  0.93390  0.83960  1.0000 -0.1401554446
C   C117      1.0  0.65620  0.78090  0.25450  1.0000 0.1106370099
C   C118      1.0  0.67970  0.53320  0.16370  1.0000 -0.1594341
C   C119      1.0  0.38040  0.11280  0.93100  1.0000 0.2192692594
C   C120      1.0  0.43330  0.72840  0.24590  1.0000 0.2112082826
C   C121      1.0  0.07970  0.16920  0.97780  1.0000 -0.010040768
C   C122      1.0  0.30390  0.49400  0.62200  1.0000 0.2192692594
C   C123      1.0  0.57160  0.22560  0.97310  1.0000 -0.1818297221
C   C124      1.0  0.52380  0.55570  0.14490  1.0000 -0.1401554446
C   C125      1.0  0.13380  0.21560  0.98910  1.0000 -0.1092695234
C   C126      1.0  0.59850  0.25510  0.50110  1.0000 -0.1200478686
C   C127      1.0  0.49620  0.88200  0.80140  1.0000 -0.0983356418
C   C128      1.0  0.22040  0.10220  0.92640  1.0000 -0.1401554446
C   C129      1.0  0.67210  0.59170  0.61160  1.0000 0.0610204102
C   C130      1.0  0.70660  0.47000  0.13720  1.0000 -0.0983356418
C   C131      1.0  0.55160  0.48740  0.12020  1.0000 -0.0930472365
C   C132      1.0  0.23040  0.19870  0.97430  1.0000 -0.1702377288
C   C133      1.0  0.69100  0.11030  0.96800  1.0000 -0.1930919054
C   C134      1.0  0.90330  0.61150  0.63690  1.0000 0.5562746958
C   C135      1.0  0.60050  0.15320  0.95830  1.0000 0.1106370099
C   C136      1.0  0.64330  0.44560  0.11530  1.0000 -0.0468527632
C   C137      1.0  0.12490  0.11430  0.94520  1.0000 -0.0930472365
C   C138      1.0  0.67000  0.37000  0.09650  1.0000 0.5491560323
C   C139      1.0  0.97360  0.17870  0.00660  1.0000 0.5448824303
C   C140      1.0  0.13410  0.78550  0.31200  1.0000 -0.0211412398
C   C141      1.0  0.19000  0.84730  0.28970  1.0000 -0.1092695234
C   C142      1.0  0.28710  0.82650  0.27080  1.0000 -0.1594341
C   C143      1.0  0.32820  0.74410  0.27410  1.0000 0.0414705785
C   C144      1.0  0.27230  0.68230  0.29640  1.0000 -0.1401554446
C   C145      1.0  0.17530  0.70310  0.31530  1.0000 -0.0983356418
C   C146      1.0  0.02960  0.81220  0.32330  1.0000 0.5491560323
C   C147      1.0  0.05520  0.52810  0.59620  1.0000 -0.0844485698
C   C148      1.0  0.15170  0.50040  0.59280  1.0000 -0.1401554446
C   C149      1.0  0.19930  0.52150  0.63070  1.0000 0.0302050725
C   C150      1.0  0.15040  0.57020  0.67200  1.0000 -0.1594341
C   C151      1.0  0.05390  0.59780  0.67550  1.0000 -0.0983356418
C   C152      1.0  0.00630  0.57690  0.63750  1.0000 -0.010040768
N   N1        1.0  0.35810  0.36340  0.34480  1.0000 -0.2201399518
N   N2        1.0  0.27820  0.07590  0.54530  1.0000 -0.207778619
N   N3        1.0  0.53600  0.33120  0.78350  1.0000 -0.3298362258
N   N4        1.0  0.22010  0.14970  0.71300  1.0000 -0.2389246164
N   N5        1.0  0.18410  0.97410  0.73990  1.0000 -0.207778619
N   N6        1.0  0.65880  0.56780  0.40430  1.0000 -0.3298362258
N   N7        1.0  0.58600  0.94430  0.10010  1.0000 -0.3298362258
N   N8        1.0  0.24950  0.91700  0.71530  1.0000 -0.1930919054
N   N9        1.0  0.20780  0.12940  0.57150  1.0000 -0.207778619
N   N10       1.0  0.28180  0.79060  0.99160  1.0000 -0.2309314473
N   N11       1.0  0.25640  0.19970  0.45210  1.0000 -0.3207052438
N   N12       1.0  0.20910  0.85200  0.83720  1.0000 -0.3207052438
N   N13       1.0  0.64190  0.63660  0.65520  1.0000 -0.2201399518
N   N14       1.0  0.72180  0.92410  0.45470  1.0000 -0.207778619
N   N15       1.0  0.46400  0.66880  0.21650  1.0000 -0.3298362258
N   N16       1.0  0.77990  0.85030  0.28700  1.0000 -0.2389246164
N   N17       1.0  0.81590  0.02590  0.26010  1.0000 -0.207778619
N   N18       1.0  0.34120  0.43220  0.59570  1.0000 -0.3298362258
N   N19       1.0  0.41400  0.05570  0.89990  1.0000 -0.3298362258
N   N20       1.0  0.75050  0.08300  0.28470  1.0000 -0.1950194849
N   N21       1.0  0.79220  0.87060  0.42850  1.0000 -0.207778619
N   N22       1.0  0.71820  0.20940  0.00840  1.0000 -0.2309314473
N   N23       1.0  0.74360  0.80030  0.54790  1.0000 -0.3207052438
N   N24       1.0  0.79090  0.14800  0.16280  1.0000 -0.3207052438
O   O1        1.0  0.35990  0.85140  0.58020  1.0000 -0.5330760641
O   O2        1.0  0.30480  0.23420  0.27890  1.0000 -0.5330760641
O   O3        1.0  0.44290  0.17990  0.31590  1.0000 -0.5409604622
O   O4        1.0  0.24730  0.65190  0.92910  1.0000 -0.5057350261
O   O5        1.0  0.07080  0.75470  0.98630  1.0000 -0.49772294
O   O6        1.0  0.45130  0.93620  0.48800  1.0000 -0.5179191692
O   O7        1.0  0.14150  0.34700  0.32690  1.0000 -0.468847671
O   O8        1.0  0.06210  0.88360  0.97660  1.0000 -0.5409604622
O   O9        1.0  0.39070  0.67840  0.88500  1.0000 -0.5781254632
O   O10       1.0  0.12760  0.39050  0.41600  1.0000 -0.6109845502
O   O11       1.0  0.00730  0.11400  0.69240  1.0000 -0.468847671
O   O12       1.0  0.02490  0.24550  0.64120  1.0000 -0.5640798075
O   O13       1.0  0.64010  0.14860  0.41980  1.0000 -0.5330760641
O   O14       1.0  0.69520  0.76580  0.72110  1.0000 -0.5330760641
O   O15       1.0  0.55710  0.82010  0.68410  1.0000 -0.5409604622
O   O16       1.0  0.75270  0.34810  0.07090  1.0000 -0.5057350261
O   O17       1.0  0.92920  0.24530  0.01370  1.0000 -0.49772294
O   O18       1.0  0.54870  0.06380  0.51200  1.0000 -0.5179191692
O   O19       1.0  0.85850  0.65300  0.67310  1.0000 -0.468847671
O   O20       1.0  0.93790  0.11640  0.02340  1.0000 -0.5409604622
O   O21       1.0  0.60930  0.32160  0.11500  1.0000 -0.5781254632
O   O22       1.0  0.87240  0.60950  0.58400  1.0000 -0.6109845502
O   O23       1.0  0.99270  0.88600  0.30760  1.0000 -0.468847671
O   O24       1.0  0.97510  0.75450  0.35880  1.0000 -0.5640798075
