# DDEC6 charges by PACMAN v1.1 (https://github.com/mtap-research/PACMAN-charge/)
data_0000[Cd][dia]3[ASR]1
_chemical_formula_sum              "Cd4 H68 C68 N20 O16"
_cell_length_a       12.1085
_cell_length_b       12.1085
_cell_length_c       16.662
_cell_angle_alpha    66.6359
_cell_angle_beta     113.364
_cell_angle_gamma    104.291

_symmetry_space_group_name_H-M    "P 1"
_symmetry_Int_Tables_number       1

loop_
  _symmetry_equiv_pos_as_xyz
  'x, y, z'

loop_
  _atom_site_type_symbol
  _atom_site_label
  _atom_site_symmetry_multiplicity
  _atom_site_fract_x
  _atom_site_fract_y
  _atom_site_fract_z
  _atom_site_occupancy
  _atom_site_charge
Cd  Cd1       1.0  0.82635  0.32535  0.36855  1.0000 0.7785624428
Cd  Cd2       1.0  0.32535  0.82635  0.13145  1.0000 0.7785624428
Cd  Cd3       1.0  0.17365  0.67465  0.63145  1.0000 0.7785624428
Cd  Cd4       1.0  0.67465  0.17365  0.86855  1.0000 0.7785624428
H   H1        1.0  0.57110  0.37330  0.37140  1.0000 0.1186085446
H   H2        1.0  0.37330  0.57110  0.12860  1.0000 0.1186085446
H   H3        1.0  0.42890  0.62670  0.62860  1.0000 0.1186085446
H   H4        1.0  0.62670  0.42890  0.87140  1.0000 0.1186085446
H   H5        1.0  0.85710  0.60950  0.37900  1.0000 0.1186085446
H   H6        1.0  0.60950  0.85710  0.12100  1.0000 0.1186085446
H   H7        1.0  0.14290  0.39050  0.62100  1.0000 0.1186085446
H   H8        1.0  0.39050  0.14290  0.87900  1.0000 0.1186085446
H   H9        1.0  0.69860  0.70560  0.37290  1.0000 0.1294200881
H   H10       1.0  0.70560  0.69860  0.12710  1.0000 0.1294200881
H   H11       1.0  0.30140  0.29440  0.62710  1.0000 0.1294200881
H   H12       1.0  0.29440  0.30140  0.87290  1.0000 0.1294200881
H   H13       1.0  0.45190  0.63950  0.32080  1.0000 0.1110848649
H   H14       1.0  0.63950  0.45190  0.17920  1.0000 0.1110848649
H   H15       1.0  0.54810  0.36050  0.67920  1.0000 0.1110848649
H   H16       1.0  0.36050  0.54810  0.82080  1.0000 0.1110848649
H   H17       1.0  0.41520  0.49940  0.34710  1.0000 0.1186085446
H   H18       1.0  0.49940  0.41520  0.15290  1.0000 0.1186085446
H   H19       1.0  0.58480  0.50060  0.65290  1.0000 0.1186085446
H   H20       1.0  0.50060  0.58480  0.84710  1.0000 0.1186085446
H   H21       1.0  0.39730  0.56270  0.45440  1.0000 0.0989146246
H   H22       1.0  0.56270  0.39730  0.04560  1.0000 0.0989146246
H   H23       1.0  0.60270  0.43730  0.54560  1.0000 0.0989146246
H   H24       1.0  0.43730  0.60270  0.95440  1.0000 0.0989146246
H   H25       1.0  0.52990  0.62550  0.47420  1.0000 0.1110848649
H   H26       1.0  0.62550  0.52990  0.02580  1.0000 0.1110848649
H   H27       1.0  0.47010  0.37450  0.52580  1.0000 0.1110848649
H   H28       1.0  0.37450  0.47010  0.97420  1.0000 0.1110848649
H   H29       1.0  0.79420  0.04120  0.50770  1.0000 0.1186085446
H   H30       1.0  0.04120  0.79420  0.99230  1.0000 0.1186085446
H   H31       1.0  0.20580  0.95880  0.49230  1.0000 0.1186085446
H   H32       1.0  0.95880  0.20580  0.00770  1.0000 0.1186085446
H   H33       1.0  0.10460  0.24140  0.52690  1.0000 0.1186085446
H   H34       1.0  0.24140  0.10460  0.97310  1.0000 0.1186085446
H   H35       1.0  0.89540  0.75860  0.47310  1.0000 0.1186085446
H   H36       1.0  0.75860  0.89540  0.02690  1.0000 0.1186085446
H   H37       1.0  0.14360  0.04340  0.64720  1.0000 0.1294200881
H   H38       1.0  0.04340  0.14360  0.85280  1.0000 0.1294200881
H   H39       1.0  0.85640  0.95660  0.35280  1.0000 0.1294200881
H   H40       1.0  0.95660  0.85640  0.14720  1.0000 0.1294200881
H   H41       1.0  0.85260  0.84220  0.62700  1.0000 0.1186085446
H   H42       1.0  0.84220  0.85260  0.87300  1.0000 0.1186085446
H   H43       1.0  0.14740  0.15780  0.37300  1.0000 0.1186085446
H   H44       1.0  0.15780  0.14740  0.12700  1.0000 0.1186085446
H   H45       1.0  0.98900  0.82100  0.66190  1.0000 0.1186085446
H   H46       1.0  0.82100  0.98900  0.83810  1.0000 0.1186085446
H   H47       1.0  0.01100  0.17900  0.33810  1.0000 0.1186085446
H   H48       1.0  0.17900  0.01100  0.16190  1.0000 0.1186085446
H   H49       1.0  0.92970  0.78510  0.78680  1.0000 0.1186085446
H   H50       1.0  0.78510  0.92970  0.71320  1.0000 0.1186085446
H   H51       1.0  0.07030  0.21490  0.21320  1.0000 0.1186085446
H   H52       1.0  0.21490  0.07030  0.28680  1.0000 0.1186085446
H   H53       1.0  0.03250  0.89270  0.78130  1.0000 0.0989146246
H   H54       1.0  0.89270  0.03250  0.71870  1.0000 0.0989146246
H   H55       1.0  0.96750  0.10730  0.21870  1.0000 0.0989146246
H   H56       1.0  0.10730  0.96750  0.28130  1.0000 0.0989146246
H   H57       1.0  0.86480  0.34960  0.17880  1.0000 0.1186085446
H   H58       1.0  0.34960  0.86480  0.32120  1.0000 0.1186085446
H   H59       1.0  0.13520  0.65040  0.82120  1.0000 0.1186085446
H   H60       1.0  0.65040  0.13520  0.67880  1.0000 0.1186085446
H   H61       1.0  0.79580  0.25800  0.06750  1.0000 0.1294200881
H   H62       1.0  0.25800  0.79580  0.43250  1.0000 0.1294200881
H   H63       1.0  0.20420  0.74200  0.93250  1.0000 0.1294200881
H   H64       1.0  0.74200  0.20420  0.56750  1.0000 0.1294200881
H   H65       1.0  0.63780  0.10400  0.07170  1.0000 0.1186085446
H   H66       1.0  0.10400  0.63780  0.42830  1.0000 0.1186085446
H   H67       1.0  0.36220  0.89600  0.92830  1.0000 0.1186085446
H   H68       1.0  0.89600  0.36220  0.57170  1.0000 0.1186085446
C   C1        1.0  0.62299  0.44421  0.37189  1.0000 0.0750740333
C   C2        1.0  0.44421  0.62299  0.12811  1.0000 0.0750740333
C   C3        1.0  0.37701  0.55579  0.62811  1.0000 0.0750740333
C   C4        1.0  0.55579  0.37701  0.87189  1.0000 0.0750740333
C   C5        1.0  0.77899  0.57361  0.37629  1.0000 -0.0393874967
C   C6        1.0  0.57361  0.77899  0.12371  1.0000 -0.0393874967
C   C7        1.0  0.22101  0.42639  0.62371  1.0000 -0.0393874967
C   C8        1.0  0.42639  0.22101  0.87629  1.0000 -0.0393874967
C   C9        1.0  0.69228  0.62752  0.37288  1.0000 -0.101936704
C   C10       1.0  0.62752  0.69228  0.12712  1.0000 -0.101936704
C   C11       1.0  0.30772  0.37248  0.62712  1.0000 -0.101936704
C   C12       1.0  0.37248  0.30772  0.87288  1.0000 -0.101936704
C   C13       1.0  0.47556  0.56164  0.36646  1.0000 -0.1200422892
C   C14       1.0  0.56164  0.47556  0.13354  1.0000 -0.1200422892
C   C15       1.0  0.52444  0.43836  0.63354  1.0000 -0.1200422892
C   C16       1.0  0.43836  0.52444  0.86646  1.0000 -0.1200422892
C   C17       1.0  0.47834  0.55586  0.45994  1.0000 -0.1920810999
C   C18       1.0  0.55586  0.47834  0.04006  1.0000 -0.1920810999
C   C19       1.0  0.52166  0.44414  0.54006  1.0000 -0.1920810999
C   C20       1.0  0.44414  0.52166  0.95994  1.0000 -0.1920810999
C   C21       1.0  0.87638  0.06702  0.52708  1.0000 0.069678144
C   C22       1.0  0.06702  0.87638  0.97292  1.0000 0.069678144
C   C23       1.0  0.12362  0.93298  0.47292  1.0000 0.069678144
C   C24       1.0  0.93298  0.12362  0.02708  1.0000 0.069678144
C   C25       1.0  0.04660  0.17620  0.53820  1.0000 -0.0525072753
C   C26       1.0  0.17620  0.04660  0.96180  1.0000 -0.0525072753
C   C27       1.0  0.95340  0.82380  0.46180  1.0000 -0.0525072753
C   C28       1.0  0.82380  0.95340  0.03820  1.0000 -0.0525072753
C   C29       1.0  0.06860  0.06660  0.60440  1.0000 -0.1054787995
C   C30       1.0  0.06660  0.06860  0.89560  1.0000 -0.1054787995
C   C31       1.0  0.93140  0.93340  0.39560  1.0000 -0.1054787995
C   C32       1.0  0.93340  0.93140  0.10440  1.0000 -0.1054787995
C   C33       1.0  0.93480  0.87280  0.65620  1.0000 -0.1200422892
C   C34       1.0  0.87280  0.93480  0.84380  1.0000 -0.1200422892
C   C35       1.0  0.06520  0.12720  0.34380  1.0000 -0.1200422892
C   C36       1.0  0.12720  0.06520  0.15620  1.0000 -0.1200422892
C   C37       1.0  0.94880  0.86800  0.75070  1.0000 -0.1920810999
C   C38       1.0  0.86800  0.94880  0.74930  1.0000 -0.1920810999
C   C39       1.0  0.05120  0.13200  0.24930  1.0000 -0.1920810999
C   C40       1.0  0.13200  0.05120  0.25070  1.0000 -0.1920810999
C   C41       1.0  0.80044  0.28896  0.17934  1.0000 0.069678144
C   C42       1.0  0.28896  0.80044  0.32066  1.0000 0.069678144
C   C43       1.0  0.19956  0.71104  0.82066  1.0000 0.069678144
C   C44       1.0  0.71104  0.19956  0.67934  1.0000 0.069678144
C   C45       1.0  0.76037  0.23403  0.11307  1.0000 -0.1517412947
C   C46       1.0  0.23403  0.76037  0.38693  1.0000 -0.1517412947
C   C47       1.0  0.23963  0.76597  0.88693  1.0000 -0.1517412947
C   C48       1.0  0.76597  0.23963  0.61307  1.0000 -0.1517412947
C   C49       1.0  0.66630  0.14250  0.11580  1.0000 -0.0873277081
C   C50       1.0  0.14250  0.66630  0.38420  1.0000 -0.0873277081
C   C51       1.0  0.33370  0.85750  0.88420  1.0000 -0.0873277081
C   C52       1.0  0.85750  0.33370  0.61580  1.0000 -0.0873277081
C   C53       1.0  0.61409  0.10751  0.18379  1.0000 -0.0393874967
C   C54       1.0  0.10751  0.61409  0.31621  1.0000 -0.0393874967
C   C55       1.0  0.38591  0.89249  0.81621  1.0000 -0.0393874967
C   C56       1.0  0.89249  0.38591  0.68379  1.0000 -0.0393874967
C   C57       1.0  0.65420  0.17000  0.24680  1.0000 0.069678144
C   C58       1.0  0.17000  0.65420  0.25320  1.0000 0.069678144
C   C59       1.0  0.34580  0.83000  0.75320  1.0000 0.069678144
C   C60       1.0  0.83000  0.34580  0.74680  1.0000 0.069678144
C   C61       1.0  0.59370  0.15330  0.31530  1.0000 0.5177469417
C   C62       1.0  0.15330  0.59370  0.18470  1.0000 0.5177469417
C   C63       1.0  0.40630  0.84670  0.68470  1.0000 0.5177469417
C   C64       1.0  0.84670  0.40630  0.81530  1.0000 0.5177469417
C   C65       1.0  0.51626  0.00194  0.18776  1.0000 0.5462511941
C   C66       1.0  0.00194  0.51626  0.31224  1.0000 0.5462511941
C   C67       1.0  0.48374  0.99806  0.81224  1.0000 0.5462511941
C   C68       1.0  0.99806  0.48374  0.68776  1.0000 0.5462511941
N   N1        1.0  0.92483  0.17573  0.49019  1.0000 -0.2907139943
N   N2        1.0  0.17573  0.92483  0.00981  1.0000 -0.2907139943
N   N3        1.0  0.07517  0.82427  0.50981  1.0000 -0.2907139943
N   N4        1.0  0.82427  0.07517  0.99019  1.0000 -0.2907139943
N   N5        1.0  0.73715  0.45953  0.37512  1.0000 -0.2960644202
N   N6        1.0  0.45953  0.73715  0.12488  1.0000 -0.2960644202
N   N7        1.0  0.26285  0.54047  0.62488  1.0000 -0.2960644202
N   N8        1.0  0.54047  0.26285  0.87512  1.0000 -0.2960644202
N   N9        1.0  0.74938  0.25758  0.24476  1.0000 -0.2907139943
N   N10       1.0  0.25758  0.74938  0.25524  1.0000 -0.2907139943
N   N11       1.0  0.25062  0.74242  0.75524  1.0000 -0.2907139943
N   N12       1.0  0.74242  0.25062  0.74476  1.0000 -0.2907139943
N   N13       1.0  0.96160  0.99724  0.59693  1.0000 0.0430667563
N   N14       1.0  0.99724  0.96160  0.90307  1.0000 0.0430667563
N   N15       1.0  0.03840  0.00276  0.40307  1.0000 0.0430667563
N   N16       1.0  0.00276  0.03840  0.09693  1.0000 0.0430667563
N   N17       1.0  0.59345  0.54471  0.36947  1.0000 0.0430667563
N   N18       1.0  0.54471  0.59345  0.13053  1.0000 0.0430667563
N   N19       1.0  0.40655  0.45529  0.63053  1.0000 0.0430667563
N   N20       1.0  0.45529  0.40655  0.86947  1.0000 0.0430667563
O   O1        1.0  0.42319  0.01401  0.11813  1.0000 -0.5290722237
O   O2        1.0  0.01401  0.42319  0.38187  1.0000 -0.5290722237
O   O3        1.0  0.57681  0.98599  0.88187  1.0000 -0.5290722237
O   O4        1.0  0.98599  0.57681  0.61813  1.0000 -0.5290722237
O   O5        1.0  0.53387  0.90649  0.25271  1.0000 -0.5290722237
O   O6        1.0  0.90649  0.53387  0.24729  1.0000 -0.5290722237
O   O7        1.0  0.46613  0.09351  0.74729  1.0000 -0.5290722237
O   O8        1.0  0.09351  0.46613  0.75271  1.0000 -0.5290722237
O   O9        1.0  0.64804  0.19506  0.37880  1.0000 -0.5506279306
O   O10       1.0  0.19506  0.64804  0.12120  1.0000 -0.5506279306
O   O11       1.0  0.35196  0.80494  0.62120  1.0000 -0.5506279306
O   O12       1.0  0.80494  0.35196  0.87880  1.0000 -0.5506279306
O   O13       1.0  0.49079  0.09995  0.30065  1.0000 -0.5188689069
O   O14       1.0  0.09995  0.49079  0.19935  1.0000 -0.5188689069
O   O15       1.0  0.50921  0.90005  0.69935  1.0000 -0.5188689069
O   O16       1.0  0.90005  0.50921  0.80065  1.0000 -0.5188689069
