# DDEC6 charges by PACMAN v1.1 (https://github.com/mtap-research/PACMAN-charge/)
data_0000[Fe][pts]3[ASR]1
_chemical_formula_sum              "Fe4 H104 C100 S8 N16 O16"
_cell_length_a       12.147
_cell_length_b       12.147
_cell_length_c       24.744
_cell_angle_alpha    90
_cell_angle_beta     90
_cell_angle_gamma    90

_symmetry_space_group_name_H-M    "P 1"
_symmetry_Int_Tables_number       1

loop_
  _symmetry_equiv_pos_as_xyz
  'x, y, z'

loop_
  _atom_site_type_symbol
  _atom_site_label
  _atom_site_symmetry_multiplicity
  _atom_site_fract_x
  _atom_site_fract_y
  _atom_site_fract_z
  _atom_site_occupancy
  _atom_site_charge
Fe  Fe1       1.0  0.50000  0.50000  0.67112  1.0000 0.5158737274
Fe  Fe2       1.0  0.00000  0.00000  0.17112  1.0000 0.5158737274
Fe  Fe3       1.0  0.00000  0.00000  0.82888  1.0000 0.5158737274
Fe  Fe4       1.0  0.50000  0.50000  0.32888  1.0000 0.5158737274
H   H1        1.0  0.33440  0.31900  0.62630  1.0000 0.1008491556
H   H2        1.0  0.66560  0.68100  0.62630  1.0000 0.1008491556
H   H3        1.0  0.18100  0.83440  0.12630  1.0000 0.1008491556
H   H4        1.0  0.81900  0.16560  0.12630  1.0000 0.1008491556
H   H5        1.0  0.31710  0.18100  0.56460  1.0000 0.148783938
H   H6        1.0  0.68290  0.81900  0.56460  1.0000 0.148783938
H   H7        1.0  0.31900  0.81710  0.06460  1.0000 0.148783938
H   H8        1.0  0.68100  0.18290  0.06460  1.0000 0.148783938
H   H9        1.0  0.61040  0.26740  0.50450  1.0000 0.1338630161
H   H10       1.0  0.38960  0.73260  0.50450  1.0000 0.1338630161
H   H11       1.0  0.23260  0.11040  0.00450  1.0000 0.1338630161
H   H12       1.0  0.76740  0.88960  0.00450  1.0000 0.1338630161
H   H13       1.0  0.62130  0.39940  0.57030  1.0000 0.1008491556
H   H14       1.0  0.37870  0.60060  0.57030  1.0000 0.1008491556
H   H15       1.0  0.10060  0.12130  0.07030  1.0000 0.1008491556
H   H16       1.0  0.89940  0.87870  0.07030  1.0000 0.1008491556
H   H17       1.0  0.55260  0.16100  0.43320  1.0000 0.1008491556
H   H18       1.0  0.44740  0.83900  0.43320  1.0000 0.1008491556
H   H19       1.0  0.33900  0.05260  0.93320  1.0000 0.1008491556
H   H20       1.0  0.66100  0.94740  0.93320  1.0000 0.1008491556
H   H21       1.0  0.60490  0.07960  0.47560  1.0000 0.1008491556
H   H22       1.0  0.39510  0.92040  0.47560  1.0000 0.1008491556
H   H23       1.0  0.42040  0.10490  0.97560  1.0000 0.1008491556
H   H24       1.0  0.57960  0.89510  0.97560  1.0000 0.1008491556
H   H25       1.0  0.56880  0.90900  0.35950  1.0000 0.1008491556
H   H26       1.0  0.43120  0.09100  0.35950  1.0000 0.1008491556
H   H27       1.0  0.59100  0.06880  0.85950  1.0000 0.1008491556
H   H28       1.0  0.40900  0.93120  0.85950  1.0000 0.1008491556
H   H29       1.0  0.65080  0.92440  0.40810  1.0000 0.1008491556
H   H30       1.0  0.34920  0.07560  0.40810  1.0000 0.1008491556
H   H31       1.0  0.57560  0.15080  0.90810  1.0000 0.1008491556
H   H32       1.0  0.42440  0.84920  0.90810  1.0000 0.1008491556
H   H33       1.0  0.83960  0.86180  0.24480  1.0000 0.1008491556
H   H34       1.0  0.16040  0.13820  0.24480  1.0000 0.1008491556
H   H35       1.0  0.63820  0.33960  0.74480  1.0000 0.1008491556
H   H36       1.0  0.36180  0.66040  0.74480  1.0000 0.1008491556
H   H37       1.0  0.71350  0.87110  0.31340  1.0000 0.1383883255
H   H38       1.0  0.28650  0.12890  0.31340  1.0000 0.1383883255
H   H39       1.0  0.62890  0.21350  0.81340  1.0000 0.1383883255
H   H40       1.0  0.37110  0.78650  0.81340  1.0000 0.1383883255
H   H41       1.0  0.75740  0.19430  0.31460  1.0000 0.1383883255
H   H42       1.0  0.24260  0.80570  0.31460  1.0000 0.1383883255
H   H43       1.0  0.30570  0.25740  0.81460  1.0000 0.1383883255
H   H44       1.0  0.69430  0.74260  0.81460  1.0000 0.1383883255
H   H45       1.0  0.88010  0.17440  0.24490  1.0000 0.0924001545
H   H46       1.0  0.11990  0.82560  0.24490  1.0000 0.0924001545
H   H47       1.0  0.32560  0.38010  0.74490  1.0000 0.0924001545
H   H48       1.0  0.67440  0.61990  0.74490  1.0000 0.0924001545
H   H49       1.0  0.28070  0.62470  0.66710  1.0000 0.1104344921
H   H50       1.0  0.71930  0.37530  0.66710  1.0000 0.1104344921
H   H51       1.0  0.87530  0.78070  0.16710  1.0000 0.1104344921
H   H52       1.0  0.12470  0.21930  0.16710  1.0000 0.1104344921
H   H53       1.0  0.16560  0.18100  0.87370  1.0000 0.1008491556
H   H54       1.0  0.83440  0.81900  0.87370  1.0000 0.1008491556
H   H55       1.0  0.31900  0.66560  0.37370  1.0000 0.1008491556
H   H56       1.0  0.68100  0.33440  0.37370  1.0000 0.1008491556
H   H57       1.0  0.18290  0.31900  0.93540  1.0000 0.148783938
H   H58       1.0  0.81710  0.68100  0.93540  1.0000 0.148783938
H   H59       1.0  0.18100  0.68290  0.43540  1.0000 0.148783938
H   H60       1.0  0.81900  0.31710  0.43540  1.0000 0.148783938
H   H61       1.0  0.88960  0.23260  0.99550  1.0000 0.1338630161
H   H62       1.0  0.11040  0.76740  0.99550  1.0000 0.1338630161
H   H63       1.0  0.26740  0.38960  0.49550  1.0000 0.1338630161
H   H64       1.0  0.73260  0.61040  0.49550  1.0000 0.1338630161
H   H65       1.0  0.87870  0.10060  0.92970  1.0000 0.1008491556
H   H66       1.0  0.12130  0.89940  0.92970  1.0000 0.1008491556
H   H67       1.0  0.39940  0.37870  0.42970  1.0000 0.1008491556
H   H68       1.0  0.60060  0.62130  0.42970  1.0000 0.1008491556
H   H69       1.0  0.94740  0.33900  0.06680  1.0000 0.1008491556
H   H70       1.0  0.05260  0.66100  0.06680  1.0000 0.1008491556
H   H71       1.0  0.16100  0.44740  0.56680  1.0000 0.1008491556
H   H72       1.0  0.83900  0.55260  0.56680  1.0000 0.1008491556
H   H73       1.0  0.89510  0.42040  0.02440  1.0000 0.1008491556
H   H74       1.0  0.10490  0.57960  0.02440  1.0000 0.1008491556
H   H75       1.0  0.07960  0.39510  0.52440  1.0000 0.1008491556
H   H76       1.0  0.92040  0.60490  0.52440  1.0000 0.1008491556
H   H77       1.0  0.93120  0.59100  0.14050  1.0000 0.1008491556
H   H78       1.0  0.06880  0.40900  0.14050  1.0000 0.1008491556
H   H79       1.0  0.90900  0.43120  0.64050  1.0000 0.1008491556
H   H80       1.0  0.09100  0.56880  0.64050  1.0000 0.1008491556
H   H81       1.0  0.84920  0.57560  0.09190  1.0000 0.1008491556
H   H82       1.0  0.15080  0.42440  0.09190  1.0000 0.1008491556
H   H83       1.0  0.92440  0.34920  0.59190  1.0000 0.1008491556
H   H84       1.0  0.07560  0.65080  0.59190  1.0000 0.1008491556
H   H85       1.0  0.66040  0.63820  0.25520  1.0000 0.1008491556
H   H86       1.0  0.33960  0.36180  0.25520  1.0000 0.1008491556
H   H87       1.0  0.86180  0.16040  0.75520  1.0000 0.1008491556
H   H88       1.0  0.13820  0.83960  0.75520  1.0000 0.1008491556
H   H89       1.0  0.78650  0.62890  0.18660  1.0000 0.1383883255
H   H90       1.0  0.21350  0.37110  0.18660  1.0000 0.1383883255
H   H91       1.0  0.87110  0.28650  0.68660  1.0000 0.1383883255
H   H92       1.0  0.12890  0.71350  0.68660  1.0000 0.1383883255
H   H93       1.0  0.74260  0.30570  0.18540  1.0000 0.1383883255
H   H94       1.0  0.25740  0.69430  0.18540  1.0000 0.1383883255
H   H95       1.0  0.19430  0.24260  0.68540  1.0000 0.1383883255
H   H96       1.0  0.80570  0.75740  0.68540  1.0000 0.1383883255
H   H97       1.0  0.61990  0.32560  0.25510  1.0000 0.0924001545
H   H98       1.0  0.38010  0.67440  0.25510  1.0000 0.0924001545
H   H99       1.0  0.17440  0.11990  0.75510  1.0000 0.0924001545
H   H100      1.0  0.82560  0.88010  0.75510  1.0000 0.0924001545
H   H101      1.0  0.21930  0.87530  0.83290  1.0000 0.1104344921
H   H102      1.0  0.78070  0.12470  0.83290  1.0000 0.1104344921
H   H103      1.0  0.62470  0.71930  0.33290  1.0000 0.1104344921
H   H104      1.0  0.37530  0.28070  0.33290  1.0000 0.1104344921
C   C1        1.0  0.39190  0.30710  0.60212  1.0000 0.0782908211
C   C2        1.0  0.60810  0.69290  0.60212  1.0000 0.0782908211
C   C3        1.0  0.19290  0.89190  0.10212  1.0000 0.0782908211
C   C4        1.0  0.80710  0.10810  0.10212  1.0000 0.0782908211
C   C5        1.0  0.38030  0.22430  0.56514  1.0000 -0.2649241415
C   C6        1.0  0.61970  0.77570  0.56514  1.0000 -0.2649241415
C   C7        1.0  0.27570  0.88030  0.06514  1.0000 -0.2649241415
C   C8        1.0  0.72430  0.11970  0.06514  1.0000 -0.2649241415
C   C9        1.0  0.46480  0.20600  0.52830  1.0000 0.2745440277
C   C10       1.0  0.53520  0.79400  0.52830  1.0000 0.2745440277
C   C11       1.0  0.29400  0.96480  0.02830  1.0000 0.2745440277
C   C12       1.0  0.70600  0.03520  0.02830  1.0000 0.2745440277
C   C13       1.0  0.55400  0.27460  0.52972  1.0000 -0.2939003883
C   C14       1.0  0.44600  0.72540  0.52972  1.0000 -0.2939003883
C   C15       1.0  0.22540  0.05400  0.02972  1.0000 -0.2939003883
C   C16       1.0  0.77460  0.94600  0.02972  1.0000 -0.2939003883
C   C17       1.0  0.55920  0.35480  0.56920  1.0000 0.0924001545
C   C18       1.0  0.44080  0.64520  0.56920  1.0000 0.0924001545
C   C19       1.0  0.14520  0.05920  0.06920  1.0000 0.0924001545
C   C20       1.0  0.85480  0.94080  0.06920  1.0000 0.0924001545
C   C21       1.0  0.53810  0.09780  0.45612  1.0000 -0.0944330879
C   C22       1.0  0.46190  0.90220  0.45612  1.0000 -0.0944330879
C   C23       1.0  0.40220  0.03810  0.95612  1.0000 -0.0944330879
C   C24       1.0  0.59780  0.96190  0.95612  1.0000 -0.0944330879
C   C25       1.0  0.50000  0.00000  0.42220  1.0000 0.0782908211
C   C26       1.0  0.50000  0.00000  0.92220  1.0000 0.0782908211
C   C27       1.0  0.59560  0.96100  0.38622  1.0000 -0.095737867
C   C28       1.0  0.40440  0.03900  0.38622  1.0000 -0.095737867
C   C29       1.0  0.53900  0.09560  0.88622  1.0000 -0.095737867
C   C30       1.0  0.46100  0.90440  0.88622  1.0000 -0.095737867
C   C31       1.0  0.82180  0.93080  0.25856  1.0000 0.1008491556
C   C32       1.0  0.17820  0.06920  0.25856  1.0000 0.1008491556
C   C33       1.0  0.56920  0.32180  0.75856  1.0000 0.1008491556
C   C34       1.0  0.43080  0.67820  0.75856  1.0000 0.1008491556
C   C35       1.0  0.74500  0.93530  0.30000  1.0000 -0.2808752833
C   C36       1.0  0.25500  0.06470  0.30000  1.0000 -0.2808752833
C   C37       1.0  0.56470  0.24500  0.80000  1.0000 -0.2808752833
C   C38       1.0  0.43530  0.75500  0.80000  1.0000 -0.2808752833
C   C39       1.0  0.71640  0.03550  0.32077  1.0000 0.2777842517
C   C40       1.0  0.28360  0.96450  0.32077  1.0000 0.2777842517
C   C41       1.0  0.46450  0.21640  0.82077  1.0000 0.2777842517
C   C42       1.0  0.53550  0.78360  0.82077  1.0000 0.2777842517
C   C43       1.0  0.77070  0.12470  0.30041  1.0000 -0.2691454378
C   C44       1.0  0.22930  0.87530  0.30041  1.0000 -0.2691454378
C   C45       1.0  0.37530  0.27070  0.80041  1.0000 -0.2691454378
C   C46       1.0  0.62470  0.72930  0.80041  1.0000 -0.2691454378
C   C47       1.0  0.84580  0.11180  0.25859  1.0000 0.0924001545
C   C48       1.0  0.15420  0.88820  0.25859  1.0000 0.0924001545
C   C49       1.0  0.38820  0.34580  0.75859  1.0000 0.0924001545
C   C50       1.0  0.61180  0.65420  0.75859  1.0000 0.0924001545
C   C51       1.0  0.10810  0.19290  0.89788  1.0000 0.0782908211
C   C52       1.0  0.89190  0.80710  0.89788  1.0000 0.0782908211
C   C53       1.0  0.30710  0.60810  0.39788  1.0000 0.0782908211
C   C54       1.0  0.69290  0.39190  0.39788  1.0000 0.0782908211
C   C55       1.0  0.11970  0.27570  0.93486  1.0000 -0.2691454378
C   C56       1.0  0.88030  0.72430  0.93486  1.0000 -0.2691454378
C   C57       1.0  0.22430  0.61970  0.43486  1.0000 -0.2649241415
C   C58       1.0  0.77570  0.38030  0.43486  1.0000 -0.2649241415
C   C59       1.0  0.03520  0.29400  0.97170  1.0000 0.2745440277
C   C60       1.0  0.96480  0.70600  0.97170  1.0000 0.2745440277
C   C61       1.0  0.20600  0.53520  0.47170  1.0000 0.2745440277
C   C62       1.0  0.79400  0.46480  0.47170  1.0000 0.2745440277
C   C63       1.0  0.94600  0.22540  0.97028  1.0000 -0.2939003883
C   C64       1.0  0.05400  0.77460  0.97028  1.0000 -0.2939003883
C   C65       1.0  0.27460  0.44600  0.47028  1.0000 -0.2939003883
C   C66       1.0  0.72540  0.55400  0.47028  1.0000 -0.2939003883
C   C67       1.0  0.94080  0.14520  0.93080  1.0000 0.0924001545
C   C68       1.0  0.05920  0.85480  0.93080  1.0000 0.0924001545
C   C69       1.0  0.35480  0.44080  0.43080  1.0000 0.0924001545
C   C70       1.0  0.64520  0.55920  0.43080  1.0000 0.0924001545
C   C71       1.0  0.96190  0.40220  0.04388  1.0000 -0.0944330879
C   C72       1.0  0.03810  0.59780  0.04388  1.0000 -0.0944330879
C   C73       1.0  0.09780  0.46190  0.54388  1.0000 -0.0944330879
C   C74       1.0  0.90220  0.53810  0.54388  1.0000 -0.0944330879
C   C75       1.0  0.00000  0.50000  0.07780  1.0000 0.0782908211
C   C76       1.0  0.00000  0.50000  0.57780  1.0000 0.0782908211
C   C77       1.0  0.90440  0.53900  0.11378  1.0000 -0.095737867
C   C78       1.0  0.09560  0.46100  0.11378  1.0000 -0.095737867
C   C79       1.0  0.96100  0.40440  0.61378  1.0000 -0.095737867
C   C80       1.0  0.03900  0.59560  0.61378  1.0000 -0.095737867
C   C81       1.0  0.67820  0.56920  0.24144  1.0000 0.1008491556
C   C82       1.0  0.32180  0.43080  0.24144  1.0000 0.1008491556
C   C83       1.0  0.93080  0.17820  0.74144  1.0000 0.1008491556
C   C84       1.0  0.06920  0.82180  0.74144  1.0000 0.1008491556
C   C85       1.0  0.75500  0.56470  0.20000  1.0000 -0.2808752833
C   C86       1.0  0.24500  0.43530  0.20000  1.0000 -0.2808752833
C   C87       1.0  0.93530  0.25500  0.70000  1.0000 -0.2808752833
C   C88       1.0  0.06470  0.74500  0.70000  1.0000 -0.2808752833
C   C89       1.0  0.78360  0.46450  0.17923  1.0000 0.2777842517
C   C90       1.0  0.21640  0.53550  0.17923  1.0000 0.2777842517
C   C91       1.0  0.03550  0.28360  0.67923  1.0000 0.2777842517
C   C92       1.0  0.96450  0.71640  0.67923  1.0000 0.2777842517
C   C93       1.0  0.72930  0.37530  0.19959  1.0000 -0.2691454378
C   C94       1.0  0.27070  0.62470  0.19959  1.0000 -0.2691454378
C   C95       1.0  0.12470  0.22930  0.69959  1.0000 -0.2691454378
C   C96       1.0  0.87530  0.77070  0.69959  1.0000 -0.2691454378
C   C97       1.0  0.65420  0.38820  0.24141  1.0000 0.0924001545
C   C98       1.0  0.34580  0.61180  0.24141  1.0000 0.0924001545
C   C99       1.0  0.11180  0.15420  0.74141  1.0000 0.0924001545
C   C100      1.0  0.88820  0.84580  0.74141  1.0000 0.0924001545
S   S1        1.0  0.30028  0.52796  0.66936  1.0000 -0.5861429302
S   S2        1.0  0.69972  0.47204  0.66936  1.0000 -0.5861429302
S   S3        1.0  0.97204  0.80028  0.16936  1.0000 -0.5861429302
S   S4        1.0  0.02796  0.19972  0.16936  1.0000 -0.5861429302
S   S5        1.0  0.19972  0.97204  0.83064  1.0000 -0.5861429302
S   S6        1.0  0.80028  0.02796  0.83064  1.0000 -0.5861429302
S   S7        1.0  0.52796  0.69972  0.33064  1.0000 -0.5861429302
S   S8        1.0  0.47204  0.30028  0.33064  1.0000 -0.5861429302
N   N1        1.0  0.48040  0.37220  0.60590  1.0000 -0.2270880295
N   N2        1.0  0.51960  0.62780  0.60590  1.0000 -0.2270880295
N   N3        1.0  0.12780  0.98040  0.10590  1.0000 -0.2270880295
N   N4        1.0  0.87220  0.01960  0.10590  1.0000 -0.2270880295
N   N5        1.0  0.87120  0.01610  0.23733  1.0000 -0.2270880295
N   N6        1.0  0.12880  0.98390  0.23733  1.0000 -0.2270880295
N   N7        1.0  0.48390  0.37120  0.73733  1.0000 -0.2270880295
N   N8        1.0  0.51610  0.62880  0.73733  1.0000 -0.2270880295
N   N9        1.0  0.01960  0.12780  0.89410  1.0000 -0.2270880295
N   N10       1.0  0.98040  0.87220  0.89410  1.0000 -0.2270880295
N   N11       1.0  0.37220  0.51960  0.39410  1.0000 -0.2270880295
N   N12       1.0  0.62780  0.48040  0.39410  1.0000 -0.2270880295
N   N13       1.0  0.62880  0.48390  0.26267  1.0000 -0.2270880295
N   N14       1.0  0.37120  0.51610  0.26267  1.0000 -0.2270880295
N   N15       1.0  0.01610  0.12880  0.76267  1.0000 -0.2270880295
N   N16       1.0  0.98390  0.87120  0.76267  1.0000 -0.2270880295
O   O1        1.0  0.64240  0.05340  0.36009  1.0000 -0.1649536816
O   O2        1.0  0.35760  0.94660  0.36009  1.0000 -0.1653617946
O   O3        1.0  0.44660  0.14240  0.86009  1.0000 -0.1653617946
O   O4        1.0  0.55340  0.85760  0.86009  1.0000 -0.1653617946
O   O5        1.0  0.45040  0.12150  0.49310  1.0000 -0.1758518805
O   O6        1.0  0.54960  0.87850  0.49310  1.0000 -0.1758518805
O   O7        1.0  0.37850  0.95040  0.99310  1.0000 -0.1758518805
O   O8        1.0  0.62150  0.04960  0.99310  1.0000 -0.1758518805
O   O9        1.0  0.85760  0.44660  0.13991  1.0000 -0.1653617946
O   O10       1.0  0.14240  0.55340  0.13991  1.0000 -0.1653617946
O   O11       1.0  0.05340  0.35760  0.63991  1.0000 -0.1653617946
O   O12       1.0  0.94660  0.64240  0.63991  1.0000 -0.1653617946
O   O13       1.0  0.04960  0.37850  0.00690  1.0000 -0.1758518805
O   O14       1.0  0.95040  0.62150  0.00690  1.0000 -0.1758518805
O   O15       1.0  0.12150  0.54960  0.50690  1.0000 -0.1758518805
O   O16       1.0  0.87850  0.45040  0.50690  1.0000 -0.1758518805
