# DDEC6 charges by PACMAN v1.1 (https://github.com/mtap-research/PACMAN-charge/)
data_0000[Tb][nan]3[ASR]4
_chemical_formula_sum              "Tb4 H12 C36 O24"
_cell_length_a       10.3397
_cell_length_b       10.3397
_cell_length_c       14.5061
_cell_angle_alpha    90
_cell_angle_beta     90
_cell_angle_gamma    90

_symmetry_space_group_name_H-M    "P 1"
_symmetry_Int_Tables_number       1

loop_
  _symmetry_equiv_pos_as_xyz
  'x, y, z'

loop_
  _atom_site_type_symbol
  _atom_site_label
  _atom_site_symmetry_multiplicity
  _atom_site_fract_x
  _atom_site_fract_y
  _atom_site_fract_z
  _atom_site_occupancy
  _atom_site_charge
Tb  Tb1       1.0  0.64745  0.64736  0.15744  1.0000 2.1113508882
Tb  Tb2       1.0  0.35255  0.35264  0.65744  1.0000 2.1113508882
Tb  Tb3       1.0  0.35264  0.64745  0.90744  1.0000 2.1113508882
Tb  Tb4       1.0  0.64736  0.35255  0.40744  1.0000 2.1113508882
H   H1        1.0  0.39550  0.50340  0.28260  1.0000 0.1076302471
H   H2        1.0  0.60450  0.49660  0.78260  1.0000 0.1076302471
H   H3        1.0  0.49660  0.39550  0.03260  1.0000 0.1076302471
H   H4        1.0  0.50340  0.60450  0.53260  1.0000 0.1076302471
H   H5        1.0  0.05920  0.42600  0.41020  1.0000 0.1332677545
H   H6        1.0  0.94080  0.57400  0.91020  1.0000 0.1332677545
H   H7        1.0  0.57400  0.05920  0.16020  1.0000 0.1332677545
H   H8        1.0  0.42600  0.94080  0.66020  1.0000 0.1332677545
H   H9        1.0  0.05680  0.56970  0.15340  1.0000 0.1332677545
H   H10       1.0  0.94320  0.43030  0.65340  1.0000 0.1332677545
H   H11       1.0  0.43030  0.05680  0.90340  1.0000 0.1332677545
H   H12       1.0  0.56970  0.94320  0.40340  1.0000 0.1332677545
C   C1        1.0  0.30550  0.50080  0.28210  1.0000 -0.1155251137
C   C2        1.0  0.69450  0.49920  0.78210  1.0000 -0.1155251137
C   C3        1.0  0.49920  0.30550  0.03210  1.0000 -0.1155251137
C   C4        1.0  0.50080  0.69450  0.53210  1.0000 -0.1155251137
C   C5        1.0  0.03870  0.50070  0.28190  1.0000 -0.0303809253
C   C6        1.0  0.96130  0.49930  0.78190  1.0000 -0.0303809253
C   C7        1.0  0.49930  0.03870  0.03190  1.0000 -0.0303809253
C   C8        1.0  0.50070  0.96130  0.53190  1.0000 -0.0303809253
C   C9        1.0  0.31390  0.58750  0.12060  1.0000 0.641283104
C   C10       1.0  0.68610  0.41250  0.62060  1.0000 0.641283104
C   C11       1.0  0.41250  0.31390  0.87060  1.0000 0.641283104
C   C12       1.0  0.58750  0.68610  0.37060  1.0000 0.641283104
C   C13       1.0  0.10440  0.45610  0.35910  1.0000 -0.1014884135
C   C14       1.0  0.89560  0.54390  0.85910  1.0000 -0.1014884135
C   C15       1.0  0.54390  0.10440  0.10910  1.0000 -0.1014884135
C   C16       1.0  0.45610  0.89560  0.60910  1.0000 -0.1014884135
C   C17       1.0  0.23970  0.54110  0.20440  1.0000 -0.0303809253
C   C18       1.0  0.76030  0.45890  0.70440  1.0000 -0.0303809253
C   C19       1.0  0.45890  0.23970  0.95440  1.0000 -0.0303809253
C   C20       1.0  0.54110  0.76030  0.45440  1.0000 -0.0303809253
C   C21       1.0  0.10260  0.54170  0.20490  1.0000 -0.1063900815
C   C22       1.0  0.89740  0.45830  0.70490  1.0000 -0.1063900815
C   C23       1.0  0.45830  0.10260  0.95490  1.0000 -0.1063900815
C   C24       1.0  0.54170  0.89740  0.45490  1.0000 -0.1063900815
C   C25       1.0  0.24080  0.45710  0.35890  1.0000 -0.0303809253
C   C26       1.0  0.75920  0.54290  0.85890  1.0000 -0.0303809253
C   C27       1.0  0.54290  0.24080  0.10890  1.0000 -0.0303809253
C   C28       1.0  0.45710  0.75920  0.60890  1.0000 -0.0303809253
C   C29       1.0  0.88830  0.49950  0.28180  1.0000 0.6627088131
C   C30       1.0  0.11170  0.50050  0.78180  1.0000 0.6627088131
C   C31       1.0  0.50050  0.88830  0.03180  1.0000 0.6627088131
C   C32       1.0  0.49950  0.11170  0.53180  1.0000 0.6627088131
C   C33       1.0  0.31360  0.41360  0.44350  1.0000 0.641283104
C   C34       1.0  0.68640  0.58640  0.94350  1.0000 0.641283104
C   C35       1.0  0.58640  0.31360  0.19350  1.0000 0.641283104
C   C36       1.0  0.41360  0.68640  0.69350  1.0000 0.641283104
O   O1        1.0  0.43030  0.61050  0.13030  1.0000 -0.6924859045
O   O2        1.0  0.56970  0.38950  0.63030  1.0000 -0.6924859045
O   O3        1.0  0.38950  0.43030  0.88030  1.0000 -0.6924859045
O   O4        1.0  0.61050  0.56970  0.38030  1.0000 -0.6924859045
O   O5        1.0  0.83580  0.42880  0.33940  1.0000 -0.6681910215
O   O6        1.0  0.16420  0.57120  0.83940  1.0000 -0.6681910215
O   O7        1.0  0.57120  0.83580  0.08940  1.0000 -0.6681910215
O   O8        1.0  0.42880  0.16420  0.58940  1.0000 -0.6681910215
O   O9        1.0  0.83660  0.56720  0.22280  1.0000 -0.6572231112
O   O10       1.0  0.16340  0.43280  0.72280  1.0000 -0.6572231112
O   O11       1.0  0.43280  0.83660  0.97280  1.0000 -0.6572231112
O   O12       1.0  0.56720  0.16340  0.47280  1.0000 -0.6572231112
O   O13       1.0  0.25470  0.40450  0.51810  1.0000 -0.6529296695
O   O14       1.0  0.74530  0.59550  0.01810  1.0000 -0.6529296695
O   O15       1.0  0.59550  0.25470  0.26810  1.0000 -0.6529296695
O   O16       1.0  0.40450  0.74530  0.76810  1.0000 -0.6529296695
O   O17       1.0  0.43000  0.39050  0.43400  1.0000 -0.6924859045
O   O18       1.0  0.57000  0.60950  0.93400  1.0000 -0.6924859045
O   O19       1.0  0.60950  0.43000  0.18400  1.0000 -0.6924859045
O   O20       1.0  0.39050  0.57000  0.68400  1.0000 -0.6924859045
O   O21       1.0  0.25450  0.59480  0.04640  1.0000 -0.6529296695
O   O22       1.0  0.74550  0.40520  0.54640  1.0000 -0.6529296695
O   O23       1.0  0.40520  0.25450  0.79640  1.0000 -0.6529296695
O   O24       1.0  0.59480  0.74550  0.29640  1.0000 -0.6529296695
