# DDEC6 charges by PACMAN v1.1 (https://github.com/mtap-research/PACMAN-charge/)
data_0000[Zn][hcb]2[ASR]3
_chemical_formula_sum              "Zn4 H28 C44 S4 N4 O16"
_cell_length_a       14.6154
_cell_length_b       5.9671
_cell_length_c       17.3506
_cell_angle_alpha    90
_cell_angle_beta     107.094
_cell_angle_gamma    90

_symmetry_space_group_name_H-M    "P 1"
_symmetry_Int_Tables_number       1

loop_
  _symmetry_equiv_pos_as_xyz
  'x, y, z'

loop_
  _atom_site_type_symbol
  _atom_site_label
  _atom_site_symmetry_multiplicity
  _atom_site_fract_x
  _atom_site_fract_y
  _atom_site_fract_z
  _atom_site_occupancy
  _atom_site_charge
Zn  Zn1       1.0  0.89125  0.72811  0.70669  1.0000 0.8552039523
Zn  Zn2       1.0  0.72344  0.32005  0.88452  1.0000 0.8513049145
Zn  Zn3       1.0  0.10875  0.22811  0.29331  1.0000 0.8513049145
Zn  Zn4       1.0  0.27656  0.82005  0.11548  1.0000 0.8513049145
H   H1        1.0  0.59640  0.38890  0.67300  1.0000 0.1103645994
H   H2        1.0  0.57670  0.83890  0.71850  1.0000 0.1460909803
H   H3        1.0  0.53730  0.73020  0.63090  1.0000 0.1398853023
H   H4        1.0  0.93830  0.78530  0.46280  1.0000 0.1194841858
H   H5        1.0  0.80730  0.34120  0.51180  1.0000 0.134114239
H   H6        1.0  0.94800  0.94740  0.34400  1.0000 0.1194841858
H   H7        1.0  0.80810  0.49300  0.38790  1.0000 0.1103645994
H   H8        1.0  0.36720  0.60280  0.84420  1.0000 0.1044261117
H   H9        1.0  0.52840  0.04630  0.85510  1.0000 0.1194841858
H   H10       1.0  0.30430  0.45250  0.94170  1.0000 0.134114239
H   H11       1.0  0.45810  0.88810  0.94680  1.0000 0.1194841858
H   H12       1.0  0.89810  0.27790  0.12830  1.0000 0.1103645994
H   H13       1.0  0.90310  0.73070  0.18110  1.0000 0.1460909803
H   H14       1.0  0.82810  0.62020  0.10440  1.0000 0.1398853023
H   H15       1.0  0.40360  0.88890  0.32700  1.0000 0.1103645994
H   H16       1.0  0.42330  0.33890  0.28150  1.0000 0.1460909803
H   H17       1.0  0.46270  0.23020  0.36910  1.0000 0.1398853023
H   H18       1.0  0.06170  0.28530  0.53720  1.0000 0.1194841858
H   H19       1.0  0.19270  0.84120  0.48820  1.0000 0.134114239
H   H20       1.0  0.05200  0.44740  0.65600  1.0000 0.1194841858
H   H21       1.0  0.19190  0.99300  0.61210  1.0000 0.1103645994
H   H22       1.0  0.63280  0.10280  0.15580  1.0000 0.1044261117
H   H23       1.0  0.47160  0.54630  0.14490  1.0000 0.1194841858
H   H24       1.0  0.69570  0.95250  0.05830  1.0000 0.134114239
H   H25       1.0  0.54190  0.38810  0.05320  1.0000 0.1194841858
H   H26       1.0  0.10190  0.77790  0.87170  1.0000 0.1103645994
H   H27       1.0  0.09690  0.23070  0.81890  1.0000 0.1460909803
H   H28       1.0  0.17190  0.12020  0.89560  1.0000 0.1398853023
C   C1        1.0  0.71917  0.55110  0.73720  1.0000 0.5869996209
C   C2        1.0  0.87270  0.94820  0.57839  1.0000 0.5356055755
C   C3        1.0  0.61237  0.50040  0.71719  1.0000 -0.0231762998
C   C4        1.0  0.87264  0.04810  0.49881  1.0000 -0.0006393933
C   C5        1.0  0.54840  0.70410  0.68873  1.0000 -0.2416839044
C   C6        1.0  0.91386  0.93010  0.44845  1.0000 -0.109173261
C   C7        1.0  0.83434  0.26070  0.47728  1.0000 -0.0922956656
C   C8        1.0  0.50248  0.44170  0.78521  1.0000 0.1729690839
C   C9        1.0  0.91881  0.02590  0.37740  1.0000 -0.1025246479
C   C10       1.0  0.83658  0.35280  0.40415  1.0000 -0.1344131719
C   C11       1.0  0.45577  0.34170  0.84168  1.0000 0.0272827694
C   C12       1.0  0.88082  0.23830  0.35496  1.0000 0.0272827694
C   C13       1.0  0.38716  0.46090  0.86624  1.0000 -0.1407483261
C   C14       1.0  0.48257  0.12730  0.87195  1.0000 -0.109173261
C   C15       1.0  0.88699  0.33770  0.27894  1.0000 0.1729690839
C   C16       1.0  0.34843  0.36950  0.92333  1.0000 -0.1025246479
C   C17       1.0  0.44122  0.03380  0.92709  1.0000 -0.109173261
C   C18       1.0  0.37468  0.15610  0.95319  1.0000 -0.0231762998
C   C19       1.0  0.93331  0.39440  0.16612  1.0000 -0.0108794355
C   C20       1.0  0.86690  0.59440  0.16023  1.0000 -0.2305328291
C   C21       1.0  0.33203  0.05300  0.01381  1.0000 0.5319245417
C   C22       1.0  0.02257  0.45620  0.14226  1.0000 0.5581127662
C   C23       1.0  0.28083  0.05110  0.26280  1.0000 0.5869996209
C   C24       1.0  0.12730  0.44820  0.42161  1.0000 0.5356055755
C   C25       1.0  0.38763  0.00040  0.28281  1.0000 -0.0231762998
C   C26       1.0  0.12736  0.54810  0.50119  1.0000 -0.0006393933
C   C27       1.0  0.45160  0.20410  0.31127  1.0000 -0.2416839044
C   C28       1.0  0.08614  0.43010  0.55155  1.0000 -0.109173261
C   C29       1.0  0.16566  0.76070  0.52272  1.0000 -0.0922956656
C   C30       1.0  0.49752  0.94170  0.21479  1.0000 0.1729690839
C   C31       1.0  0.08119  0.52590  0.62260  1.0000 -0.1025246479
C   C32       1.0  0.16342  0.85280  0.59585  1.0000 -0.1344131719
C   C33       1.0  0.54423  0.84170  0.15832  1.0000 0.0272827694
C   C34       1.0  0.11918  0.73830  0.64504  1.0000 0.0272827694
C   C35       1.0  0.61284  0.96090  0.13376  1.0000 -0.1407483261
C   C36       1.0  0.51743  0.62730  0.12805  1.0000 -0.109173261
C   C37       1.0  0.11301  0.83770  0.72106  1.0000 0.1729690839
C   C38       1.0  0.65157  0.86950  0.07667  1.0000 -0.1025246479
C   C39       1.0  0.55878  0.53380  0.07291  1.0000 -0.109173261
C   C40       1.0  0.62532  0.65610  0.04681  1.0000 -0.0231762998
C   C41       1.0  0.06669  0.89440  0.83388  1.0000 -0.0108794355
C   C42       1.0  0.13310  0.09440  0.83977  1.0000 -0.2305328291
C   C43       1.0  0.66797  0.55300  0.98619  1.0000 0.5319245417
C   C44       1.0  0.97743  0.95620  0.85774  1.0000 0.5581127662
S   S1        1.0  0.43784  0.62853  0.71022  1.0000 0.0181300202
S   S2        1.0  0.79253  0.50946  0.22310  1.0000 0.0181300202
S   S3        1.0  0.56216  0.12853  0.28978  1.0000 0.0181300202
S   S4        1.0  0.20747  0.00946  0.77690  1.0000 0.0145099569
N   N1        1.0  0.04440  0.80350  0.75161  1.0000 -0.3044510822
N   N2        1.0  0.58900  0.40040  0.78648  1.0000 -0.3167429309
N   N3        1.0  0.95560  0.30350  0.24839  1.0000 -0.3044510822
N   N4        1.0  0.41100  0.90040  0.21352  1.0000 -0.3167429309
O   O1        1.0  0.89648  0.90290  0.81003  1.0000 -0.5214041413
O   O2        1.0  0.74559  0.66667  0.68787  1.0000 -0.4878093939
O   O3        1.0  0.88136  0.73880  0.58676  1.0000 -0.5214041413
O   O4        1.0  0.86512  0.07050  0.63420  1.0000 -0.510620613
O   O5        1.0  0.77426  0.46660  0.80051  1.0000 -0.5013537746
O   O6        1.0  0.66071  0.34520  0.97433  1.0000 -0.5214041413
O   O7        1.0  0.71161  0.67420  0.94959  1.0000 -0.510620613
O   O8        1.0  0.00879  0.55160  0.07667  1.0000 -0.4798680287
O   O9        1.0  0.10352  0.40290  0.18997  1.0000 -0.5214041413
O   O10       1.0  0.25441  0.16667  0.31213  1.0000 -0.4878093939
O   O11       1.0  0.11864  0.23880  0.41324  1.0000 -0.5214041413
O   O12       1.0  0.13488  0.57050  0.36580  1.0000 -0.510620613
O   O13       1.0  0.22574  0.96660  0.19949  1.0000 -0.5013537746
O   O14       1.0  0.33929  0.84520  0.02567  1.0000 -0.5214041413
O   O15       1.0  0.28839  0.17420  0.05041  1.0000 -0.510620613
O   O16       1.0  0.99121  0.05160  0.92333  1.0000 -0.4798680287
