# DDEC6 charges by PACMAN v1.1 (https://github.com/mtap-research/PACMAN-charge/)
data_0000[DyCu][sqc]3[ASR]1
_chemical_formula_sum              "Dy4 Cu6 H48 C88 S2 N12 O50"
_cell_length_a       17.005
_cell_length_b       17.539
_cell_length_c       21.668
_cell_angle_alpha    92.01
_cell_angle_beta     104.49
_cell_angle_gamma    107.16

_symmetry_space_group_name_H-M    "P 1"
_symmetry_Int_Tables_number       1

loop_
  _symmetry_equiv_pos_as_xyz
  'x, y, z'

loop_
  _atom_site_type_symbol
  _atom_site_label
  _atom_site_symmetry_multiplicity
  _atom_site_fract_x
  _atom_site_fract_y
  _atom_site_fract_z
  _atom_site_occupancy
  _atom_site_charge
Dy  Dy1       1.0  0.11932  0.28880  0.90701  1.0000 2.0858194499
Dy  Dy2       1.0  0.99775  0.24102  0.70424  1.0000 2.0604452757
Dy  Dy3       1.0  0.88068  0.71120  0.09299  1.0000 2.0846230654
Dy  Dy4       1.0  0.00225  0.75898  0.29576  1.0000 2.0604452757
Cu  Cu1       1.0  0.56780  0.28914  0.80973  1.0000 0.6962100534
Cu  Cu2       1.0  0.12190  0.78221  0.80893  1.0000 0.6917985944
Cu  Cu3       1.0  0.11483  0.29279  0.32177  1.0000 0.6809107928
Cu  Cu4       1.0  0.43220  0.71086  0.19027  1.0000 0.6917985944
Cu  Cu5       1.0  0.87810  0.21779  0.19107  1.0000 0.6917985944
Cu  Cu6       1.0  0.88517  0.70721  0.67823  1.0000 0.6809107928
H   H1        1.0  0.32450  0.30560  0.87420  1.0000 0.1508098389
H   H2        1.0  0.84750  0.26010  0.93270  1.0000 0.1508098389
H   H3        1.0  0.71380  0.27360  0.92180  1.0000 0.1315904638
H   H4        1.0  0.79600  0.24110  0.73710  1.0000 0.1508098389
H   H5        1.0  0.42220  0.29430  0.69690  1.0000 0.1211637376
H   H6        1.0  0.08360  0.40280  0.10880  1.0000 0.1508098389
H   H7        1.0  0.08980  0.40770  0.21580  1.0000 0.1211637376
H   H8        1.0  0.10480  0.18410  0.11400  1.0000 0.1508098389
H   H9        1.0  0.10370  0.53390  0.89820  1.0000 0.1589880257
H   H10       1.0  0.09160  0.64070  0.70550  1.0000 0.1211637376
H   H11       1.0  0.06400  0.50500  0.70760  1.0000 0.1508098389
H   H12       1.0  0.11730  0.90570  0.90790  1.0000 0.1211637376
H   H13       1.0  0.03440  0.36280  0.50790  1.0000 0.1508098389
H   H14       1.0  0.10600  0.16140  0.41540  1.0000 0.1211637376
H   H15       1.0  0.10630  0.03600  0.90770  1.0000 0.1508098389
H   H16       1.0  0.06090  0.00920  0.71560  1.0000 0.1589880257
H   H17       1.0  0.28010  0.29130  0.68310  1.0000 0.1508098389
H   H18       1.0  0.08470  0.15200  0.51790  1.0000 0.1411129913
H   H19       1.0  0.86020  0.42150  0.72630  1.0000 0.1411129913
H   H20       1.0  0.83090  0.46360  0.66600  1.0000 0.1589880257
H   H21       1.0  0.77600  0.37670  0.67270  1.0000 0.1589880257
H   H22       1.0  0.76480  0.31940  0.56020  1.0000 0.1695542105
H   H23       1.0  0.81950  0.39990  0.54220  1.0000 0.1589880257
H   H24       1.0  0.84110  0.32030  0.53160  1.0000 0.1589880257
H   H25       1.0  0.67550  0.69440  0.12580  1.0000 0.1508098389
H   H26       1.0  0.15250  0.73990  0.06730  1.0000 0.1508098389
H   H27       1.0  0.28620  0.72640  0.07820  1.0000 0.1315904638
H   H28       1.0  0.20400  0.75890  0.26290  1.0000 0.1508098389
H   H29       1.0  0.57780  0.70570  0.30310  1.0000 0.1211637376
H   H30       1.0  0.91640  0.59720  0.89120  1.0000 0.1508098389
H   H31       1.0  0.91020  0.59230  0.78420  1.0000 0.1211637376
H   H32       1.0  0.89520  0.81590  0.88600  1.0000 0.1589880257
H   H33       1.0  0.89630  0.46610  0.10180  1.0000 0.1589880257
H   H34       1.0  0.90840  0.35930  0.29450  1.0000 0.1211637376
H   H35       1.0  0.93600  0.49500  0.29240  1.0000 0.1508098389
H   H36       1.0  0.88270  0.09430  0.09210  1.0000 0.1211637376
H   H37       1.0  0.96560  0.63720  0.49210  1.0000 0.1508098389
H   H38       1.0  0.89400  0.83860  0.58460  1.0000 0.1211637376
H   H39       1.0  0.89370  0.96400  0.09230  1.0000 0.1508098389
H   H40       1.0  0.93910  0.99080  0.28440  1.0000 0.1589880257
H   H41       1.0  0.71990  0.70870  0.31690  1.0000 0.1508098389
H   H42       1.0  0.91530  0.84800  0.48210  1.0000 0.1411129913
H   H43       1.0  0.13980  0.57850  0.27370  1.0000 0.1411129913
H   H44       1.0  0.16910  0.53640  0.33400  1.0000 0.1589880257
H   H45       1.0  0.22400  0.62330  0.32730  1.0000 0.1589880257
H   H46       1.0  0.23520  0.68060  0.43980  1.0000 0.1695542105
H   H47       1.0  0.18050  0.60010  0.45780  1.0000 0.1589880257
H   H48       1.0  0.15890  0.67970  0.46840  1.0000 0.1695542105
C   C1        1.0  0.06300  0.11620  0.80610  1.0000 0.637433188
C   C2        1.0  0.19220  0.28930  0.76910  1.0000 0.637433188
C   C3        1.0  0.28740  0.29610  0.77910  1.0000 0.0289607054
C   C4        1.0  0.02970  0.24860  0.58340  1.0000 0.5428705184
C   C5        1.0  0.09910  0.29000  0.03190  1.0000 0.5724097161
C   C6        1.0  0.09560  0.29440  0.09990  1.0000 0.0289607054
C   C7        1.0  0.34240  0.30220  0.83730  1.0000 -0.1122942971
C   C8        1.0  0.81140  0.25870  0.89220  1.0000 -0.1196695572
C   C9        1.0  0.73150  0.26770  0.88510  1.0000 0.1004598991
C   C10       1.0  0.78060  0.24750  0.77470  1.0000 -0.1364587912
C   C11       1.0  0.70070  0.25780  0.77470  1.0000 0.1315904638
C   C12       1.0  0.92360  0.24350  0.84300  1.0000 0.6298758058
C   C13       1.0  0.07790  0.03670  0.80850  1.0000 0.0003983347
C   C14       1.0  0.49000  0.30740  0.90220  1.0000 0.5018658706
C   C15       1.0  0.63570  0.26000  0.71100  1.0000 0.5018658706
C   C16       1.0  0.83560  0.24760  0.83690  1.0000 0.0223710357
C   C17       1.0  0.42460  0.30360  0.84190  1.0000 0.0896760678
C   C18       1.0  0.40140  0.29610  0.73260  1.0000 0.1004598991
C   C19       1.0  0.09010  0.35950  0.13080  1.0000 -0.1283851181
C   C20       1.0  0.09390  0.36210  0.19520  1.0000 0.0582895527
C   C21       1.0  0.10910  0.23730  0.19940  1.0000 0.0896760678
C   C22       1.0  0.10340  0.23100  0.13440  1.0000 -0.1196695572
C   C23       1.0  0.10020  0.55480  0.85920  1.0000 -0.1283851181
C   C24       1.0  0.07920  0.50380  0.80150  1.0000 0.0223710357
C   C25       1.0  0.06490  0.41450  0.80230  1.0000 0.637433188
C   C26       1.0  0.11530  0.63540  0.85650  1.0000 0.0680434896
C   C27       1.0  0.09220  0.61880  0.74410  1.0000 0.1094639903
C   C28       1.0  0.07670  0.53780  0.74570  1.0000 -0.1364587912
C   C29       1.0  0.10740  0.92760  0.86930  1.0000 0.1004598991
C   C30       1.0  0.08560  0.91420  0.75930  1.0000 0.0582895527
C   C31       1.0  0.11780  0.17300  0.24140  1.0000 0.518244472
C   C32       1.0  0.05020  0.32220  0.49060  1.0000 -0.0913279833
C   C33       1.0  0.07200  0.32940  0.43200  1.0000 0.0800511359
C   C34       1.0  0.09470  0.20320  0.43540  1.0000 0.1094639903
C   C35       1.0  0.09870  0.00550  0.86940  1.0000 -0.1283851181
C   C36       1.0  0.07290  0.99060  0.75550  1.0000 -0.0822627352
C   C37       1.0  0.05190  0.25450  0.52360  1.0000 -0.014882184
C   C38       1.0  0.31610  0.29400  0.72380  1.0000 -0.1196695572
C   C39       1.0  0.08020  0.86040  0.70460  1.0000 0.5076358585
C   C40       1.0  0.13050  0.69390  0.91380  1.0000 0.518244472
C   C41       1.0  0.07390  0.39680  0.39370  1.0000 0.4949203996
C   C42       1.0  0.07820  0.19550  0.49630  1.0000 -0.1036669718
C   C43       1.0  0.83310  0.41320  0.68100  1.0000 -0.5644849272
C   C44       1.0  0.82120  0.35020  0.55880  1.0000 -0.4997530114
C   C45       1.0  0.93700  0.88380  0.19390  1.0000 0.637433188
C   C46       1.0  0.80780  0.71070  0.23090  1.0000 0.637433188
C   C47       1.0  0.71260  0.70390  0.22090  1.0000 0.0289607054
C   C48       1.0  0.97030  0.75140  0.41660  1.0000 0.5428705184
C   C49       1.0  0.90090  0.71000  0.96810  1.0000 0.5724097161
C   C50       1.0  0.90440  0.70560  0.90010  1.0000 0.0289607054
C   C51       1.0  0.65760  0.69780  0.16270  1.0000 -0.1196695572
C   C52       1.0  0.18860  0.74130  0.10780  1.0000 -0.1196695572
C   C53       1.0  0.26850  0.73230  0.11490  1.0000 0.1004598991
C   C54       1.0  0.21940  0.75250  0.22530  1.0000 -0.1364587912
C   C55       1.0  0.29930  0.74220  0.22530  1.0000 0.1315904638
C   C56       1.0  0.07640  0.75650  0.15700  1.0000 0.6298758058
C   C57       1.0  0.92210  0.96330  0.19150  1.0000 0.0003983347
C   C58       1.0  0.51000  0.69260  0.09780  1.0000 0.5018658706
C   C59       1.0  0.36430  0.74000  0.28900  1.0000 0.5076358585
C   C60       1.0  0.16440  0.75240  0.16310  1.0000 0.0223710357
C   C61       1.0  0.57540  0.69640  0.15810  1.0000 0.0896760678
C   C62       1.0  0.59860  0.70390  0.26740  1.0000 0.1004598991
C   C63       1.0  0.90990  0.64050  0.86920  1.0000 -0.1283851181
C   C64       1.0  0.90610  0.63790  0.80480  1.0000 0.0582895527
C   C65       1.0  0.89090  0.76270  0.80060  1.0000 0.0896760678
C   C66       1.0  0.89660  0.76900  0.86560  1.0000 -0.1196695572
C   C67       1.0  0.89980  0.44520  0.14080  1.0000 -0.1283851181
C   C68       1.0  0.92080  0.49620  0.19850  1.0000 0.0223710357
C   C69       1.0  0.93510  0.58550  0.19770  1.0000 0.637433188
C   C70       1.0  0.88470  0.36460  0.14350  1.0000 0.0680434896
C   C71       1.0  0.90780  0.38120  0.25590  1.0000 0.1094639903
C   C72       1.0  0.92330  0.46220  0.25430  1.0000 -0.1364587912
C   C73       1.0  0.89260  0.07240  0.13070  1.0000 0.1004598991
C   C74       1.0  0.91440  0.08580  0.24070  1.0000 0.0582895527
C   C75       1.0  0.88220  0.82700  0.75860  1.0000 0.518244472
C   C76       1.0  0.94980  0.67780  0.50940  1.0000 -0.0913279833
C   C77       1.0  0.92800  0.67060  0.56800  1.0000 0.0800511359
C   C78       1.0  0.90530  0.79680  0.56460  1.0000 0.1094639903
C   C79       1.0  0.90130  0.99450  0.13060  1.0000 -0.1283851181
C   C80       1.0  0.92710  0.00940  0.24450  1.0000 -0.0822627352
C   C81       1.0  0.94810  0.74550  0.47640  1.0000 -0.0152220227
C   C82       1.0  0.68390  0.70600  0.27620  1.0000 -0.1283851181
C   C83       1.0  0.91980  0.13960  0.29540  1.0000 0.5076358585
C   C84       1.0  0.86950  0.30610  0.08620  1.0000 0.518244472
C   C85       1.0  0.92610  0.60320  0.60630  1.0000 0.4949203996
C   C86       1.0  0.92180  0.80450  0.50370  1.0000 -0.1036669718
C   C87       1.0  0.16690  0.58680  0.31900  1.0000 -0.5707513125
C   C88       1.0  0.17880  0.64980  0.44120  1.0000 -0.4997530114
S   S1        1.0  0.89334  0.37130  0.63954  1.0000 0.7057676582
S   S2        1.0  0.10666  0.62870  0.36046  1.0000 0.7152111201
N   N1        1.0  0.10340  0.30070  0.22950  1.0000 -0.2442942502
N   N2        1.0  0.10190  0.88540  0.81620  1.0000 -0.2461644145
N   N3        1.0  0.09440  0.27120  0.40530  1.0000 -0.2630625101
N   N4        1.0  0.10810  0.66600  0.79820  1.0000 -0.2630625101
N   N5        1.0  0.45330  0.30040  0.79080  1.0000 -0.2442942502
N   N6        1.0  0.67760  0.26830  0.82750  1.0000 -0.2805280866
N   N7        1.0  0.89660  0.69930  0.77050  1.0000 -0.2442942502
N   N8        1.0  0.89810  0.11460  0.18380  1.0000 -0.2442942502
N   N9        1.0  0.90560  0.72880  0.59470  1.0000 -0.2630625101
N   N10       1.0  0.89190  0.33400  0.20180  1.0000 -0.2630625101
N   N11       1.0  0.54670  0.69960  0.20920  1.0000 -0.2442942502
N   N12       1.0  0.32240  0.73170  0.17250  1.0000 -0.2805280866
O   O1        1.0  0.02550  0.30870  0.61163  1.0000 -0.5925414693
O   O2        1.0  0.01600  0.18290  0.60493  1.0000 -0.5973203392
O   O3        1.0  0.05300  0.45250  0.41390  1.0000 -0.4927342804
O   O4        1.0  0.09050  0.39220  0.34170  1.0000 -0.4927342804
O   O5        1.0  0.07700  0.88610  0.65200  1.0000 -0.4675093175
O   O6        1.0  0.08580  0.79130  0.71760  1.0000 -0.5473606469
O   O7        1.0  0.04350  0.13840  0.75458  1.0000 -0.5925414693
O   O8        1.0  0.07400  0.15450  0.85938  1.0000 -0.6499764056
O   O9        1.0  0.12690  0.10880  0.21820  1.0000 -0.4927342804
O   O10       1.0  0.10550  0.35410  0.00443  1.0000 -0.6375475855
O   O11       1.0  0.09900  0.22540  0.00413  1.0000 -0.6348974438
O   O12       1.0  0.88290  0.28730  0.66200  1.0000 -0.679798934
O   O13       1.0  0.04700  0.37370  0.74842  1.0000 -0.6727859111
O   O14       1.0  0.94390  0.23430  0.79138  1.0000 -0.721209559
O   O15       1.0  0.97180  0.25080  0.89844  1.0000 -0.5973203392
O   O16       1.0  0.57220  0.27580  0.71961  1.0000 -0.51198456
O   O17       1.0  0.65150  0.25050  0.66060  1.0000 -0.4176217945
O   O18       1.0  0.16910  0.29390  0.81938  1.0000 -0.740778956
O   O19       1.0  0.14620  0.27710  0.71350  1.0000 -0.5707513125
O   O20       1.0  0.47390  0.31530  0.95380  1.0000 -0.4523234697
O   O21       1.0  0.56160  0.29990  0.89846  1.0000 -0.5407084258
O   O22       1.0  0.07250  0.38980  0.85781  1.0000 -0.6727859111
O   O23       1.0  0.13910  0.67300  0.96670  1.0000 -0.4581051351
O   O24       1.0  0.13250  0.76760  0.89860  1.0000 -0.5473606469
O   O25       1.0  0.11900  0.18670  0.29930  1.0000 -0.51198456
O   O26       1.0  0.97450  0.69130  0.38837  1.0000 -0.5973203392
O   O27       1.0  0.98400  0.81710  0.39507  1.0000 -0.5973203392
O   O28       1.0  0.94700  0.54750  0.58610  1.0000 -0.4997530114
O   O29       1.0  0.90950  0.60780  0.65830  1.0000 -0.4927342804
O   O30       1.0  0.92300  0.11390  0.34800  1.0000 -0.4675093175
O   O31       1.0  0.91420  0.20870  0.28240  1.0000 -0.5473606469
O   O32       1.0  0.95650  0.86160  0.24542  1.0000 -0.5925414693
O   O33       1.0  0.92600  0.84550  0.14062  1.0000 -0.6499764056
O   O34       1.0  0.87310  0.89120  0.78180  1.0000 -0.4927342804
O   O35       1.0  0.89450  0.64590  0.99557  1.0000 -0.6375475855
O   O36       1.0  0.90100  0.77460  0.99587  1.0000 -0.6375475855
O   O37       1.0  0.11710  0.71270  0.33800  1.0000 -0.679798934
O   O38       1.0  0.95300  0.62630  0.25158  1.0000 -0.6727859111
O   O39       1.0  0.05610  0.76570  0.20862  1.0000 -0.721209559
O   O40       1.0  0.02820  0.74920  0.10156  1.0000 -0.5973203392
O   O41       1.0  0.42780  0.72420  0.28039  1.0000 -0.51198456
O   O42       1.0  0.34850  0.74950  0.33940  1.0000 -0.4176217945
O   O43       1.0  0.83090  0.70610  0.18062  1.0000 -0.740778956
O   O44       1.0  0.85380  0.72290  0.28650  1.0000 -0.5753350587
O   O45       1.0  0.52610  0.68470  0.04620  1.0000 -0.4408140214
O   O46       1.0  0.43840  0.70010  0.10154  1.0000 -0.5407084258
O   O47       1.0  0.92750  0.61020  0.14219  1.0000 -0.6727859111
O   O48       1.0  0.86090  0.32700  0.03330  1.0000 -0.4581051351
O   O49       1.0  0.86750  0.23240  0.10140  1.0000 -0.5473606469
O   O50       1.0  0.88100  0.81330  0.70070  1.0000 -0.51198456
