# DDEC6 charges by PACMAN v1.1 (https://github.com/mtap-research/PACMAN-charge/)
data_0000[Zn][pcu]3[ASR]3
_chemical_formula_sum              "Zn16 H192 C288 N16 O64"
_cell_length_a       10.931
_cell_length_b       16.2099
_cell_length_c       43.602
_cell_angle_alpha    90
_cell_angle_beta     92.754
_cell_angle_gamma    90

_symmetry_space_group_name_H-M    "P 1"
_symmetry_Int_Tables_number       1

loop_
  _symmetry_equiv_pos_as_xyz
  'x, y, z'

loop_
  _atom_site_type_symbol
  _atom_site_label
  _atom_site_symmetry_multiplicity
  _atom_site_fract_x
  _atom_site_fract_y
  _atom_site_fract_z
  _atom_site_occupancy
  _atom_site_charge
Zn  Zn1       1.0  0.31886  0.63969  0.69890  1.0000 0.8266504387
Zn  Zn2       1.0  0.31886  0.86031  0.19890  1.0000 0.8266504387
Zn  Zn3       1.0  0.31172  0.82057  0.69850  1.0000 0.8266504387
Zn  Zn4       1.0  0.31172  0.67943  0.19850  1.0000 0.8266504387
Zn  Zn5       1.0  0.32004  0.84426  0.45168  1.0000 0.8266504387
Zn  Zn6       1.0  0.32004  0.65574  0.95168  1.0000 0.8266504387
Zn  Zn7       1.0  0.31540  0.66270  0.44787  1.0000 0.8266504387
Zn  Zn8       1.0  0.31540  0.83730  0.94787  1.0000 0.8266504387
Zn  Zn9       1.0  0.68114  0.13969  0.80110  1.0000 0.8266504387
Zn  Zn10      1.0  0.68114  0.36031  0.30110  1.0000 0.8266504387
Zn  Zn11      1.0  0.68828  0.32057  0.80150  1.0000 0.8266504387
Zn  Zn12      1.0  0.68828  0.17943  0.30150  1.0000 0.8266504387
Zn  Zn13      1.0  0.67996  0.34426  0.04832  1.0000 0.8266504387
Zn  Zn14      1.0  0.67996  0.15574  0.54832  1.0000 0.8266504387
Zn  Zn15      1.0  0.68460  0.16270  0.05213  1.0000 0.8266504387
Zn  Zn16      1.0  0.68460  0.33730  0.55213  1.0000 0.8266504387
H   H1        1.0  0.38970  0.84360  0.79870  1.0000 0.1201985165
H   H2        1.0  0.38970  0.65640  0.29870  1.0000 0.1201985165
H   H3        1.0  0.38480  0.84400  0.85200  1.0000 0.1274849778
H   H4        1.0  0.38480  0.65600  0.35200  1.0000 0.1274849778
H   H5        1.0  0.19330  0.59770  0.87550  1.0000 0.1201985165
H   H6        1.0  0.19330  0.90230  0.37550  1.0000 0.1201985165
H   H7        1.0  0.10650  0.49150  0.84770  1.0000 0.1120226604
H   H8        1.0  0.10650  0.00850  0.34770  1.0000 0.1120226604
H   H9        1.0  0.10480  0.49350  0.79390  1.0000 0.1120226604
H   H10       1.0  0.10480  0.00650  0.29390  1.0000 0.1120226604
H   H11       1.0  0.19400  0.60040  0.76890  1.0000 0.1201985165
H   H12       1.0  0.19400  0.89960  0.26890  1.0000 0.1201985165
H   H13       1.0  0.71010  0.84340  0.68640  1.0000 0.1201985165
H   H14       1.0  0.71010  0.65660  0.18640  1.0000 0.1201985165
H   H15       1.0  0.92130  0.84080  0.68760  1.0000 0.1201985165
H   H16       1.0  0.92130  0.65920  0.18760  1.0000 0.1201985165
H   H17       1.0  0.02250  0.57680  0.72460  1.0000 0.1274849778
H   H18       1.0  0.02250  0.92320  0.22460  1.0000 0.1274849778
H   H19       1.0  0.91290  0.46610  0.74040  1.0000 0.1120226604
H   H20       1.0  0.91290  0.03390  0.24040  1.0000 0.1120226604
H   H21       1.0  0.70090  0.47300  0.74150  1.0000 0.1120226604
H   H22       1.0  0.70090  0.02700  0.24150  1.0000 0.1120226604
H   H23       1.0  0.59870  0.58990  0.72590  1.0000 0.1201985165
H   H24       1.0  0.59870  0.91010  0.22590  1.0000 0.1201985165
H   H25       1.0  0.35000  0.83590  0.60520  1.0000 0.1201985165
H   H26       1.0  0.35000  0.66410  0.10520  1.0000 0.1201985165
H   H27       1.0  0.35020  0.85200  0.55240  1.0000 0.1201985165
H   H28       1.0  0.35020  0.64800  0.05240  1.0000 0.1201985165
H   H29       1.0  0.18560  0.60850  0.51290  1.0000 0.1201985165
H   H30       1.0  0.18560  0.89150  0.01290  1.0000 0.1201985165
H   H31       1.0  0.10090  0.49440  0.53320  1.0000 0.1120226604
H   H32       1.0  0.10090  0.00560  0.03320  1.0000 0.1120226604
H   H33       1.0  0.08910  0.47910  0.58590  1.0000 0.1120226604
H   H34       1.0  0.08910  0.02090  0.08590  1.0000 0.1120226604
H   H35       1.0  0.16100  0.58100  0.61840  1.0000 0.1201985165
H   H36       1.0  0.16100  0.91900  0.11840  1.0000 0.1201985165
H   H37       1.0  0.72170  0.64160  0.46570  1.0000 0.1201985165
H   H38       1.0  0.72170  0.85840  0.96570  1.0000 0.1201985165
H   H39       1.0  0.93360  0.65120  0.46680  1.0000 0.1201985165
H   H40       1.0  0.93360  0.84880  0.96680  1.0000 0.1201985165
H   H41       1.0  0.00790  0.88900  0.41020  1.0000 0.1201985165
H   H42       1.0  0.00790  0.61100  0.91020  1.0000 0.1274849778
H   H43       1.0  0.88700  0.98510  0.38550  1.0000 0.1120226604
H   H44       1.0  0.88700  0.51490  0.88550  1.0000 0.1120226604
H   H45       1.0  0.67500  0.97820  0.38680  1.0000 0.1120226604
H   H46       1.0  0.67500  0.52180  0.88680  1.0000 0.1120226604
H   H47       1.0  0.58500  0.87540  0.41360  1.0000 0.1201985165
H   H48       1.0  0.58500  0.62460  0.91360  1.0000 0.1201985165
H   H49       1.0  0.49470  0.95510  0.69470  1.0000 0.1120226604
H   H50       1.0  0.49470  0.54490  0.19470  1.0000 0.1120226604
H   H51       1.0  0.50400  0.09420  0.68620  1.0000 0.1413038477
H   H52       1.0  0.50400  0.40580  0.18620  1.0000 0.1413038477
H   H53       1.0  0.13890  0.10060  0.68030  1.0000 0.1413038477
H   H54       1.0  0.13890  0.39940  0.18030  1.0000 0.1413038477
H   H55       1.0  0.13720  0.96050  0.68910  1.0000 0.1120226604
H   H56       1.0  0.13720  0.53950  0.18910  1.0000 0.1120226604
H   H57       1.0  0.39380  0.21850  0.66420  1.0000 0.1201985165
H   H58       1.0  0.39380  0.28150  0.16420  1.0000 0.1201985165
H   H59       1.0  0.25080  0.22250  0.66600  1.0000 0.1201985165
H   H60       1.0  0.25080  0.27750  0.16600  1.0000 0.1201985165
H   H61       1.0  0.41830  0.23390  0.71780  1.0000 0.1201985165
H   H62       1.0  0.41830  0.26610  0.21780  1.0000 0.1201985165
H   H63       1.0  0.27620  0.23270  0.72070  1.0000 0.1274849778
H   H64       1.0  0.27620  0.26730  0.22070  1.0000 0.1274849778
H   H65       1.0  0.30470  0.35450  0.65930  1.0000 0.1413038477
H   H66       1.0  0.30470  0.14550  0.15930  1.0000 0.1413038477
H   H67       1.0  0.29360  0.49540  0.65880  1.0000 0.1201985165
H   H68       1.0  0.29360  0.00460  0.15880  1.0000 0.1201985165
H   H69       1.0  0.36970  0.50720  0.74670  1.0000 0.1120226604
H   H70       1.0  0.36970  0.99280  0.24670  1.0000 0.1120226604
H   H71       1.0  0.37980  0.36670  0.75030  1.0000 0.1413038477
H   H72       1.0  0.37980  0.13330  0.25030  1.0000 0.1413038477
H   H73       1.0  0.33890  0.97330  0.49870  1.0000 0.1201985165
H   H74       1.0  0.33890  0.52670  0.99870  1.0000 0.1201985165
H   H75       1.0  0.36820  0.11190  0.50410  1.0000 0.1470670904
H   H76       1.0  0.36820  0.38810  0.00410  1.0000 0.1470670904
H   H77       1.0  0.36230  0.13000  0.41270  1.0000 0.1470670904
H   H78       1.0  0.36230  0.37000  0.91270  1.0000 0.1470670904
H   H79       1.0  0.33940  0.99010  0.40980  1.0000 0.1201985165
H   H80       1.0  0.33940  0.50990  0.90980  1.0000 0.1201985165
H   H81       1.0  0.43780  0.24890  0.44610  1.0000 0.1201985165
H   H82       1.0  0.43780  0.25110  0.94610  1.0000 0.1201985165
H   H83       1.0  0.42980  0.24130  0.48180  1.0000 0.1274849778
H   H84       1.0  0.42980  0.25870  0.98180  1.0000 0.1274849778
H   H85       1.0  0.22110  0.25590  0.44270  1.0000 0.1201985165
H   H86       1.0  0.22110  0.24410  0.94270  1.0000 0.1201985165
H   H87       1.0  0.22450  0.26190  0.47860  1.0000 0.1201985165
H   H88       1.0  0.22450  0.23810  0.97860  1.0000 0.1201985165
H   H89       1.0  0.11350  0.38980  0.44300  1.0000 0.1413038477
H   H90       1.0  0.11350  0.11020  0.94300  1.0000 0.1413038477
H   H91       1.0  0.13100  0.52850  0.43840  1.0000 0.1120226604
H   H92       1.0  0.13100  0.97150  0.93840  1.0000 0.1120226604
H   H93       1.0  0.47300  0.52130  0.46640  1.0000 0.1201985165
H   H94       1.0  0.47300  0.97870  0.96640  1.0000 0.1201985165
H   H95       1.0  0.46250  0.38040  0.47310  1.0000 0.1413038477
H   H96       1.0  0.46250  0.11960  0.97310  1.0000 0.1413038477
H   H97       1.0  0.61030  0.34360  0.70130  1.0000 0.1201985165
H   H98       1.0  0.61030  0.15640  0.20130  1.0000 0.1201985165
H   H99       1.0  0.61520  0.34400  0.64800  1.0000 0.1274849778
H   H100      1.0  0.61520  0.15600  0.14800  1.0000 0.1274849778
H   H101      1.0  0.80670  0.09770  0.62450  1.0000 0.1201985165
H   H102      1.0  0.80670  0.40230  0.12450  1.0000 0.1201985165
H   H103      1.0  0.89350  0.99150  0.65230  1.0000 0.1120226604
H   H104      1.0  0.89350  0.50850  0.15230  1.0000 0.1120226604
H   H105      1.0  0.89520  0.99350  0.70610  1.0000 0.1120226604
H   H106      1.0  0.89520  0.50650  0.20610  1.0000 0.1120226604
H   H107      1.0  0.80600  0.10040  0.73110  1.0000 0.1201985165
H   H108      1.0  0.80600  0.39960  0.23110  1.0000 0.1201985165
H   H109      1.0  0.28990  0.34340  0.81360  1.0000 0.1201985165
H   H110      1.0  0.28990  0.15660  0.31360  1.0000 0.1201985165
H   H111      1.0  0.07870  0.34080  0.81240  1.0000 0.1201985165
H   H112      1.0  0.07870  0.15920  0.31240  1.0000 0.1201985165
H   H113      1.0  0.97750  0.07680  0.77540  1.0000 0.1274849778
H   H114      1.0  0.97750  0.42320  0.27540  1.0000 0.1274849778
H   H115      1.0  0.08710  0.96610  0.75960  1.0000 0.1120226604
H   H116      1.0  0.08710  0.53390  0.25960  1.0000 0.1120226604
H   H117      1.0  0.29910  0.97300  0.75850  1.0000 0.1120226604
H   H118      1.0  0.29910  0.52700  0.25850  1.0000 0.1120226604
H   H119      1.0  0.40130  0.08990  0.77410  1.0000 0.1201985165
H   H120      1.0  0.40130  0.41010  0.27410  1.0000 0.1201985165
H   H121      1.0  0.65000  0.33590  0.89480  1.0000 0.1201985165
H   H122      1.0  0.65000  0.16410  0.39480  1.0000 0.1201985165
H   H123      1.0  0.64980  0.35200  0.94760  1.0000 0.1201985165
H   H124      1.0  0.64980  0.14800  0.44760  1.0000 0.1201985165
H   H125      1.0  0.81440  0.10850  0.98710  1.0000 0.1201985165
H   H126      1.0  0.81440  0.39150  0.48710  1.0000 0.1201985165
H   H127      1.0  0.89910  0.99440  0.96680  1.0000 0.1120226604
H   H128      1.0  0.89910  0.50560  0.46680  1.0000 0.1120226604
H   H129      1.0  0.91090  0.97910  0.91410  1.0000 0.1120226604
H   H130      1.0  0.91090  0.52090  0.41410  1.0000 0.1120226604
H   H131      1.0  0.83900  0.08100  0.88160  1.0000 0.1201985165
H   H132      1.0  0.83900  0.41900  0.38160  1.0000 0.1201985165
H   H133      1.0  0.27830  0.14160  0.03430  1.0000 0.1201985165
H   H134      1.0  0.27830  0.35840  0.53430  1.0000 0.1201985165
H   H135      1.0  0.06640  0.15120  0.03320  1.0000 0.1120226604
H   H136      1.0  0.06640  0.34880  0.53320  1.0000 0.1120226604
H   H137      1.0  0.99210  0.38900  0.08980  1.0000 0.1201985165
H   H138      1.0  0.99210  0.11100  0.58980  1.0000 0.1201985165
H   H139      1.0  0.11300  0.48510  0.11450  1.0000 0.1120226604
H   H140      1.0  0.11300  0.01490  0.61450  1.0000 0.1120226604
H   H141      1.0  0.32500  0.47820  0.11320  1.0000 0.1120226604
H   H142      1.0  0.32500  0.02180  0.61320  1.0000 0.1120226604
H   H143      1.0  0.41500  0.37540  0.08640  1.0000 0.1201985165
H   H144      1.0  0.41500  0.12460  0.58640  1.0000 0.1201985165
H   H145      1.0  0.50530  0.45510  0.80530  1.0000 0.1120226604
H   H146      1.0  0.50530  0.04490  0.30530  1.0000 0.1120226604
H   H147      1.0  0.49600  0.59420  0.81380  1.0000 0.1413038477
H   H148      1.0  0.49600  0.90580  0.31380  1.0000 0.1413038477
H   H149      1.0  0.86110  0.60060  0.81970  1.0000 0.1413038477
H   H150      1.0  0.86110  0.89940  0.31970  1.0000 0.1413038477
H   H151      1.0  0.86280  0.46050  0.81090  1.0000 0.1120226604
H   H152      1.0  0.86280  0.03950  0.31090  1.0000 0.1120226604
H   H153      1.0  0.60620  0.71850  0.83580  1.0000 0.1201985165
H   H154      1.0  0.60620  0.78150  0.33580  1.0000 0.1201985165
H   H155      1.0  0.74920  0.72250  0.83400  1.0000 0.1201985165
H   H156      1.0  0.74920  0.77750  0.33400  1.0000 0.1201985165
H   H157      1.0  0.58170  0.73390  0.78220  1.0000 0.1201985165
H   H158      1.0  0.58170  0.76610  0.28220  1.0000 0.1201985165
H   H159      1.0  0.72380  0.73270  0.77930  1.0000 0.1274849778
H   H160      1.0  0.72380  0.76730  0.27930  1.0000 0.1274849778
H   H161      1.0  0.69530  0.85450  0.84070  1.0000 0.1413038477
H   H162      1.0  0.69530  0.64550  0.34070  1.0000 0.1413038477
H   H163      1.0  0.70640  0.99540  0.84120  1.0000 0.1201985165
H   H164      1.0  0.70640  0.50460  0.34120  1.0000 0.1201985165
H   H165      1.0  0.63030  0.00720  0.75330  1.0000 0.1120226604
H   H166      1.0  0.63030  0.49280  0.25330  1.0000 0.1120226604
H   H167      1.0  0.62020  0.86670  0.74970  1.0000 0.1413038477
H   H168      1.0  0.62020  0.63330  0.24970  1.0000 0.1413038477
H   H169      1.0  0.66110  0.47330  0.00130  1.0000 0.1201985165
H   H170      1.0  0.66110  0.02670  0.50130  1.0000 0.1201985165
H   H171      1.0  0.63180  0.61190  0.99590  1.0000 0.1470670904
H   H172      1.0  0.63180  0.88810  0.49590  1.0000 0.1470670904
H   H173      1.0  0.63770  0.63000  0.08730  1.0000 0.1470670904
H   H174      1.0  0.63770  0.87000  0.58730  1.0000 0.1470670904
H   H175      1.0  0.66060  0.49010  0.09020  1.0000 0.1201985165
H   H176      1.0  0.66060  0.00990  0.59020  1.0000 0.1201985165
H   H177      1.0  0.56220  0.74890  0.05390  1.0000 0.1201985165
H   H178      1.0  0.56220  0.75110  0.55390  1.0000 0.1201985165
H   H179      1.0  0.57020  0.74130  0.01820  1.0000 0.1274849778
H   H180      1.0  0.57020  0.75870  0.51820  1.0000 0.1274849778
H   H181      1.0  0.77890  0.75590  0.05730  1.0000 0.1201985165
H   H182      1.0  0.77890  0.74410  0.55730  1.0000 0.1201985165
H   H183      1.0  0.77550  0.76190  0.02140  1.0000 0.1201985165
H   H184      1.0  0.77550  0.73810  0.52140  1.0000 0.1201985165
H   H185      1.0  0.88650  0.88980  0.05700  1.0000 0.1413038477
H   H186      1.0  0.88650  0.61020  0.55700  1.0000 0.1413038477
H   H187      1.0  0.86900  0.02850  0.06160  1.0000 0.1120226604
H   H188      1.0  0.86900  0.47150  0.56160  1.0000 0.1120226604
H   H189      1.0  0.52700  0.02130  0.03360  1.0000 0.1201985165
H   H190      1.0  0.52700  0.47870  0.53360  1.0000 0.1201985165
H   H191      1.0  0.53750  0.88040  0.02690  1.0000 0.1413038477
H   H192      1.0  0.53750  0.61960  0.52690  1.0000 0.1413038477
C   C1        1.0  0.32360  0.73480  0.75763  1.0000 0.581163464
C   C2        1.0  0.32360  0.76520  0.25763  1.0000 0.581163464
C   C3        1.0  0.31080  0.73320  0.79178  1.0000 -0.0662568492
C   C4        1.0  0.31080  0.76680  0.29178  1.0000 -0.0662568492
C   C5        1.0  0.35650  0.79870  0.80867  1.0000 -0.1109373143
C   C6        1.0  0.35650  0.70130  0.30867  1.0000 -0.1109373143
C   C7        1.0  0.35380  0.79890  0.84093  1.0000 -0.1188883927
C   C8        1.0  0.35380  0.70110  0.34093  1.0000 -0.1188883927
C   C9        1.0  0.30620  0.73360  0.85622  1.0000 -0.0662568492
C   C10       1.0  0.30620  0.76640  0.35622  1.0000 -0.0662568492
C   C11       1.0  0.19520  0.59840  0.85423  1.0000 -0.1455830654
C   C12       1.0  0.19520  0.90160  0.35423  1.0000 -0.1455830654
C   C13       1.0  0.14230  0.53530  0.83766  1.0000 -0.1188883927
C   C14       1.0  0.14230  0.96470  0.33766  1.0000 -0.1188883927
C   C15       1.0  0.14190  0.53630  0.80515  1.0000 -0.1188883927
C   C16       1.0  0.14190  0.96370  0.30515  1.0000 -0.1188883927
C   C17       1.0  0.19590  0.59980  0.79027  1.0000 -0.1399938596
C   C18       1.0  0.19590  0.90020  0.29027  1.0000 -0.1399938596
C   C19       1.0  0.25490  0.66510  0.80704  1.0000 0.0527406911
C   C20       1.0  0.25490  0.83490  0.30704  1.0000 0.0527406911
C   C21       1.0  0.25350  0.66560  0.83951  1.0000 0.0527406911
C   C22       1.0  0.25350  0.83440  0.33951  1.0000 0.0527406911
C   C23       1.0  0.31210  0.73760  0.89066  1.0000 0.5914663727
C   C24       1.0  0.31210  0.76240  0.39066  1.0000 0.5914663727
C   C25       1.0  0.54800  0.73380  0.69886  1.0000 0.5914663727
C   C26       1.0  0.54800  0.76620  0.19886  1.0000 0.5914663727
C   C27       1.0  0.68590  0.72950  0.70251  1.0000 -0.0597471579
C   C28       1.0  0.68590  0.77050  0.20251  1.0000 -0.0597471579
C   C29       1.0  0.75130  0.79620  0.69323  1.0000 -0.1304368601
C   C30       1.0  0.75130  0.70380  0.19323  1.0000 -0.1304368601
C   C31       1.0  0.87900  0.79440  0.69381  1.0000 -0.1188883927
C   C32       1.0  0.87900  0.70560  0.19381  1.0000 -0.1188883927
C   C33       1.0  0.94380  0.72560  0.70336  1.0000 -0.0597471579
C   C34       1.0  0.94380  0.77440  0.20336  1.0000 -0.0597471579
C   C35       1.0  0.93750  0.58010  0.72434  1.0000 -0.1399938596
C   C36       1.0  0.93750  0.91990  0.22434  1.0000 -0.1399938596
C   C37       1.0  0.87220  0.51400  0.73405  1.0000 -0.0995814771
C   C38       1.0  0.87220  0.98600  0.23405  1.0000 -0.0995814771
C   C39       1.0  0.74450  0.51800  0.73457  1.0000 -0.0995814771
C   C40       1.0  0.74450  0.98200  0.23457  1.0000 -0.0995814771
C   C41       1.0  0.68350  0.58750  0.72497  1.0000 -0.1399938596
C   C42       1.0  0.68350  0.91250  0.22497  1.0000 -0.1399938596
C   C43       1.0  0.74860  0.65690  0.71348  1.0000 0.0580069904
C   C44       1.0  0.74860  0.84310  0.21348  1.0000 0.0580069904
C   C45       1.0  0.87910  0.65380  0.71384  1.0000 0.0580069904
C   C46       1.0  0.87910  0.84620  0.21384  1.0000 0.0580069904
C   C47       1.0  0.08160  0.73090  0.70208  1.0000 0.5914663727
C   C48       1.0  0.08160  0.76910  0.20208  1.0000 0.5914663727
C   C49       1.0  0.28920  0.71840  0.64003  1.0000 0.5975444893
C   C50       1.0  0.28920  0.78160  0.14003  1.0000 0.5975444893
C   C51       1.0  0.27850  0.72270  0.60544  1.0000 -0.0597471579
C   C52       1.0  0.27850  0.77730  0.10544  1.0000 -0.0597471579
C   C53       1.0  0.32150  0.79320  0.59256  1.0000 -0.1188883927
C   C54       1.0  0.32150  0.70680  0.09256  1.0000 -0.1188883927
C   C55       1.0  0.32360  0.80260  0.56062  1.0000 -0.1188883927
C   C56       1.0  0.32360  0.69740  0.06062  1.0000 -0.1188883927
C   C57       1.0  0.28680  0.73950  0.54140  1.0000 -0.0597471579
C   C58       1.0  0.28680  0.76050  0.04140  1.0000 -0.0597471579
C   C59       1.0  0.18340  0.60310  0.53409  1.0000 -0.1399938596
C   C60       1.0  0.18340  0.89690  0.03409  1.0000 -0.1399938596
C   C61       1.0  0.13200  0.53560  0.54622  1.0000 -0.1188883927
C   C62       1.0  0.13200  0.96440  0.04622  1.0000 -0.1109373143
C   C63       1.0  0.12450  0.52620  0.57802  1.0000 -0.1188883927
C   C64       1.0  0.12450  0.97380  0.07802  1.0000 -0.1188883927
C   C65       1.0  0.16930  0.58670  0.59742  1.0000 -0.1399938596
C   C66       1.0  0.16930  0.91330  0.09742  1.0000 -0.1399938596
C   C67       1.0  0.22820  0.65780  0.58614  1.0000 0.0580069904
C   C68       1.0  0.22820  0.84220  0.08614  1.0000 0.0580069904
C   C69       1.0  0.23480  0.66650  0.55376  1.0000 0.0580069904
C   C70       1.0  0.23480  0.83350  0.05376  1.0000 0.0580069904
C   C71       1.0  0.30760  0.74940  0.50769  1.0000 0.581163464
C   C72       1.0  0.30760  0.75060  0.00769  1.0000 0.581163464
C   C73       1.0  0.55100  0.74490  0.44792  1.0000 0.581163464
C   C74       1.0  0.55100  0.75510  0.94792  1.0000 0.581163464
C   C75       1.0  0.68710  0.74900  0.44427  1.0000 -0.0597471579
C   C76       1.0  0.68710  0.75100  0.94427  1.0000 -0.0597471579
C   C77       1.0  0.75850  0.68720  0.45702  1.0000 -0.1304368601
C   C78       1.0  0.75850  0.81280  0.95702  1.0000 -0.1304368601
C   C79       1.0  0.88670  0.69220  0.45711  1.0000 -0.1304368601
C   C80       1.0  0.88670  0.80780  0.95711  1.0000 -0.1304368601
C   C81       1.0  0.94410  0.75620  0.44317  1.0000 -0.0597471579
C   C82       1.0  0.94410  0.74380  0.94317  1.0000 -0.0597471579
C   C83       1.0  0.92330  0.88510  0.41110  1.0000 -0.1304368601
C   C84       1.0  0.92330  0.61490  0.91110  1.0000 -0.1304368601
C   C85       1.0  0.85100  0.94280  0.39628  1.0000 -0.1109373143
C   C86       1.0  0.85100  0.55720  0.89628  1.0000 -0.1109373143
C   C87       1.0  0.72330  0.93890  0.39709  1.0000 -0.0995814771
C   C88       1.0  0.72330  0.56110  0.89709  1.0000 -0.0995814771
C   C89       1.0  0.66990  0.87740  0.41303  1.0000 -0.1399938596
C   C90       1.0  0.66990  0.62260  0.91303  1.0000 -0.1399938596
C   C91       1.0  0.74210  0.81590  0.42882  1.0000 0.0580069904
C   C92       1.0  0.74210  0.68410  0.92882  1.0000 0.0580069904
C   C93       1.0  0.87270  0.81970  0.42788  1.0000 0.0580069904
C   C94       1.0  0.87270  0.68030  0.92788  1.0000 0.0580069904
C   C95       1.0  0.08310  0.75640  0.44591  1.0000 0.5914663727
C   C96       1.0  0.08310  0.74360  0.94591  1.0000 0.5914663727
C   C97       1.0  0.42230  0.98460  0.69169  1.0000 0.0731380257
C   C98       1.0  0.42230  0.51540  0.19169  1.0000 0.0731380257
C   C99       1.0  0.42830  0.06820  0.68659  1.0000 -0.2013901281
C   C100      1.0  0.42830  0.43180  0.18659  1.0000 -0.2013901281
C   C101      1.0  0.32240  0.11370  0.68205  1.0000 0.1702410549
C   C102      1.0  0.32240  0.38630  0.18205  1.0000 0.1702410549
C   C103      1.0  0.21250  0.07210  0.68311  1.0000 -0.2074352642
C   C104      1.0  0.21250  0.42790  0.18311  1.0000 -0.2074352642
C   C105      1.0  0.21190  0.98770  0.68838  1.0000 0.0900484862
C   C106      1.0  0.21190  0.51230  0.18838  1.0000 0.0900484862
C   C107      1.0  0.32600  0.20490  0.67683  1.0000 -0.2399415785
C   C108      1.0  0.32600  0.29510  0.17683  1.0000 -0.2399415785
C   C109      1.0  0.34100  0.25030  0.70774  1.0000 -0.2284587248
C   C110      1.0  0.34100  0.24970  0.20774  1.0000 -0.2284587248
C   C111      1.0  0.33830  0.34300  0.70546  1.0000 0.1702410549
C   C112      1.0  0.33830  0.15700  0.20546  1.0000 0.1702410549
C   C113      1.0  0.31590  0.38410  0.67752  1.0000 -0.2013901281
C   C114      1.0  0.31590  0.11590  0.17752  1.0000 -0.2013901281
C   C115      1.0  0.31070  0.46890  0.67737  1.0000 0.0731380257
C   C116      1.0  0.31070  0.03110  0.17737  1.0000 0.0731380257
C   C117      1.0  0.35490  0.47600  0.72897  1.0000 0.0803208452
C   C118      1.0  0.35490  0.02400  0.22897  1.0000 0.0803208452
C   C119      1.0  0.36080  0.39130  0.73138  1.0000 -0.2074352642
C   C120      1.0  0.36080  0.10870  0.23138  1.0000 -0.2074352642
C   C121      1.0  0.34490  0.00530  0.48119  1.0000 0.0803208452
C   C122      1.0  0.34490  0.49470  0.98119  1.0000 0.0803208452
C   C123      1.0  0.36120  0.08870  0.48458  1.0000 -0.1931086501
C   C124      1.0  0.36120  0.41130  0.98458  1.0000 -0.1931086501
C   C125      1.0  0.36730  0.13800  0.45910  1.0000 0.1702410549
C   C126      1.0  0.36730  0.36200  0.95910  1.0000 0.1702410549
C   C127      1.0  0.35850  0.09910  0.43061  1.0000 -0.2074352642
C   C128      1.0  0.35850  0.40090  0.93061  1.0000 -0.2074352642
C   C129      1.0  0.34420  0.01510  0.42899  1.0000 0.0731380257
C   C130      1.0  0.34420  0.48490  0.92899  1.0000 0.0731380257
C   C131      1.0  0.38700  0.22980  0.46230  1.0000 -0.2399415785
C   C132      1.0  0.38700  0.27020  0.96230  1.0000 -0.2399415785
C   C133      1.0  0.26940  0.27500  0.46055  1.0000 -0.2284587248
C   C134      1.0  0.26940  0.22500  0.96055  1.0000 -0.2284587248
C   C135      1.0  0.28340  0.36760  0.45852  1.0000 0.1702410549
C   C136      1.0  0.28340  0.13240  0.95852  1.0000 0.1702410549
C   C137      1.0  0.18840  0.41470  0.44809  1.0000 -0.2013901281
C   C138      1.0  0.18840  0.08530  0.94809  1.0000 -0.2013901281
C   C139      1.0  0.19980  0.49820  0.44487  1.0000 0.0803208452
C   C140      1.0  0.19980  0.00180  0.94487  1.0000 0.0803208452
C   C141      1.0  0.39980  0.49410  0.46142  1.0000 0.0803208452
C   C142      1.0  0.39980  0.00590  0.96142  1.0000 0.0803208452
C   C143      1.0  0.39390  0.40940  0.46563  1.0000 -0.2074352642
C   C144      1.0  0.39390  0.09060  0.96563  1.0000 -0.2074352642
C   C145      1.0  0.67640  0.23480  0.74237  1.0000 0.581163464
C   C146      1.0  0.67640  0.26520  0.24237  1.0000 0.581163464
C   C147      1.0  0.68920  0.23320  0.70822  1.0000 -0.0662568492
C   C148      1.0  0.68920  0.26680  0.20822  1.0000 -0.0662568492
C   C149      1.0  0.64350  0.29870  0.69133  1.0000 -0.1109373143
C   C150      1.0  0.64350  0.20130  0.19133  1.0000 -0.1109373143
C   C151      1.0  0.64620  0.29890  0.65907  1.0000 -0.1188883927
C   C152      1.0  0.64620  0.20110  0.15907  1.0000 -0.1188883927
C   C153      1.0  0.69380  0.23360  0.64378  1.0000 -0.0662568492
C   C154      1.0  0.69380  0.26640  0.14378  1.0000 -0.0662568492
C   C155      1.0  0.80480  0.09840  0.64577  1.0000 -0.1455830654
C   C156      1.0  0.80480  0.40160  0.14577  1.0000 -0.1455830654
C   C157      1.0  0.85770  0.03530  0.66234  1.0000 -0.1188883927
C   C158      1.0  0.85770  0.46470  0.16234  1.0000 -0.1188883927
C   C159      1.0  0.85810  0.03630  0.69485  1.0000 -0.1188883927
C   C160      1.0  0.85810  0.46370  0.19485  1.0000 -0.1188883927
C   C161      1.0  0.80410  0.09980  0.70973  1.0000 -0.1399938596
C   C162      1.0  0.80410  0.40020  0.20973  1.0000 -0.1399938596
C   C163      1.0  0.74510  0.16510  0.69296  1.0000 0.0527406911
C   C164      1.0  0.74510  0.33490  0.19296  1.0000 0.0527406911
C   C165      1.0  0.74650  0.16560  0.66049  1.0000 0.0527406911
C   C166      1.0  0.74650  0.33440  0.16049  1.0000 0.0527406911
C   C167      1.0  0.68790  0.23760  0.60934  1.0000 0.5914663727
C   C168      1.0  0.68790  0.26240  0.10934  1.0000 0.5914663727
C   C169      1.0  0.45200  0.23380  0.80114  1.0000 0.5914663727
C   C170      1.0  0.45200  0.26620  0.30114  1.0000 0.5914663727
C   C171      1.0  0.31410  0.22950  0.79749  1.0000 -0.0597471579
C   C172      1.0  0.31410  0.27050  0.29749  1.0000 -0.0597471579
C   C173      1.0  0.24870  0.29620  0.80677  1.0000 -0.1304368601
C   C174      1.0  0.24870  0.20380  0.30677  1.0000 -0.1304368601
C   C175      1.0  0.12100  0.29440  0.80619  1.0000 -0.1188883927
C   C176      1.0  0.12100  0.20560  0.30619  1.0000 -0.1188883927
C   C177      1.0  0.05620  0.22560  0.79664  1.0000 -0.0597471579
C   C178      1.0  0.05620  0.27440  0.29664  1.0000 -0.0597471579
C   C179      1.0  0.06250  0.08010  0.77566  1.0000 -0.1399938596
C   C180      1.0  0.06250  0.41990  0.27566  1.0000 -0.1399938596
C   C181      1.0  0.12780  0.01400  0.76595  1.0000 -0.0995814771
C   C182      1.0  0.12780  0.48600  0.26595  1.0000 -0.0995814771
C   C183      1.0  0.25550  0.01800  0.76543  1.0000 -0.0995814771
C   C184      1.0  0.25550  0.48200  0.26543  1.0000 -0.0995814771
C   C185      1.0  0.31650  0.08750  0.77503  1.0000 -0.1399938596
C   C186      1.0  0.31650  0.41250  0.27503  1.0000 -0.1399938596
C   C187      1.0  0.25140  0.15690  0.78652  1.0000 0.0580069904
C   C188      1.0  0.25140  0.34310  0.28652  1.0000 0.0580069904
C   C189      1.0  0.12090  0.15380  0.78616  1.0000 0.0580069904
C   C190      1.0  0.12090  0.34620  0.28616  1.0000 0.0580069904
C   C191      1.0  0.91840  0.23090  0.79792  1.0000 0.5914663727
C   C192      1.0  0.91840  0.26910  0.29792  1.0000 0.5914663727
C   C193      1.0  0.71080  0.21840  0.85997  1.0000 0.5975444893
C   C194      1.0  0.71080  0.28160  0.35997  1.0000 0.5975444893
C   C195      1.0  0.72150  0.22270  0.89456  1.0000 -0.0597471579
C   C196      1.0  0.72150  0.27730  0.39456  1.0000 -0.0597471579
C   C197      1.0  0.67850  0.29320  0.90744  1.0000 -0.1188883927
C   C198      1.0  0.67850  0.20680  0.40744  1.0000 -0.1188883927
C   C199      1.0  0.67640  0.30260  0.93938  1.0000 -0.1188883927
C   C200      1.0  0.67640  0.19740  0.43938  1.0000 -0.1188883927
C   C201      1.0  0.71320  0.23950  0.95860  1.0000 -0.0597471579
C   C202      1.0  0.71320  0.26050  0.45860  1.0000 -0.0597471579
C   C203      1.0  0.81660  0.10310  0.96591  1.0000 -0.1399938596
C   C204      1.0  0.81660  0.39690  0.46591  1.0000 -0.1399938596
C   C205      1.0  0.86800  0.03560  0.95378  1.0000 -0.1188883927
C   C206      1.0  0.86800  0.46440  0.45378  1.0000 -0.1188883927
C   C207      1.0  0.87550  0.02620  0.92198  1.0000 -0.1188883927
C   C208      1.0  0.87550  0.47380  0.42198  1.0000 -0.1188883927
C   C209      1.0  0.83070  0.08670  0.90258  1.0000 -0.1399938596
C   C210      1.0  0.83070  0.41330  0.40258  1.0000 -0.1399938596
C   C211      1.0  0.77180  0.15780  0.91386  1.0000 0.0580069904
C   C212      1.0  0.77180  0.34220  0.41386  1.0000 0.0580069904
C   C213      1.0  0.76520  0.16650  0.94624  1.0000 0.0580069904
C   C214      1.0  0.76520  0.33350  0.44624  1.0000 0.0580069904
C   C215      1.0  0.69240  0.24940  0.99231  1.0000 0.581163464
C   C216      1.0  0.69240  0.25060  0.49231  1.0000 0.581163464
C   C217      1.0  0.44900  0.24490  0.05208  1.0000 0.581163464
C   C218      1.0  0.44900  0.25510  0.55208  1.0000 0.581163464
C   C219      1.0  0.31290  0.24900  0.05573  1.0000 -0.0597471579
C   C220      1.0  0.31290  0.25100  0.55573  1.0000 -0.0597471579
C   C221      1.0  0.24150  0.18720  0.04298  1.0000 -0.1304368601
C   C222      1.0  0.24150  0.31280  0.54298  1.0000 -0.1304368601
C   C223      1.0  0.11330  0.19220  0.04289  1.0000 -0.1304368601
C   C224      1.0  0.11330  0.30780  0.54289  1.0000 -0.1304368601
C   C225      1.0  0.05590  0.25620  0.05683  1.0000 -0.0597471579
C   C226      1.0  0.05590  0.24380  0.55683  1.0000 -0.0597471579
C   C227      1.0  0.07670  0.38510  0.08890  1.0000 -0.1304368601
C   C228      1.0  0.07670  0.11490  0.58890  1.0000 -0.1304368601
C   C229      1.0  0.14900  0.44280  0.10372  1.0000 -0.1109373143
C   C230      1.0  0.14900  0.05720  0.60372  1.0000 -0.1109373143
C   C231      1.0  0.27670  0.43890  0.10291  1.0000 -0.0995814771
C   C232      1.0  0.27670  0.06110  0.60291  1.0000 -0.0995814771
C   C233      1.0  0.33010  0.37740  0.08697  1.0000 -0.1399938596
C   C234      1.0  0.33010  0.12260  0.58697  1.0000 -0.1399938596
C   C235      1.0  0.25790  0.31590  0.07118  1.0000 0.0580069904
C   C236      1.0  0.25790  0.18410  0.57118  1.0000 0.0580069904
C   C237      1.0  0.12730  0.31970  0.07212  1.0000 0.0580069904
C   C238      1.0  0.12730  0.18030  0.57212  1.0000 0.0580069904
C   C239      1.0  0.91690  0.25640  0.05409  1.0000 0.5914663727
C   C240      1.0  0.91690  0.24360  0.55409  1.0000 0.5914663727
C   C241      1.0  0.57770  0.48460  0.80831  1.0000 0.0731380257
C   C242      1.0  0.57770  0.01540  0.30831  1.0000 0.0731380257
C   C243      1.0  0.57170  0.56820  0.81341  1.0000 -0.2013901281
C   C244      1.0  0.57170  0.93180  0.31341  1.0000 -0.2013901281
C   C245      1.0  0.67760  0.61370  0.81795  1.0000 0.1702410549
C   C246      1.0  0.67760  0.88630  0.31795  1.0000 0.1702410549
C   C247      1.0  0.78750  0.57210  0.81689  1.0000 -0.2074352642
C   C248      1.0  0.78750  0.92790  0.31689  1.0000 -0.2074352642
C   C249      1.0  0.78810  0.48770  0.81162  1.0000 0.0900484862
C   C250      1.0  0.78810  0.01230  0.31162  1.0000 0.0900484862
C   C251      1.0  0.67400  0.70490  0.82317  1.0000 -0.2399415785
C   C252      1.0  0.67400  0.79510  0.32317  1.0000 -0.2399415785
C   C253      1.0  0.65900  0.75030  0.79226  1.0000 -0.2284587248
C   C254      1.0  0.65900  0.74970  0.29226  1.0000 -0.2284587248
C   C255      1.0  0.66170  0.84300  0.79454  1.0000 0.1702410549
C   C256      1.0  0.66170  0.65700  0.29454  1.0000 0.1702410549
C   C257      1.0  0.68410  0.88410  0.82248  1.0000 -0.2013901281
C   C258      1.0  0.68410  0.61590  0.32248  1.0000 -0.2013901281
C   C259      1.0  0.68930  0.96890  0.82263  1.0000 0.0731380257
C   C260      1.0  0.68930  0.53110  0.32263  1.0000 0.0731380257
C   C261      1.0  0.64510  0.97600  0.77103  1.0000 0.0803208452
C   C262      1.0  0.64510  0.52400  0.27103  1.0000 0.0803208452
C   C263      1.0  0.63920  0.89130  0.76862  1.0000 -0.2074352642
C   C264      1.0  0.63920  0.60870  0.26862  1.0000 -0.2074352642
C   C265      1.0  0.65510  0.50530  0.01881  1.0000 0.0803208452
C   C266      1.0  0.65510  0.99470  0.51881  1.0000 0.0803208452
C   C267      1.0  0.63880  0.58870  0.01542  1.0000 -0.1931086501
C   C268      1.0  0.63880  0.91130  0.51542  1.0000 -0.1931086501
C   C269      1.0  0.63270  0.63800  0.04090  1.0000 0.1702410549
C   C270      1.0  0.63270  0.86200  0.54090  1.0000 0.1702410549
C   C271      1.0  0.64150  0.59910  0.06939  1.0000 -0.2074352642
C   C272      1.0  0.64150  0.90090  0.56939  1.0000 -0.2074352642
C   C273      1.0  0.65580  0.51510  0.07101  1.0000 0.0731380257
C   C274      1.0  0.65580  0.98490  0.57101  1.0000 0.0731380257
C   C275      1.0  0.61300  0.72980  0.03770  1.0000 -0.2399415785
C   C276      1.0  0.61300  0.77020  0.53770  1.0000 -0.2399415785
C   C277      1.0  0.73060  0.77500  0.03945  1.0000 -0.2284587248
C   C278      1.0  0.73060  0.72500  0.53945  1.0000 -0.2284587248
C   C279      1.0  0.71660  0.86760  0.04148  1.0000 0.1702410549
C   C280      1.0  0.71660  0.63240  0.54148  1.0000 0.1702410549
C   C281      1.0  0.81160  0.91470  0.05191  1.0000 -0.2013901281
C   C282      1.0  0.81160  0.58530  0.55191  1.0000 -0.2013901281
C   C283      1.0  0.80020  0.99820  0.05513  1.0000 0.0803208452
C   C284      1.0  0.80020  0.50180  0.55513  1.0000 0.0803208452
C   C285      1.0  0.60020  0.99410  0.03858  1.0000 0.0803208452
C   C286      1.0  0.60020  0.50590  0.53858  1.0000 0.0803208452
C   C287      1.0  0.60610  0.90940  0.03437  1.0000 -0.2074352642
C   C288      1.0  0.60610  0.59060  0.53437  1.0000 -0.2074352642
N   N1        1.0  0.32920  0.51550  0.70272  1.0000 -0.2284587248
N   N2        1.0  0.32920  0.98450  0.20272  1.0000 -0.2284587248
N   N3        1.0  0.31510  0.94430  0.69239  1.0000 -0.2284587248
N   N4        1.0  0.31510  0.55570  0.19239  1.0000 -0.2284587248
N   N5        1.0  0.33700  0.96790  0.45391  1.0000 -0.2247570972
N   N6        1.0  0.33700  0.53210  0.95391  1.0000 -0.2247570972
N   N7        1.0  0.30380  0.53790  0.45049  1.0000 -0.2074352642
N   N8        1.0  0.30380  0.96210  0.95049  1.0000 -0.2074352642
N   N9        1.0  0.67080  0.01550  0.79728  1.0000 -0.2284587248
N   N10       1.0  0.67080  0.48450  0.29728  1.0000 -0.2284587248
N   N11       1.0  0.68490  0.44430  0.80761  1.0000 -0.2247570972
N   N12       1.0  0.68490  0.05570  0.30761  1.0000 -0.2247570972
N   N13       1.0  0.66300  0.46790  0.04609  1.0000 -0.2247570972
N   N14       1.0  0.66300  0.03210  0.54609  1.0000 -0.2247570972
N   N15       1.0  0.69620  0.03790  0.04951  1.0000 -0.2074352642
N   N16       1.0  0.69620  0.46210  0.54951  1.0000 -0.2074352642
O   O1        1.0  0.49230  0.66930  0.69073  1.0000 -0.5293946386
O   O2        1.0  0.49230  0.83070  0.19073  1.0000 -0.5293946386
O   O3        1.0  0.49850  0.80270  0.70357  1.0000 -0.5601177563
O   O4        1.0  0.49850  0.69730  0.20357  1.0000 -0.5601177563
O   O5        1.0  0.35590  0.66920  0.74461  1.0000 -0.5601177563
O   O6        1.0  0.35590  0.83080  0.24461  1.0000 -0.5601177563
O   O7        1.0  0.30540  0.80290  0.74470  1.0000 -0.5293946386
O   O8        1.0  0.30540  0.69710  0.24470  1.0000 -0.5293946386
O   O9        1.0  0.12610  0.80070  0.69716  1.0000 -0.5423892714
O   O10       1.0  0.12610  0.69930  0.19716  1.0000 -0.5423892714
O   O11       1.0  0.14400  0.66667  0.70604  1.0000 -0.5423892714
O   O12       1.0  0.14400  0.83340  0.20604  1.0000 -0.5423892714
O   O13       1.0  0.28020  0.64880  0.65295  1.0000 -0.5423892714
O   O14       1.0  0.28020  0.85120  0.15295  1.0000 -0.5423892714
O   O15       1.0  0.30960  0.78450  0.65401  1.0000 -0.5423892714
O   O16       1.0  0.30960  0.71550  0.15401  1.0000 -0.5423892714
O   O17       1.0  0.49910  0.80870  0.45729  1.0000 -0.5601177563
O   O18       1.0  0.49910  0.69130  0.95729  1.0000 -0.5601177563
O   O19       1.0  0.49840  0.67650  0.44180  1.0000 -0.5423892714
O   O20       1.0  0.49840  0.82350  0.94180  1.0000 -0.5423892714
O   O21       1.0  0.29080  0.82030  0.49639  1.0000 -0.5423892714
O   O22       1.0  0.29080  0.67970  0.99639  1.0000 -0.5423892714
O   O23       1.0  0.34470  0.68720  0.49341  1.0000 -0.5601177563
O   O24       1.0  0.34470  0.81280  0.99341  1.0000 -0.5601177563
O   O25       1.0  0.13970  0.82250  0.44185  1.0000 -0.5293946386
O   O26       1.0  0.13970  0.67750  0.94185  1.0000 -0.5293946386
O   O27       1.0  0.13430  0.68810  0.45265  1.0000 -0.5601177563
O   O28       1.0  0.13430  0.81190  0.95265  1.0000 -0.5601177563
O   O29       1.0  0.34330  0.67370  0.90544  1.0000 -0.5527967682
O   O30       1.0  0.34330  0.82630  0.40544  1.0000 -0.5527967682
O   O31       1.0  0.28580  0.80720  0.90251  1.0000 -0.5423892714
O   O32       1.0  0.28580  0.69280  0.40251  1.0000 -0.5423892714
O   O33       1.0  0.50770  0.16930  0.80927  1.0000 -0.5293946386
O   O34       1.0  0.50770  0.33070  0.30927  1.0000 -0.5293946386
O   O35       1.0  0.50150  0.30270  0.79643  1.0000 -0.5601177563
O   O36       1.0  0.50150  0.19730  0.29643  1.0000 -0.5601177563
O   O37       1.0  0.64410  0.16920  0.75539  1.0000 -0.5601177563
O   O38       1.0  0.64410  0.33080  0.25539  1.0000 -0.5601177563
O   O39       1.0  0.69460  0.30290  0.75530  1.0000 -0.5293946386
O   O40       1.0  0.69460  0.19710  0.25530  1.0000 -0.5293946386
O   O41       1.0  0.87390  0.30070  0.80284  1.0000 -0.5423892714
O   O42       1.0  0.87390  0.19930  0.30284  1.0000 -0.5423892714
O   O43       1.0  0.85600  0.16660  0.79396  1.0000 -0.5423892714
O   O44       1.0  0.85600  0.33340  0.29396  1.0000 -0.5423892714
O   O45       1.0  0.71980  0.14880  0.84705  1.0000 -0.5423892714
O   O46       1.0  0.71980  0.35120  0.34705  1.0000 -0.5423892714
O   O47       1.0  0.69040  0.28450  0.84599  1.0000 -0.5423892714
O   O48       1.0  0.69040  0.21550  0.34599  1.0000 -0.5423892714
O   O49       1.0  0.50090  0.30870  0.04271  1.0000 -0.5601177563
O   O50       1.0  0.50090  0.19130  0.54271  1.0000 -0.5601177563
O   O51       1.0  0.50160  0.17650  0.05820  1.0000 -0.5423892714
O   O52       1.0  0.50160  0.32350  0.55820  1.0000 -0.5423892714
O   O53       1.0  0.70920  0.32030  0.00361  1.0000 -0.5423892714
O   O54       1.0  0.70920  0.17970  0.50361  1.0000 -0.5423892714
O   O55       1.0  0.65530  0.18720  0.00659  1.0000 -0.5601177563
O   O56       1.0  0.65530  0.31280  0.50659  1.0000 -0.5601177563
O   O57       1.0  0.86030  0.32250  0.05815  1.0000 -0.5293946386
O   O58       1.0  0.86030  0.17750  0.55815  1.0000 -0.5293946386
O   O59       1.0  0.86570  0.18810  0.04735  1.0000 -0.5601177563
O   O60       1.0  0.86570  0.31190  0.54735  1.0000 -0.5601177563
O   O61       1.0  0.65670  0.17370  0.59456  1.0000 -0.5527967682
O   O62       1.0  0.65670  0.32630  0.09456  1.0000 -0.5527967682
O   O63       1.0  0.71420  0.30720  0.59749  1.0000 -0.5423892714
O   O64       1.0  0.71420  0.19280  0.09749  1.0000 -0.5423892714
