# DDEC6 charges by PACMAN v1.1 (https://github.com/mtap-research/PACMAN-charge/)
data_0000[Nd][unc]3[ASR]1
_chemical_formula_sum              "Nd4 H12 C36 O24"
_cell_length_a       6.12
_cell_length_b       9.719
_cell_length_c       20.133
_cell_angle_alpha    90
_cell_angle_beta     90
_cell_angle_gamma    90

_symmetry_space_group_name_H-M    "P 1"
_symmetry_Int_Tables_number       1

loop_
  _symmetry_equiv_pos_as_xyz
  'x, y, z'

loop_
  _atom_site_type_symbol
  _atom_site_label
  _atom_site_symmetry_multiplicity
  _atom_site_fract_x
  _atom_site_fract_y
  _atom_site_fract_z
  _atom_site_occupancy
  _atom_site_charge
Nd  Nd1       1.0  0.71420  0.03400  0.31470  1.0000 2.0270742544
Nd  Nd2       1.0  0.78580  0.96600  0.81470  1.0000 2.0270742544
Nd  Nd3       1.0  0.28580  0.53400  0.18530  1.0000 2.0270742544
Nd  Nd4       1.0  0.21420  0.46600  0.68530  1.0000 2.0270742544
H   H1        1.0  0.67064  0.03157  0.56280  1.0000 0.1098796495
H   H2        1.0  0.08753  0.88053  0.46151  1.0000 0.0979929075
H   H3        1.0  0.93663  0.79870  0.57123  1.0000 0.0881950048
H   H4        1.0  0.82936  0.96843  0.06280  1.0000 0.1098796495
H   H5        1.0  0.41247  0.11947  0.96151  1.0000 0.0979929075
H   H6        1.0  0.56373  0.20102  0.06974  1.0000 0.0881950048
H   H7        1.0  0.32936  0.53157  0.93720  1.0000 0.1098796495
H   H8        1.0  0.91247  0.38053  0.03849  1.0000 0.0979929075
H   H9        1.0  0.06373  0.29898  0.93026  1.0000 0.0881950048
H   H10       1.0  0.17064  0.46843  0.43720  1.0000 0.1098796495
H   H11       1.0  0.58753  0.61947  0.53849  1.0000 0.0979929075
H   H12       1.0  0.43663  0.70130  0.42877  1.0000 0.0881950048
C   C1        1.0  0.21500  0.87220  0.62770  1.0000 -0.0304977482
C   C2        1.0  0.41980  0.93760  0.62620  1.0000 -0.0512782268
C   C3        1.0  0.50520  0.97790  0.56520  1.0000 -0.0818613954
C   C4        1.0  0.39340  0.95430  0.50670  1.0000 -0.0304977482
C   C5        1.0  0.18610  0.89420  0.50910  1.0000 -0.0739353331
C   C6        1.0  0.10250  0.85190  0.56910  1.0000 -0.1032169394
C   C7        1.0  0.11550  0.82670  0.69270  1.0000 0.6658987918
C   C8        1.0  0.55260  0.95730  0.68680  1.0000 0.5755074986
C   C9        1.0  0.49590  0.99350  0.44160  1.0000 0.5663816699
C   C10       1.0  0.28500  0.12780  0.12770  1.0000 -0.0304977482
C   C11       1.0  0.08020  0.06240  0.12620  1.0000 -0.0512782268
C   C12       1.0  0.99480  0.02210  0.06520  1.0000 -0.0818613954
C   C13       1.0  0.10660  0.04570  0.00670  1.0000 -0.0304977482
C   C14       1.0  0.31390  0.10580  0.00910  1.0000 -0.0739353331
C   C15       1.0  0.39750  0.14810  0.06910  1.0000 -0.1032169394
C   C16       1.0  0.38450  0.17330  0.19270  1.0000 0.6658987918
C   C17       1.0  0.94740  0.04270  0.18680  1.0000 0.5755074986
C   C18       1.0  0.00410  0.00650  0.94160  1.0000 0.5663816699
C   C19       1.0  0.78500  0.37220  0.87230  1.0000 -0.0304977482
C   C20       1.0  0.58020  0.43760  0.87380  1.0000 -0.0512782268
C   C21       1.0  0.49480  0.47790  0.93480  1.0000 -0.0818613954
C   C22       1.0  0.60660  0.45430  0.99330  1.0000 -0.0304977482
C   C23       1.0  0.81390  0.39420  0.99090  1.0000 -0.0739353331
C   C24       1.0  0.89750  0.35190  0.93090  1.0000 -0.1032169394
C   C25       1.0  0.88450  0.32670  0.80730  1.0000 0.6658987918
C   C26       1.0  0.44740  0.45730  0.81320  1.0000 0.5755074986
C   C27       1.0  0.50410  0.49350  0.05840  1.0000 0.5663816699
C   C28       1.0  0.71500  0.62780  0.37230  1.0000 -0.0304977482
C   C29       1.0  0.91980  0.56240  0.37380  1.0000 -0.0512782268
C   C30       1.0  0.00520  0.52210  0.43480  1.0000 -0.0818613954
C   C31       1.0  0.89340  0.54570  0.49330  1.0000 -0.0304977482
C   C32       1.0  0.68610  0.60580  0.49090  1.0000 -0.0818613954
C   C33       1.0  0.60250  0.64810  0.43090  1.0000 -0.1032169394
C   C34       1.0  0.61550  0.67330  0.30730  1.0000 0.6658987918
C   C35       1.0  0.05260  0.54270  0.31320  1.0000 0.5755074986
C   C36       1.0  0.99590  0.50650  0.55840  1.0000 0.5663816699
O   O1        1.0  0.07420  0.70090  0.70070  1.0000 -0.648631566
O   O2        1.0  0.06580  0.92150  0.73240  1.0000 -0.6391290955
O   O3        1.0  0.64420  0.06990  0.69820  1.0000 -0.5816397599
O   O4        1.0  0.57130  0.85540  0.72600  1.0000 -0.6391290955
O   O5        1.0  0.69760  0.01580  0.43980  1.0000 -0.6391290955
O   O6        1.0  0.38160  0.00140  0.38990  1.0000 -0.6126083664
O   O7        1.0  0.42580  0.29910  0.20070  1.0000 -0.648631566
O   O8        1.0  0.43420  0.07850  0.23240  1.0000 -0.6339168779
O   O9        1.0  0.85580  0.93010  0.19820  1.0000 -0.5816397599
O   O10       1.0  0.92870  0.14460  0.22600  1.0000 -0.6391290955
O   O11       1.0  0.80240  0.98420  0.93980  1.0000 -0.6391290955
O   O12       1.0  0.11840  0.99860  0.88990  1.0000 -0.6126083664
O   O13       1.0  0.92580  0.20090  0.79930  1.0000 -0.648631566
O   O14       1.0  0.93420  0.42150  0.76760  1.0000 -0.6339168779
O   O15       1.0  0.35580  0.56990  0.80180  1.0000 -0.5816397599
O   O16       1.0  0.42870  0.35540  0.77400  1.0000 -0.6391290955
O   O17       1.0  0.30240  0.51580  0.06020  1.0000 -0.6391290955
O   O18       1.0  0.61840  0.50140  0.11010  1.0000 -0.6126083664
O   O19       1.0  0.57420  0.79910  0.29930  1.0000 -0.648631566
O   O20       1.0  0.56580  0.57850  0.26760  1.0000 -0.6391290955
O   O21       1.0  0.14420  0.43010  0.30180  1.0000 -0.5816397599
O   O22       1.0  0.07130  0.64460  0.27400  1.0000 -0.6391290955
O   O23       1.0  0.19760  0.48420  0.56020  1.0000 -0.6391290955
O   O24       1.0  0.88160  0.49860  0.61010  1.0000 -0.6126083664
