# DDEC6 charges by PACMAN v1.1 (https://github.com/mtap-research/PACMAN-charge/)
data_0000[Ho][nan]3[ASR]2
_chemical_formula_sum              "Ho6 H28 C72 N12 O32"
_cell_length_a       13.3044
_cell_length_b       13.3044
_cell_length_c       17.0726
_cell_angle_alpha    77.7735
_cell_angle_beta     102.226
_cell_angle_gamma    74.4413

_symmetry_space_group_name_H-M    "P 1"
_symmetry_Int_Tables_number       1

loop_
  _symmetry_equiv_pos_as_xyz
  'x, y, z'

loop_
  _atom_site_type_symbol
  _atom_site_label
  _atom_site_symmetry_multiplicity
  _atom_site_fract_x
  _atom_site_fract_y
  _atom_site_fract_z
  _atom_site_occupancy
  _atom_site_charge
Ho  Ho1       1.0  0.49960  0.12798  0.40775  1.0000 2.0412001184
Ho  Ho2       1.0  0.12798  0.49960  0.59225  1.0000 2.0412001184
Ho  Ho3       1.0  0.50040  0.87202  0.59225  1.0000 2.0412001184
Ho  Ho4       1.0  0.87202  0.50040  0.40775  1.0000 2.0412001184
Ho  Ho5       1.0  0.62371  0.37629  0.18258  1.0000 2.1019117407
Ho  Ho6       1.0  0.37629  0.62371  0.81742  1.0000 2.1019117407
H   H1        1.0  0.12230  0.57310  0.02930  1.0000 0.2814010851
H   H2        1.0  0.33050  0.39290  0.40280  1.0000 0.1288320248
H   H3        1.0  0.02410  0.56910  0.26880  1.0000 0.1288320248
H   H4        1.0  0.25260  0.49460  0.15160  1.0000 0.1112903676
H   H5        1.0  0.89860  0.73860  0.66350  1.0000 0.1288320248
H   H6        1.0  0.78810  0.76970  0.86290  1.0000 0.1288320248
H   H7        1.0  0.10340  0.62140  0.89640  1.0000 0.1029555745
H   H8        1.0  0.57310  0.12230  0.97070  1.0000 0.2814010851
H   H9        1.0  0.39290  0.33050  0.59720  1.0000 0.1288320248
H   H10       1.0  0.56910  0.02410  0.73120  1.0000 0.1288320248
H   H11       1.0  0.49460  0.25260  0.84840  1.0000 0.1112903676
H   H12       1.0  0.73860  0.89860  0.33650  1.0000 0.1288320248
H   H13       1.0  0.76970  0.78810  0.13710  1.0000 0.1288320248
H   H14       1.0  0.62140  0.10340  0.10360  1.0000 0.1029555745
H   H15       1.0  0.87770  0.42690  0.97070  1.0000 0.2814010851
H   H16       1.0  0.66950  0.60710  0.59720  1.0000 0.1288320248
H   H17       1.0  0.97590  0.43090  0.73120  1.0000 0.1288320248
H   H18       1.0  0.74740  0.50540  0.84840  1.0000 0.1112903676
H   H19       1.0  0.10140  0.26140  0.33650  1.0000 0.1288320248
H   H20       1.0  0.21190  0.23030  0.13710  1.0000 0.1288320248
H   H21       1.0  0.89660  0.37860  0.10360  1.0000 0.1029555745
H   H22       1.0  0.42690  0.87770  0.02930  1.0000 0.2814010851
H   H23       1.0  0.60710  0.66950  0.40280  1.0000 0.1288320248
H   H24       1.0  0.43090  0.97590  0.26880  1.0000 0.1288320248
H   H25       1.0  0.50540  0.74740  0.15160  1.0000 0.1112903676
H   H26       1.0  0.26140  0.10140  0.66350  1.0000 0.1288320248
H   H27       1.0  0.23030  0.21190  0.86290  1.0000 0.1288320248
H   H28       1.0  0.37860  0.89660  0.89640  1.0000 0.1029555745
C   C1        1.0  0.30900  0.43200  0.27640  1.0000 -0.0325963436
C   C2        1.0  0.27880  0.42880  0.35130  1.0000 -0.102862788
C   C3        1.0  0.17230  0.47930  0.34710  1.0000 -0.0406447823
C   C4        1.0  0.09560  0.53440  0.27070  1.0000 -0.113493716
C   C5        1.0  0.12410  0.53830  0.19700  1.0000 0.0022706575
C   C6        1.0  0.23210  0.48890  0.20070  1.0000 -0.153430266
C   C7        1.0  0.04290  0.59770  0.11400  1.0000 0.2400049142
C   C8        1.0  0.96910  0.66250  0.98600  1.0000 0.2566117517
C   C9        1.0  0.01520  0.67340  0.77400  1.0000 -0.0325963436
C   C10       1.0  0.91070  0.72570  0.72100  1.0000 -0.113493716
C   C11       1.0  0.82420  0.75900  0.75310  1.0000 -0.0207079282
C   C12       1.0  0.84470  0.74330  0.84100  1.0000 -0.1223594524
C   C13       1.0  0.94670  0.68990  0.89260  1.0000 0.0022706575
C   C14       1.0  0.03330  0.65590  0.86050  1.0000 -0.1856897601
C   C15       1.0  0.42520  0.37740  0.28070  1.0000 0.6538848452
C   C16       1.0  0.14510  0.47950  0.42680  1.0000 0.6190214924
C   C17       1.0  0.10790  0.63190  0.73950  1.0000 0.6670739822
C   C18       1.0  0.71120  0.81360  0.69720  1.0000 0.5433492235
C   C19       1.0  0.43200  0.30900  0.72360  1.0000 -0.0325963436
C   C20       1.0  0.42880  0.27880  0.64870  1.0000 -0.102862788
C   C21       1.0  0.47930  0.17230  0.65290  1.0000 -0.0406447823
C   C22       1.0  0.53440  0.09560  0.72930  1.0000 -0.113493716
C   C23       1.0  0.53830  0.12410  0.80300  1.0000 0.0022706575
C   C24       1.0  0.48890  0.23210  0.79930  1.0000 -0.153430266
C   C25       1.0  0.59770  0.04290  0.88600  1.0000 0.2400049142
C   C26       1.0  0.66250  0.96910  0.01400  1.0000 0.2566117517
C   C27       1.0  0.67340  0.01520  0.22600  1.0000 -0.0325963436
C   C28       1.0  0.72570  0.91070  0.27900  1.0000 -0.113493716
C   C29       1.0  0.75900  0.82420  0.24690  1.0000 -0.0207079282
C   C30       1.0  0.74330  0.84470  0.15900  1.0000 -0.1223594524
C   C31       1.0  0.68990  0.94670  0.10740  1.0000 0.0022706575
C   C32       1.0  0.65590  0.03330  0.13950  1.0000 -0.1856897601
C   C33       1.0  0.37740  0.42520  0.71930  1.0000 0.6538848452
C   C34       1.0  0.47950  0.14510  0.57320  1.0000 0.6190214924
C   C35       1.0  0.63190  0.10790  0.26050  1.0000 0.6670739822
C   C36       1.0  0.81360  0.71120  0.30280  1.0000 0.5433492235
C   C37       1.0  0.69100  0.56800  0.72360  1.0000 -0.0325963436
C   C38       1.0  0.72120  0.57120  0.64870  1.0000 -0.102862788
C   C39       1.0  0.82770  0.52070  0.65290  1.0000 -0.0406447823
C   C40       1.0  0.90440  0.46560  0.72930  1.0000 -0.113493716
C   C41       1.0  0.87590  0.46170  0.80300  1.0000 0.0022706575
C   C42       1.0  0.76790  0.51110  0.79930  1.0000 -0.153430266
C   C43       1.0  0.95710  0.40230  0.88600  1.0000 0.2400049142
C   C44       1.0  0.03090  0.33750  0.01400  1.0000 0.2566117517
C   C45       1.0  0.98480  0.32660  0.22600  1.0000 -0.0325963436
C   C46       1.0  0.08930  0.27430  0.27900  1.0000 -0.113493716
C   C47       1.0  0.17580  0.24100  0.24690  1.0000 -0.0207079282
C   C48       1.0  0.15530  0.25670  0.15900  1.0000 -0.1223594524
C   C49       1.0  0.05330  0.31010  0.10740  1.0000 0.0022706575
C   C50       1.0  0.96670  0.34410  0.13950  1.0000 -0.1856897601
C   C51       1.0  0.57480  0.62260  0.71930  1.0000 0.6538848452
C   C52       1.0  0.85490  0.52050  0.57320  1.0000 0.6190214924
C   C53       1.0  0.89210  0.36810  0.26050  1.0000 0.6670739822
C   C54       1.0  0.28880  0.18640  0.30280  1.0000 0.5433492235
C   C55       1.0  0.56800  0.69100  0.27640  1.0000 -0.0325963436
C   C56       1.0  0.57120  0.72120  0.35130  1.0000 -0.102862788
C   C57       1.0  0.52070  0.82770  0.34710  1.0000 -0.0406447823
C   C58       1.0  0.46560  0.90440  0.27070  1.0000 -0.113493716
C   C59       1.0  0.46170  0.87590  0.19700  1.0000 0.0022706575
C   C60       1.0  0.51110  0.76790  0.20070  1.0000 -0.153430266
C   C61       1.0  0.40230  0.95710  0.11400  1.0000 0.2400049142
C   C62       1.0  0.33750  0.03090  0.98600  1.0000 0.2566117517
C   C63       1.0  0.32660  0.98480  0.77400  1.0000 -0.0325963436
C   C64       1.0  0.27430  0.08930  0.72100  1.0000 -0.113493716
C   C65       1.0  0.24100  0.17580  0.75310  1.0000 -0.0207079282
C   C66       1.0  0.25670  0.15530  0.84100  1.0000 -0.1223594524
C   C67       1.0  0.31010  0.05330  0.89260  1.0000 0.0022706575
C   C68       1.0  0.34410  0.96670  0.86050  1.0000 -0.1856897601
C   C69       1.0  0.62260  0.57480  0.28070  1.0000 0.6538848452
C   C70       1.0  0.52050  0.85490  0.42680  1.0000 0.6190214924
C   C71       1.0  0.36810  0.89210  0.73950  1.0000 0.6670739822
C   C72       1.0  0.18640  0.28880  0.69720  1.0000 0.5433492235
N   N1        1.0  0.94990  0.66270  0.10760  1.0000 -0.2341522999
N   N2        1.0  0.89830  0.68390  0.02350  1.0000 -0.2498972841
N   N3        1.0  0.06230  0.60270  0.03930  1.0000 -0.2754523136
N   N4        1.0  0.66270  0.94990  0.89240  1.0000 -0.2341522999
N   N5        1.0  0.68390  0.89830  0.97650  1.0000 -0.2498972841
N   N6        1.0  0.60270  0.06230  0.96070  1.0000 -0.2754523136
N   N7        1.0  0.05010  0.33730  0.89240  1.0000 -0.2341522999
N   N8        1.0  0.10170  0.31610  0.97650  1.0000 -0.2498972841
N   N9        1.0  0.93770  0.39730  0.96070  1.0000 -0.2754523136
N   N10       1.0  0.33730  0.05010  0.10760  1.0000 -0.2341522999
N   N11       1.0  0.31610  0.10170  0.02350  1.0000 -0.2498972841
N   N12       1.0  0.39730  0.93770  0.03930  1.0000 -0.2754523136
O   O1        1.0  0.45900  0.41140  0.22080  1.0000 -0.6620220371
O   O2        1.0  0.48630  0.30310  0.34800  1.0000 -0.7011385389
O   O3        1.0  0.22070  0.46270  0.49130  1.0000 -0.6168889829
O   O4        1.0  0.04870  0.49970  0.43210  1.0000 -0.75897078
O   O5        1.0  0.20150  0.62210  0.78100  1.0000 -0.7381842561
O   O6        1.0  0.08590  0.61190  0.67170  1.0000 -0.6620220371
O   O7        1.0  0.69210  0.82870  0.61780  1.0000 -0.6620220371
O   O8        1.0  0.63280  0.83340  0.72640  1.0000 -0.6089929767
O   O9        1.0  0.41140  0.45900  0.77920  1.0000 -0.6620220371
O   O10       1.0  0.30310  0.48630  0.65200  1.0000 -0.7011385389
O   O11       1.0  0.46270  0.22070  0.50870  1.0000 -0.6168889829
O   O12       1.0  0.49970  0.04870  0.56790  1.0000 -0.75897078
O   O13       1.0  0.62210  0.20150  0.21900  1.0000 -0.7381842561
O   O14       1.0  0.61190  0.08590  0.32830  1.0000 -0.6620220371
O   O15       1.0  0.82870  0.69210  0.38220  1.0000 -0.6620220371
O   O16       1.0  0.83340  0.63280  0.27360  1.0000 -0.6089929767
O   O17       1.0  0.54100  0.58860  0.77920  1.0000 -0.6620220371
O   O18       1.0  0.51370  0.69690  0.65200  1.0000 -0.7011385389
O   O19       1.0  0.77930  0.53730  0.50870  1.0000 -0.6168889829
O   O20       1.0  0.95130  0.50030  0.56790  1.0000 -0.75897078
O   O21       1.0  0.79850  0.37790  0.21900  1.0000 -0.7381842561
O   O22       1.0  0.91410  0.38810  0.32830  1.0000 -0.6620220371
O   O23       1.0  0.30790  0.17130  0.38220  1.0000 -0.6620220371
O   O24       1.0  0.36720  0.16660  0.27360  1.0000 -0.6089929767
O   O25       1.0  0.58860  0.54100  0.22080  1.0000 -0.6620220371
O   O26       1.0  0.69690  0.51370  0.34800  1.0000 -0.7011385389
O   O27       1.0  0.53730  0.77930  0.49130  1.0000 -0.6168889829
O   O28       1.0  0.50030  0.95130  0.43210  1.0000 -0.75897078
O   O29       1.0  0.37790  0.79850  0.78100  1.0000 -0.7381842561
O   O30       1.0  0.38810  0.91410  0.67170  1.0000 -0.6620220371
O   O31       1.0  0.17130  0.30790  0.61780  1.0000 -0.6620220371
O   O32       1.0  0.16660  0.36720  0.72640  1.0000 -0.6089929767
