# DDEC6 charges by PACMAN v1.1 (https://github.com/mtap-research/PACMAN-charge/)
data_0000[Co][sql]2[ASR]3
_chemical_formula_sum              "Co2 H34 C48 N10 O8"
_cell_length_a       11.435
_cell_length_b       11.435
_cell_length_c       15.257
_cell_angle_alpha    82.1356
_cell_angle_beta     97.8644
_cell_angle_gamma    52.5273

_symmetry_space_group_name_H-M    "P 1"
_symmetry_Int_Tables_number       1

loop_
  _symmetry_equiv_pos_as_xyz
  'x, y, z'

loop_
  _atom_site_type_symbol
  _atom_site_label
  _atom_site_symmetry_multiplicity
  _atom_site_fract_x
  _atom_site_fract_y
  _atom_site_fract_z
  _atom_site_occupancy
  _atom_site_charge
Co  Co1       1.0  0.02277  0.02277  0.75000  1.0000 0.7793405294
Co  Co2       1.0  0.97723  0.97723  0.25000  1.0000 0.7793405294
H   H1        1.0  0.71800  0.85220  0.75550  1.0000 0.2538591712
H   H2        1.0  0.88160  0.48560  0.74790  1.0000 0.1206535488
H   H3        1.0  0.06080  0.76520  0.67430  1.0000 0.1206535488
H   H4        1.0  0.77730  0.20190  0.54160  1.0000 0.1355598434
H   H5        1.0  0.75100  0.06820  0.43900  1.0000 0.13105974
H   H6        1.0  0.02830  0.60150  0.64060  1.0000 0.1206535488
H   H7        1.0  0.11590  0.33550  0.67360  1.0000 0.1206535488
H   H8        1.0  0.85150  0.85810  0.37740  1.0000 0.1355598434
H   H9        1.0  0.85220  0.71800  0.74450  1.0000 0.2538591712
H   H10       1.0  0.48560  0.88160  0.75210  1.0000 0.1206535488
H   H11       1.0  0.76520  0.06080  0.82570  1.0000 0.1206535488
H   H12       1.0  0.20190  0.77730  0.95840  1.0000 0.1355598434
H   H13       1.0  0.06820  0.75100  0.06100  1.0000 0.13105974
H   H14       1.0  0.60150  0.02830  0.85940  1.0000 0.1206535488
H   H15       1.0  0.33550  0.11590  0.82640  1.0000 0.1206535488
H   H16       1.0  0.85810  0.85150  0.12260  1.0000 0.1355598434
H   H17       1.0  0.28200  0.14780  0.24450  1.0000 0.2538591712
H   H18       1.0  0.11840  0.51440  0.25210  1.0000 0.1206535488
H   H19       1.0  0.93920  0.23480  0.32570  1.0000 0.1206535488
H   H20       1.0  0.22270  0.79810  0.45840  1.0000 0.1355598434
H   H21       1.0  0.24900  0.93180  0.56100  1.0000 0.13105974
H   H22       1.0  0.97170  0.39850  0.35940  1.0000 0.1206535488
H   H23       1.0  0.88410  0.66450  0.32640  1.0000 0.1206535488
H   H24       1.0  0.14850  0.14190  0.62260  1.0000 0.1355598434
H   H25       1.0  0.14780  0.28200  0.25550  1.0000 0.2538591712
H   H26       1.0  0.51440  0.11840  0.24790  1.0000 0.1206535488
H   H27       1.0  0.23480  0.93920  0.17430  1.0000 0.1206535488
H   H28       1.0  0.79810  0.22270  0.04160  1.0000 0.1355598434
H   H29       1.0  0.93180  0.24900  0.93900  1.0000 0.13105974
H   H30       1.0  0.39850  0.97170  0.14060  1.0000 0.1206535488
H   H31       1.0  0.66450  0.88410  0.17360  1.0000 0.1206535488
H   H32       1.0  0.14190  0.14850  0.87740  1.0000 0.1355598434
H   H33       1.0  0.51430  0.51430  0.75000  1.0000 0.13105974
H   H34       1.0  0.48570  0.48570  0.25000  1.0000 0.13105974
C   C1        1.0  0.79474  0.31654  0.73728  1.0000 0.5325819492
C   C2        1.0  0.71027  0.47673  0.74613  1.0000 0.0019187944
C   C3        1.0  0.77941  0.54321  0.74799  1.0000 -0.2319414229
C   C4        1.0  0.98692  0.85752  0.62871  1.0000 0.0926213651
C   C5        1.0  0.83162  0.09662  0.55548  1.0000 -0.025334014
C   C6        1.0  0.81585  0.02365  0.49854  1.0000 -0.0857446421
C   C7        1.0  0.93684  0.74684  0.51515  1.0000 0.1737674564
C   C8        1.0  0.99995  0.61275  0.57800  1.0000 -0.2521882974
C   C9        1.0  0.02234  0.49074  0.54777  1.0000 0.0926213651
C   C10       1.0  0.08669  0.34929  0.61062  1.0000 -0.1213619266
C   C11       1.0  0.89358  0.76618  0.41957  1.0000 -0.1653918796
C   C12       1.0  0.31654  0.79474  0.76272  1.0000 0.5325819492
C   C13       1.0  0.47673  0.71027  0.75387  1.0000 0.0019187944
C   C14       1.0  0.54321  0.77941  0.75201  1.0000 -0.2319414229
C   C15       1.0  0.85752  0.98692  0.87129  1.0000 0.0926213651
C   C16       1.0  0.09662  0.83162  0.94452  1.0000 -0.025334014
C   C17       1.0  0.02365  0.81585  0.00146  1.0000 -0.0857446421
C   C18       1.0  0.74684  0.93684  0.98485  1.0000 0.1737674564
C   C19       1.0  0.61275  0.99995  0.92200  1.0000 -0.2521882974
C   C20       1.0  0.49074  0.02234  0.95223  1.0000 0.0926213651
C   C21       1.0  0.34929  0.08669  0.88938  1.0000 -0.1213619266
C   C22       1.0  0.76618  0.89358  0.08043  1.0000 -0.1653918796
C   C23       1.0  0.20526  0.68346  0.26272  1.0000 0.5325819492
C   C24       1.0  0.28973  0.52327  0.25387  1.0000 0.0019187944
C   C25       1.0  0.22059  0.45679  0.25201  1.0000 -0.2319414229
C   C26       1.0  0.01308  0.14248  0.37129  1.0000 0.0926213651
C   C27       1.0  0.16838  0.90338  0.44452  1.0000 -0.025334014
C   C28       1.0  0.18415  0.97635  0.50146  1.0000 -0.0857446421
C   C29       1.0  0.06316  0.25316  0.48485  1.0000 0.1737674564
C   C30       1.0  0.00005  0.38725  0.42200  1.0000 -0.2521882974
C   C31       1.0  0.97766  0.50926  0.45223  1.0000 0.0926213651
C   C32       1.0  0.91331  0.65071  0.38938  1.0000 -0.1213619266
C   C33       1.0  0.10642  0.23382  0.58043  1.0000 -0.1653918796
C   C34       1.0  0.68346  0.20526  0.23728  1.0000 0.5325819492
C   C35       1.0  0.52327  0.28973  0.24613  1.0000 0.0019187944
C   C36       1.0  0.45679  0.22059  0.24799  1.0000 -0.2319414229
C   C37       1.0  0.14248  0.01308  0.12871  1.0000 0.0926213651
C   C38       1.0  0.90338  0.16838  0.05548  1.0000 -0.025334014
C   C39       1.0  0.97635  0.18415  0.99854  1.0000 -0.0857446421
C   C40       1.0  0.25316  0.06316  0.01515  1.0000 0.1737674564
C   C41       1.0  0.38725  0.00005  0.07800  1.0000 -0.2521882974
C   C42       1.0  0.50926  0.97766  0.04777  1.0000 0.0926213651
C   C43       1.0  0.65071  0.91331  0.11062  1.0000 -0.1213619266
C   C44       1.0  0.23382  0.10642  0.91957  1.0000 -0.1653918796
C   C45       1.0  0.69647  0.69647  0.75000  1.0000 0.2955809772
C   C46       1.0  0.55969  0.55969  0.75000  1.0000 -0.1562956632
C   C47       1.0  0.30353  0.30353  0.25000  1.0000 0.2955809772
C   C48       1.0  0.44031  0.44031  0.25000  1.0000 -0.1562956632
N   N1        1.0  0.93999  0.99151  0.63694  1.0000 -0.2955929995
N   N2        1.0  0.91447  0.87067  0.54575  1.0000 0.0019187944
N   N3        1.0  0.99151  0.93999  0.86306  1.0000 -0.2955929995
N   N4        1.0  0.87067  0.91447  0.95425  1.0000 0.0019187944
N   N5        1.0  0.06001  0.00849  0.36306  1.0000 -0.2955929995
N   N6        1.0  0.08553  0.12933  0.45425  1.0000 0.0019187944
N   N7        1.0  0.00849  0.06001  0.13694  1.0000 -0.2955929995
N   N8        1.0  0.12933  0.08553  0.04575  1.0000 0.0019187944
N   N9        1.0  0.76283  0.76283  0.75000  1.0000 -0.5765512944
N   N10       1.0  0.23717  0.23717  0.25000  1.0000 -0.5765512944
O   O1        1.0  0.94032  0.23414  0.74830  1.0000 -0.5535737634
O   O2        1.0  0.72627  0.26777  0.72090  1.0000 -0.5395207167
O   O3        1.0  0.23414  0.94032  0.75170  1.0000 -0.5535737634
O   O4        1.0  0.26777  0.72627  0.77910  1.0000 -0.5395207167
O   O5        1.0  0.05968  0.76586  0.25170  1.0000 -0.5535737634
O   O6        1.0  0.27373  0.73223  0.27910  1.0000 -0.5395207167
O   O7        1.0  0.76586  0.05968  0.24830  1.0000 -0.5535737634
O   O8        1.0  0.73223  0.27373  0.22090  1.0000 -0.5395207167
