# DDEC6 charges by PACMAN v1.1 (https://github.com/mtap-research/PACMAN-charge/)
data_0000[Tb][flu]3[ASR]1
_chemical_formula_sum              "Tb2 H14 C26 N4 O12"
_cell_length_a       9.0808
_cell_length_b       9.641
_cell_length_c       11.6416
_cell_angle_alpha    108.051
_cell_angle_beta     94.17
_cell_angle_gamma    108.174

_symmetry_space_group_name_H-M    "P 1"
_symmetry_Int_Tables_number       1

loop_
  _symmetry_equiv_pos_as_xyz
  'x, y, z'

loop_
  _atom_site_type_symbol
  _atom_site_label
  _atom_site_symmetry_multiplicity
  _atom_site_fract_x
  _atom_site_fract_y
  _atom_site_fract_z
  _atom_site_occupancy
  _atom_site_charge
Tb  Tb1       1.0  0.27890  0.02876  0.99152  1.0000 2.0616151998
Tb  Tb2       1.0  0.72110  0.97124  0.00848  1.0000 2.0616151998
H   H1        1.0  0.36700  0.45800  0.02600  1.0000 0.1584711644
H   H2        1.0  0.63300  0.54200  0.97400  1.0000 0.1584711644
H   H3        1.0  0.27700  0.65300  0.56800  1.0000 0.1012651446
H   H4        1.0  0.72300  0.34700  0.43200  1.0000 0.1012651446
H   H5        1.0  0.88400  0.47500  0.19100  1.0000 0.1390076588
H   H6        1.0  0.11600  0.52500  0.80900  1.0000 0.1390076588
H   H7        1.0  0.19500  0.56300  0.36900  1.0000 0.115243177
H   H8        1.0  0.80500  0.43700  0.63100  1.0000 0.115243177
H   H9        1.0  0.92300  0.89500  0.56400  1.0000 0.1100206236
H   H10       1.0  0.07700  0.10500  0.43600  1.0000 0.1100206236
H   H11       1.0  0.87500  0.76300  0.34700  1.0000 0.1281930442
H   H12       1.0  0.12500  0.23700  0.65300  1.0000 0.1281930442
H   H13       1.0  0.91300  0.64300  0.17900  1.0000 0.115243177
H   H14       1.0  0.08700  0.35700  0.82100  1.0000 0.115243177
C   C1        1.0  0.95640  0.56350  0.21020  1.0000 -0.1529120495
C   C2        1.0  0.04360  0.43650  0.78980  1.0000 -0.1529120495
C   C3        1.0  0.05510  0.26940  0.07370  1.0000 0.642524005
C   C4        1.0  0.94490  0.73060  0.92630  1.0000 0.642524005
C   C5        1.0  0.28810  0.50410  0.07060  1.0000 -0.2403977131
C   C6        1.0  0.71190  0.49590  0.92940  1.0000 -0.2403977131
C   C7        1.0  0.44460  0.77910  0.07500  1.0000 0.6178011606
C   C8        1.0  0.55540  0.22090  0.92500  1.0000 0.6178011606
C   C9        1.0  0.18450  0.89430  0.73390  1.0000 0.5788625191
C   C10       1.0  0.81550  0.10570  0.26610  1.0000 0.5788625191
C   C11       1.0  0.31320  0.65910  0.09850  1.0000 0.0498399447
C   C12       1.0  0.68680  0.34090  0.90150  1.0000 0.0498399447
C   C13       1.0  0.12120  0.80440  0.59790  1.0000 -0.0423710857
C   C14       1.0  0.87880  0.19560  0.40210  1.0000 -0.0423710857
C   C15       1.0  0.14540  0.44040  0.10050  1.0000 -0.0102385011
C   C16       1.0  0.85460  0.55960  0.89950  1.0000 -0.0102385011
C   C17       1.0  0.01510  0.64810  0.34750  1.0000 0.1100206236
C   C18       1.0  0.98490  0.35190  0.65250  1.0000 0.1100206236
C   C19       1.0  0.12680  0.61220  0.41140  1.0000 -0.1587090259
C   C20       1.0  0.87320  0.38780  0.58860  1.0000 -0.1587090259
C   C21       1.0  0.18070  0.69120  0.53460  1.0000 -0.0606758324
C   C22       1.0  0.81930  0.30880  0.46540  1.0000 -0.0606758324
C   C23       1.0  0.00710  0.83430  0.53610  1.0000 -0.0763915171
C   C24       1.0  0.99290  0.16570  0.46390  1.0000 -0.0763915171
C   C25       1.0  0.95600  0.75910  0.41060  1.0000 -0.1772385974
C   C26       1.0  0.04400  0.24090  0.58940  1.0000 -0.1772385974
N   N1        1.0  0.19190  0.69520  0.14630  1.0000 -0.2523017813
N   N2        1.0  0.80810  0.30480  0.85370  1.0000 -0.2523017813
N   N3        1.0  0.08990  0.55870  0.14570  1.0000 0.1584711644
N   N4        1.0  0.91010  0.44130  0.85430  1.0000 0.1584711644
O   O1        1.0  0.42250  0.89070  0.05070  1.0000 -0.7246882905
O   O2        1.0  0.57750  0.10930  0.94930  1.0000 -0.7246882905
O   O3        1.0  0.30120  0.88090  0.78710  1.0000 -0.6100470413
O   O4        1.0  0.69880  0.11910  0.21290  1.0000 -0.6100470413
O   O5        1.0  0.91140  0.22560  0.07580  1.0000 -0.6409489204
O   O6        1.0  0.08860  0.77440  0.92420  1.0000 -0.6409489204
O   O7        1.0  0.57600  0.76070  0.07790  1.0000 -0.6100470413
O   O8        1.0  0.42400  0.23930  0.92210  1.0000 -0.6100470413
O   O9        1.0  0.11680  0.98390  0.79440  1.0000 -0.6274335374
O   O10       1.0  0.88320  0.01610  0.20560  1.0000 -0.6274335374
O   O11       1.0  0.13580  0.18370  0.04680  1.0000 -0.7021776726
O   O12       1.0  0.86420  0.81630  0.95320  1.0000 -0.7021776726
