# DDEC6 charges by PACMAN v1.1 (https://github.com/mtap-research/PACMAN-charge/)
data_0000[Tb][nan]3[ASR]2
_chemical_formula_sum              "Tb2 H24 C54 O12"
_cell_length_a       9.8294
_cell_length_b       12.1098
_cell_length_c       14.6279
_cell_angle_alpha    109.75
_cell_angle_beta     103.613
_cell_angle_gamma    100.14

_symmetry_space_group_name_H-M    "P 1"
_symmetry_Int_Tables_number       1

loop_
  _symmetry_equiv_pos_as_xyz
  'x, y, z'

loop_
  _atom_site_type_symbol
  _atom_site_label
  _atom_site_symmetry_multiplicity
  _atom_site_fract_x
  _atom_site_fract_y
  _atom_site_fract_z
  _atom_site_occupancy
  _atom_site_charge
Tb  Tb1       1.0  0.76030  0.02126  0.99531  1.0000 2.1210549563
Tb  Tb2       1.0  0.23970  0.97874  0.00469  1.0000 2.1210549563
H   H1        1.0  0.43480  0.12800  0.28020  1.0000 0.1287335942
H   H2        1.0  0.56520  0.87200  0.71980  1.0000 0.1287335942
H   H3        1.0  0.79610  0.36020  0.29080  1.0000 0.1287335942
H   H4        1.0  0.20390  0.63980  0.70920  1.0000 0.1287335942
H   H5        1.0  0.91570  0.56030  0.44220  1.0000 0.1197083085
H   H6        1.0  0.08430  0.43970  0.55780  1.0000 0.1197083085
H   H7        1.0  0.93740  0.68420  0.60450  1.0000 0.1197083085
H   H8        1.0  0.06260  0.31580  0.39550  1.0000 0.1197083085
H   H9        1.0  0.84230  0.73400  0.75400  1.0000 0.1197083085
H   H10       1.0  0.15770  0.26600  0.24600  1.0000 0.1197083085
H   H11       1.0  0.49330  0.49420  0.74830  1.0000 0.1197083085
H   H12       1.0  0.50670  0.50580  0.25170  1.0000 0.1197083085
H   H13       1.0  0.37190  0.29610  0.59610  1.0000 0.1197083085
H   H14       1.0  0.62810  0.70390  0.40390  1.0000 0.1197083085
H   H15       1.0  0.35330  0.16900  0.43510  1.0000 0.1119353749
H   H16       1.0  0.64670  0.83100  0.56490  1.0000 0.1119353749
H   H17       1.0  0.87370  0.07490  0.26200  1.0000 0.1197083085
H   H18       1.0  0.12630  0.92510  0.73800  1.0000 0.1197083085
H   H19       1.0  0.20910  0.92670  0.30330  1.0000 0.1287335942
H   H20       1.0  0.79090  0.07330  0.69670  1.0000 0.1287335942
H   H21       1.0  0.75470  0.13400  0.39730  1.0000 0.1119353749
H   H22       1.0  0.24530  0.86600  0.60270  1.0000 0.1119353749
H   H23       1.0  0.28520  0.87680  0.45780  1.0000 0.1197083085
H   H24       1.0  0.71480  0.12320  0.54220  1.0000 0.1197083085
C   C1        1.0  0.51330  0.20050  0.31680  1.0000 -0.1701734871
C   C2        1.0  0.48670  0.79950  0.68320  1.0000 -0.1701734871
C   C3        1.0  0.61380  0.23230  0.27030  1.0000 -0.0191501982
C   C4        1.0  0.38620  0.76770  0.72970  1.0000 -0.0191501982
C   C5        1.0  0.72690  0.34040  0.32260  1.0000 -0.1605321974
C   C6        1.0  0.27310  0.65960  0.67740  1.0000 -0.1605321974
C   C7        1.0  0.85010  0.53570  0.47470  1.0000 -0.141114796
C   C8        1.0  0.14990  0.46430  0.52530  1.0000 -0.141114796
C   C9        1.0  0.86160  0.60970  0.57040  1.0000 -0.141114796
C   C10       1.0  0.13840  0.39030  0.42960  1.0000 -0.141114796
C   C11       1.0  0.76910  0.65790  0.71960  1.0000 -0.1496707584
C   C12       1.0  0.23090  0.34210  0.28040  1.0000 -0.1496707584
C   C13       1.0  0.67050  0.62630  0.76630  1.0000 -0.011258324
C   C14       1.0  0.32950  0.37370  0.23370  1.0000 -0.011258324
C   C15       1.0  0.56120  0.51490  0.71600  1.0000 -0.1701734871
C   C16       1.0  0.43880  0.48510  0.28400  1.0000 -0.1701734871
C   C17       1.0  0.43930  0.31920  0.56430  1.0000 -0.141114796
C   C18       1.0  0.56070  0.68080  0.43570  1.0000 -0.141114796
C   C19       1.0  0.42820  0.24410  0.46900  1.0000 -0.141114796
C   C20       1.0  0.57180  0.75590  0.53100  1.0000 -0.141114796
C   C21       1.0  0.52790  0.27560  0.41750  1.0000 0.0729974463
C   C22       1.0  0.47210  0.72440  0.58250  1.0000 0.0729974463
C   C23       1.0  0.64060  0.38720  0.46970  1.0000 -0.0191501982
C   C24       1.0  0.35940  0.61280  0.53030  1.0000 -0.0191501982
C   C25       1.0  0.73980  0.41970  0.42060  1.0000 0.0729974463
C   C26       1.0  0.26020  0.58030  0.57940  1.0000 0.0729974463
C   C27       1.0  0.76270  0.57950  0.62240  1.0000 0.0729974463
C   C28       1.0  0.23730  0.42050  0.37760  1.0000 0.0729974463
C   C29       1.0  0.65230  0.46530  0.57060  1.0000 -0.011258324
C   C30       1.0  0.34770  0.53470  0.42940  1.0000 -0.011258324
C   C31       1.0  0.55110  0.43350  0.61850  1.0000 0.0729974463
C   C32       1.0  0.44890  0.56650  0.38150  1.0000 0.0729974463
C   C33       1.0  0.60070  0.14640  0.16460  1.0000 0.6582723349
C   C34       1.0  0.39930  0.85360  0.83540  1.0000 0.6582723349
C   C35       1.0  0.67200  0.71350  0.86970  1.0000 0.5913147419
C   C36       1.0  0.32800  0.28650  0.13030  1.0000 0.5913147419
C   C37       1.0  0.04380  0.00050  0.26800  1.0000 -0.0191501982
C   C38       1.0  0.95620  0.99950  0.73200  1.0000 -0.0191501982
C   C39       1.0  0.93610  0.04520  0.30210  1.0000 -0.1605321974
C   C40       1.0  0.06390  0.95480  0.69790  1.0000 -0.1605321974
C   C41       1.0  0.91820  0.04710  0.39420  1.0000 0.0768445037
C   C42       1.0  0.08180  0.95290  0.60580  1.0000 0.0768445037
C   C43       1.0  0.00920  0.00040  0.45270  1.0000 -0.011258324
C   C44       1.0  0.99080  0.99960  0.54730  1.0000 -0.011258324
C   C45       1.0  0.11870  0.95440  0.41860  1.0000 0.0729974463
C   C46       1.0  0.88130  0.04560  0.58140  1.0000 0.0729974463
C   C47       1.0  0.13480  0.95620  0.32640  1.0000 -0.1761938244
C   C48       1.0  0.86520  0.04380  0.67360  1.0000 -0.1761938244
C   C49       1.0  0.06400  0.00050  0.16940  1.0000 0.6582723349
C   C50       1.0  0.93600  0.99950  0.83060  1.0000 0.6582723349
C   C51       1.0  0.81180  0.09720  0.43360  1.0000 -0.1496707584
C   C52       1.0  0.18820  0.90280  0.56640  1.0000 -0.1496707584
C   C53       1.0  0.20970  0.90620  0.47920  1.0000 -0.1496707584
C   C54       1.0  0.79030  0.09380  0.52080  1.0000 -0.1496707584
O   O1        1.0  0.71240  0.15400  0.13690  1.0000 -0.6849821121
O   O2        1.0  0.28760  0.84600  0.86310  1.0000 -0.6856753737
O   O3        1.0  0.47980  0.06840  0.11080  1.0000 -0.7097625345
O   O4        1.0  0.52020  0.93160  0.88920  1.0000 -0.7097625345
O   O5        1.0  0.76940  0.81790  0.90990  1.0000 -0.7097625345
O   O6        1.0  0.23060  0.18210  0.09010  1.0000 -0.7097625345
O   O7        1.0  0.58360  0.68160  0.91050  1.0000 -0.4932007403
O   O8        1.0  0.41640  0.31840  0.08950  1.0000 -0.4932007403
O   O9        1.0  0.96440  0.01620  0.10750  1.0000 -0.7097625345
O   O10       1.0  0.03560  0.98380  0.89250  1.0000 -0.7097625345
O   O11       1.0  0.18200  0.98480  0.15450  1.0000 -0.6686564892
O   O12       1.0  0.81800  0.01520  0.84550  1.0000 -0.6686564892
