# DDEC6 charges by PACMAN v1.1 (https://github.com/mtap-research/PACMAN-charge/)
data_0000[Cd][sql]2[ASR]2
_chemical_formula_sum              "Cd8 H160 C184 N32 O32"
_cell_length_a       11.0394
_cell_length_b       28.7315
_cell_length_c       15.3718
_cell_angle_alpha    90
_cell_angle_beta     93.025
_cell_angle_gamma    90

_symmetry_space_group_name_H-M    "P 1"
_symmetry_Int_Tables_number       1

loop_
  _symmetry_equiv_pos_as_xyz
  'x, y, z'

loop_
  _atom_site_type_symbol
  _atom_site_label
  _atom_site_symmetry_multiplicity
  _atom_site_fract_x
  _atom_site_fract_y
  _atom_site_fract_z
  _atom_site_occupancy
  _atom_site_charge
Cd  Cd1       1.0  0.26406  0.14845  0.83576  1.0000 0.8203494279
Cd  Cd2       1.0  0.23594  0.64845  0.16424  1.0000 0.8203494279
Cd  Cd3       1.0  0.24472  0.34386  0.31958  1.0000 0.8203494279
Cd  Cd4       1.0  0.25528  0.84386  0.68042  1.0000 0.8203494279
Cd  Cd5       1.0  0.73594  0.85155  0.16424  1.0000 0.8203494279
Cd  Cd6       1.0  0.76406  0.35155  0.83576  1.0000 0.8203494279
Cd  Cd7       1.0  0.75528  0.65614  0.68042  1.0000 0.8203494279
Cd  Cd8       1.0  0.74472  0.15614  0.31958  1.0000 0.8203494279
H   H1        1.0  0.10290  0.05210  0.74160  1.0000 0.1299907494
H   H2        1.0  0.92580  0.05670  0.65810  1.0000 0.1358521311
H   H3        1.0  0.02630  0.18210  0.72700  1.0000 0.1112022309
H   H4        1.0  0.83770  0.13810  0.54600  1.0000 0.1189118112
H   H5        1.0  0.87570  0.18590  0.59370  1.0000 0.1112022309
H   H6        1.0  0.75500  0.12440  0.69040  1.0000 0.1112022309
H   H7        1.0  0.75120  0.17920  0.69150  1.0000 0.1112022309
H   H8        1.0  0.62710  0.12000  0.56970  1.0000 0.1112022309
H   H9        1.0  0.65280  0.17190  0.54300  1.0000 0.1189118112
H   H10       1.0  0.49580  0.11180  0.71280  1.0000 0.1189118112
H   H11       1.0  0.34110  0.23290  0.69960  1.0000 0.1189118112
H   H12       1.0  0.51300  0.23480  0.60710  1.0000 0.1299907494
H   H13       1.0  0.43610  0.29710  0.91570  1.0000 0.1189118112
H   H14       1.0  0.43460  0.37640  0.93820  1.0000 0.1112022309
H   H15       1.0  0.07440  0.37780  0.89700  1.0000 0.1112022309
H   H16       1.0  0.07710  0.29930  0.86680  1.0000 0.1189118112
H   H17       1.0  0.40960  0.45620  0.90950  1.0000 0.1112022309
H   H18       1.0  0.40190  0.53180  0.95870  1.0000 0.1112022309
H   H19       1.0  0.08570  0.50520  0.06230  1.0000 0.1189118112
H   H20       1.0  0.08930  0.43020  0.00690  1.0000 0.1112022309
H   H21       1.0  0.39710  0.55210  0.25840  1.0000 0.1299907494
H   H22       1.0  0.57420  0.55670  0.34190  1.0000 0.1358521311
H   H23       1.0  0.47370  0.68210  0.27300  1.0000 0.1112022309
H   H24       1.0  0.66230  0.63810  0.45400  1.0000 0.1189118112
H   H25       1.0  0.62430  0.68590  0.40630  1.0000 0.1112022309
H   H26       1.0  0.74500  0.62440  0.30960  1.0000 0.1112022309
H   H27       1.0  0.74880  0.67920  0.30850  1.0000 0.1112022309
H   H28       1.0  0.87290  0.62000  0.43030  1.0000 0.1112022309
H   H29       1.0  0.84720  0.67190  0.45700  1.0000 0.1189118112
H   H30       1.0  0.00420  0.61180  0.28720  1.0000 0.1189118112
H   H31       1.0  0.15890  0.73290  0.30040  1.0000 0.1189118112
H   H32       1.0  0.98700  0.73480  0.39290  1.0000 0.1299907494
H   H33       1.0  0.06390  0.79710  0.08430  1.0000 0.1189118112
H   H34       1.0  0.06540  0.87640  0.06180  1.0000 0.1112022309
H   H35       1.0  0.42560  0.87780  0.10300  1.0000 0.1112022309
H   H36       1.0  0.42290  0.79930  0.13320  1.0000 0.1189118112
H   H37       1.0  0.09040  0.95620  0.09050  1.0000 0.1112022309
H   H38       1.0  0.09810  0.03180  0.04130  1.0000 0.1112022309
H   H39       1.0  0.41430  0.00520  0.93770  1.0000 0.1189118112
H   H40       1.0  0.41070  0.93020  0.99310  1.0000 0.1112022309
H   H41       1.0  0.08740  0.20740  0.46460  1.0000 0.1189118112
H   H42       1.0  0.08830  0.13020  0.50460  1.0000 0.1112022309
H   H43       1.0  0.43810  0.12080  0.45100  1.0000 0.1112022309
H   H44       1.0  0.43590  0.19890  0.41280  1.0000 0.1112022309
H   H45       1.0  0.09340  0.05290  0.47220  1.0000 0.1112022309
H   H46       1.0  0.09490  0.97640  0.51390  1.0000 0.1112022309
H   H47       1.0  0.43870  0.98740  0.59740  1.0000 0.1299907494
H   H48       1.0  0.43860  0.06390  0.55440  1.0000 0.1112022309
H   H49       1.0  0.99640  0.27980  0.27110  1.0000 0.1112022309
H   H50       1.0  0.16090  0.35180  0.09830  1.0000 0.1189118112
H   H51       1.0  0.98730  0.31480  0.02290  1.0000 0.1358521311
H   H52       1.0  0.84760  0.24160  0.07680  1.0000 0.1189118112
H   H53       1.0  0.83030  0.24030  0.17730  1.0000 0.1021734529
H   H54       1.0  0.65710  0.27100  0.10440  1.0000 0.1112022309
H   H55       1.0  0.73510  0.31060  0.06480  1.0000 0.1189118112
H   H56       1.0  0.76950  0.34510  0.19700  1.0000 0.1189118112
H   H57       1.0  0.72110  0.30170  0.24620  1.0000 0.1021734529
H   H58       1.0  0.51810  0.31290  0.29850  1.0000 0.1112022309
H   H59       1.0  0.36990  0.40260  0.13250  1.0000 0.1189118112
H   H60       1.0  0.57230  0.38350  0.08490  1.0000 0.1358521311
H   H61       1.0  0.41260  0.70740  0.53540  1.0000 0.1189118112
H   H62       1.0  0.41170  0.63020  0.49540  1.0000 0.1112022309
H   H63       1.0  0.06190  0.62080  0.54900  1.0000 0.1112022309
H   H64       1.0  0.06410  0.69890  0.58720  1.0000 0.1112022309
H   H65       1.0  0.40660  0.55290  0.52780  1.0000 0.1112022309
H   H66       1.0  0.40510  0.47640  0.48610  1.0000 0.1112022309
H   H67       1.0  0.06130  0.48740  0.40260  1.0000 0.1299907494
H   H68       1.0  0.06140  0.56390  0.44560  1.0000 0.1112022309
H   H69       1.0  0.50360  0.77980  0.72890  1.0000 0.1112022309
H   H70       1.0  0.33910  0.85180  0.90170  1.0000 0.1189118112
H   H71       1.0  0.51270  0.81480  0.97710  1.0000 0.1358521311
H   H72       1.0  0.65240  0.74160  0.92320  1.0000 0.1189118112
H   H73       1.0  0.66970  0.74030  0.82270  1.0000 0.1021734529
H   H74       1.0  0.84290  0.77100  0.89560  1.0000 0.1112022309
H   H75       1.0  0.76490  0.81060  0.93520  1.0000 0.1189118112
H   H76       1.0  0.73050  0.84510  0.80300  1.0000 0.1189118112
H   H77       1.0  0.77890  0.80170  0.75380  1.0000 0.1021734529
H   H78       1.0  0.98190  0.81290  0.70150  1.0000 0.1112022309
H   H79       1.0  0.13010  0.90260  0.86750  1.0000 0.1189118112
H   H80       1.0  0.92770  0.88350  0.91510  1.0000 0.1358521311
H   H81       1.0  0.89710  0.94790  0.25840  1.0000 0.1299907494
H   H82       1.0  0.07420  0.94330  0.34190  1.0000 0.1358521311
H   H83       1.0  0.97370  0.81790  0.27300  1.0000 0.1112022309
H   H84       1.0  0.16230  0.86190  0.45400  1.0000 0.1189118112
H   H85       1.0  0.12430  0.81410  0.40630  1.0000 0.1112022309
H   H86       1.0  0.24500  0.87560  0.30960  1.0000 0.1112022309
H   H87       1.0  0.24880  0.82080  0.30850  1.0000 0.1112022309
H   H88       1.0  0.37290  0.88000  0.43030  1.0000 0.1112022309
H   H89       1.0  0.34720  0.82810  0.45700  1.0000 0.1189118112
H   H90       1.0  0.50420  0.88820  0.28720  1.0000 0.1189118112
H   H91       1.0  0.65890  0.76710  0.30040  1.0000 0.1189118112
H   H92       1.0  0.48700  0.76520  0.39290  1.0000 0.1299907494
H   H93       1.0  0.56390  0.70290  0.08430  1.0000 0.1189118112
H   H94       1.0  0.56540  0.62360  0.06180  1.0000 0.1112022309
H   H95       1.0  0.92560  0.62220  0.10300  1.0000 0.1112022309
H   H96       1.0  0.92290  0.70070  0.13320  1.0000 0.1189118112
H   H97       1.0  0.59040  0.54380  0.09050  1.0000 0.1112022309
H   H98       1.0  0.59810  0.46820  0.04130  1.0000 0.1112022309
H   H99       1.0  0.91430  0.49480  0.93770  1.0000 0.1189118112
H   H100      1.0  0.91070  0.56980  0.99310  1.0000 0.1112022309
H   H101      1.0  0.60290  0.44790  0.74160  1.0000 0.1299907494
H   H102      1.0  0.42580  0.44330  0.65810  1.0000 0.1358521311
H   H103      1.0  0.52630  0.31790  0.72700  1.0000 0.1112022309
H   H104      1.0  0.33770  0.36190  0.54600  1.0000 0.1189118112
H   H105      1.0  0.37570  0.31410  0.59370  1.0000 0.1112022309
H   H106      1.0  0.25500  0.37560  0.69040  1.0000 0.1112022309
H   H107      1.0  0.25120  0.32080  0.69150  1.0000 0.1112022309
H   H108      1.0  0.12710  0.38000  0.56970  1.0000 0.1112022309
H   H109      1.0  0.15280  0.32810  0.54300  1.0000 0.1189118112
H   H110      1.0  0.99580  0.38820  0.71280  1.0000 0.1189118112
H   H111      1.0  0.84110  0.26710  0.69960  1.0000 0.1189118112
H   H112      1.0  0.01300  0.26520  0.60710  1.0000 0.1299907494
H   H113      1.0  0.93610  0.20290  0.91570  1.0000 0.1189118112
H   H114      1.0  0.93460  0.12360  0.93820  1.0000 0.1112022309
H   H115      1.0  0.57440  0.12220  0.89700  1.0000 0.1112022309
H   H116      1.0  0.57710  0.20070  0.86680  1.0000 0.1189118112
H   H117      1.0  0.90960  0.04380  0.90950  1.0000 0.1112022309
H   H118      1.0  0.90190  0.96820  0.95870  1.0000 0.1112022309
H   H119      1.0  0.58570  0.99480  0.06230  1.0000 0.1189118112
H   H120      1.0  0.58930  0.06980  0.00690  1.0000 0.1112022309
H   H121      1.0  0.91260  0.79260  0.53540  1.0000 0.1189118112
H   H122      1.0  0.91170  0.86980  0.49540  1.0000 0.1112022309
H   H123      1.0  0.56190  0.87920  0.54900  1.0000 0.1112022309
H   H124      1.0  0.56410  0.80110  0.58720  1.0000 0.1112022309
H   H125      1.0  0.90660  0.94710  0.52780  1.0000 0.1112022309
H   H126      1.0  0.90510  0.02360  0.48610  1.0000 0.1112022309
H   H127      1.0  0.56130  0.01260  0.40260  1.0000 0.1299907494
H   H128      1.0  0.56140  0.93610  0.44560  1.0000 0.1112022309
H   H129      1.0  0.00360  0.72020  0.72890  1.0000 0.1112022309
H   H130      1.0  0.83910  0.64820  0.90170  1.0000 0.1189118112
H   H131      1.0  0.01270  0.68520  0.97710  1.0000 0.1358521311
H   H132      1.0  0.15240  0.75840  0.92320  1.0000 0.1189118112
H   H133      1.0  0.16970  0.75970  0.82270  1.0000 0.1021734529
H   H134      1.0  0.34290  0.72900  0.89560  1.0000 0.1112022309
H   H135      1.0  0.26490  0.68940  0.93520  1.0000 0.1189118112
H   H136      1.0  0.23050  0.65490  0.80300  1.0000 0.1189118112
H   H137      1.0  0.27890  0.69830  0.75380  1.0000 0.1021734529
H   H138      1.0  0.48190  0.68710  0.70150  1.0000 0.1112022309
H   H139      1.0  0.63010  0.59740  0.86750  1.0000 0.1189118112
H   H140      1.0  0.42770  0.61650  0.91510  1.0000 0.1358521311
H   H141      1.0  0.58740  0.29260  0.46460  1.0000 0.1189118112
H   H142      1.0  0.58830  0.36980  0.50460  1.0000 0.1112022309
H   H143      1.0  0.93810  0.37920  0.45100  1.0000 0.1112022309
H   H144      1.0  0.93590  0.30110  0.41280  1.0000 0.1112022309
H   H145      1.0  0.59340  0.44710  0.47220  1.0000 0.1112022309
H   H146      1.0  0.59490  0.52360  0.51390  1.0000 0.1112022309
H   H147      1.0  0.93870  0.51260  0.59740  1.0000 0.1299907494
H   H148      1.0  0.93860  0.43610  0.55440  1.0000 0.1112022309
H   H149      1.0  0.49640  0.22020  0.27110  1.0000 0.1112022309
H   H150      1.0  0.66090  0.14820  0.09830  1.0000 0.1189118112
H   H151      1.0  0.48730  0.18520  0.02290  1.0000 0.1358521311
H   H152      1.0  0.34760  0.25840  0.07680  1.0000 0.1189118112
H   H153      1.0  0.33030  0.25970  0.17730  1.0000 0.1021734529
H   H154      1.0  0.15710  0.22900  0.10440  1.0000 0.1112022309
H   H155      1.0  0.23510  0.18940  0.06480  1.0000 0.1189118112
H   H156      1.0  0.26950  0.15490  0.19700  1.0000 0.1189118112
H   H157      1.0  0.22110  0.19830  0.24620  1.0000 0.1021734529
H   H158      1.0  0.01810  0.18710  0.29850  1.0000 0.1112022309
H   H159      1.0  0.86990  0.09740  0.13250  1.0000 0.1189118112
H   H160      1.0  0.07230  0.11650  0.08490  1.0000 0.1358521311
C   C1        1.0  0.06400  0.07990  0.72660  1.0000 -0.0390300573
C   C2        1.0  0.96900  0.08180  0.68190  1.0000 -0.1092274338
C   C3        1.0  0.02450  0.15000  0.71920  1.0000 0.1112022309
C   C4        1.0  0.85500  0.15340  0.60150  1.0000 -0.1512227676
C   C5        1.0  0.75200  0.15200  0.65410  1.0000 -0.2325919764
C   C6        1.0  0.64150  0.15130  0.59190  1.0000 -0.1177789317
C   C7        1.0  0.47790  0.14240  0.69750  1.0000 0.1021734529
C   C8        1.0  0.39450  0.20850  0.69090  1.0000 -0.0506115782
C   C9        1.0  0.48790  0.20940  0.63900  1.0000 -0.0996612049
C   C10       1.0  0.25620  0.23830  0.87880  1.0000 0.5295549958
C   C11       1.0  0.25710  0.29000  0.89160  1.0000 -0.0324447843
C   C12       1.0  0.36310  0.31320  0.91180  1.0000 -0.1177789317
C   C13       1.0  0.36170  0.36080  0.92650  1.0000 -0.1592620632
C   C14       1.0  0.25400  0.38560  0.92430  1.0000 0.0718431812
C   C15       1.0  0.14760  0.36180  0.90100  1.0000 -0.1592620632
C   C16       1.0  0.14880  0.31460  0.88370  1.0000 -0.1092274338
C   C17       1.0  0.24980  0.43570  0.95240  1.0000 0.0718431812
C   C18       1.0  0.34310  0.46620  0.93930  1.0000 -0.1512227676
C   C19       1.0  0.33950  0.51130  0.96990  1.0000 -0.1092274338
C   C20       1.0  0.24420  0.52620  0.01680  1.0000 -0.0164532964
C   C21       1.0  0.15080  0.49560  0.03070  1.0000 -0.0996612049
C   C22       1.0  0.15320  0.45050  0.99790  1.0000 -0.1429986727
C   C23       1.0  0.24060  0.57430  0.05680  1.0000 0.5359346299
C   C24       1.0  0.43600  0.57990  0.27340  1.0000 -0.0390300573
C   C25       1.0  0.53100  0.58180  0.31810  1.0000 -0.1092274338
C   C26       1.0  0.47550  0.65000  0.28080  1.0000 0.1112022309
C   C27       1.0  0.64500  0.65340  0.39850  1.0000 -0.1512227676
C   C28       1.0  0.74800  0.65200  0.34590  1.0000 -0.2325919764
C   C29       1.0  0.85850  0.65130  0.40810  1.0000 -0.1177789317
C   C30       1.0  0.02210  0.64240  0.30250  1.0000 0.1021734529
C   C31       1.0  0.10550  0.70850  0.30910  1.0000 -0.0506115782
C   C32       1.0  0.01210  0.70940  0.36100  1.0000 -0.0996612049
C   C33       1.0  0.24380  0.73830  0.12120  1.0000 0.5295549958
C   C34       1.0  0.24290  0.79000  0.10840  1.0000 -0.0324447843
C   C35       1.0  0.13690  0.81320  0.08820  1.0000 -0.1177789317
C   C36       1.0  0.13830  0.86080  0.07350  1.0000 -0.1592620632
C   C37       1.0  0.24600  0.88560  0.07570  1.0000 0.0718431812
C   C38       1.0  0.35240  0.86180  0.09900  1.0000 -0.1592620632
C   C39       1.0  0.35120  0.81460  0.11630  1.0000 -0.1092274338
C   C40       1.0  0.25020  0.93570  0.04760  1.0000 0.0718431812
C   C41       1.0  0.15690  0.96620  0.06070  1.0000 -0.1512227676
C   C42       1.0  0.16050  0.01130  0.03010  1.0000 -0.1092274338
C   C43       1.0  0.25580  0.02620  0.98320  1.0000 -0.0164532964
C   C44       1.0  0.34920  0.99560  0.96930  1.0000 -0.0996612049
C   C45       1.0  0.34680  0.95050  0.00210  1.0000 -0.1429986727
C   C46       1.0  0.25940  0.07430  0.94320  1.0000 0.5359346299
C   C47       1.0  0.25790  0.25980  0.39980  1.0000 0.5295549958
C   C48       1.0  0.26080  0.21060  0.43270  1.0000 -0.0324447843
C   C49       1.0  0.15820  0.19000  0.46160  1.0000 -0.1278715776
C   C50       1.0  0.15900  0.14380  0.48630  1.0000 -0.1429986727
C   C51       1.0  0.26350  0.11760  0.48400  1.0000 0.0718431812
C   C52       1.0  0.36740  0.13810  0.45460  1.0000 -0.1429986727
C   C53       1.0  0.36540  0.18490  0.43060  1.0000 -0.1177789317
C   C54       1.0  0.26530  0.06750  0.50990  1.0000 0.0798125016
C   C55       1.0  0.16390  0.04020  0.49810  1.0000 -0.1512227676
C   C56       1.0  0.16460  0.99420  0.52390  1.0000 -0.1278715776
C   C57       1.0  0.26440  0.97430  0.56370  1.0000 -0.0164532964
C   C58       1.0  0.36780  0.00060  0.57310  1.0000 -0.1092274338
C   C59       1.0  0.36760  0.04660  0.54690  1.0000 -0.1592620632
C   C60       1.0  0.26150  0.92540  0.59740  1.0000 0.524779561
C   C61       1.0  0.01570  0.29370  0.21900  1.0000 0.0861404492
C   C62       1.0  0.10530  0.33260  0.12410  1.0000 -0.0506115782
C   C63       1.0  0.00930  0.31260  0.08200  1.0000 -0.0996612049
C   C64       1.0  0.83970  0.26080  0.12800  1.0000 -0.1092274338
C   C65       1.0  0.72740  0.29080  0.11530  1.0000 -0.2150757582
C   C66       1.0  0.70900  0.32060  0.19420  1.0000 -0.1092274338
C   C67       1.0  0.50580  0.33280  0.25120  1.0000 0.0798125016
C   C68       1.0  0.42420  0.38180  0.15980  1.0000 -0.0506115782
C   C69       1.0  0.53700  0.37180  0.13400  1.0000 -0.0996612049
C   C70       1.0  0.24210  0.75980  0.60020  1.0000 0.5295549958
C   C71       1.0  0.23920  0.71060  0.56730  1.0000 -0.0324447843
C   C72       1.0  0.34180  0.69000  0.53840  1.0000 -0.1278715776
C   C73       1.0  0.34100  0.64380  0.51370  1.0000 -0.1429986727
C   C74       1.0  0.23650  0.61760  0.51600  1.0000 0.0718431812
C   C75       1.0  0.13260  0.63810  0.54540  1.0000 -0.1429986727
C   C76       1.0  0.13460  0.68490  0.56940  1.0000 -0.1177789317
C   C77       1.0  0.23470  0.56750  0.49010  1.0000 0.0798125016
C   C78       1.0  0.33610  0.54020  0.50190  1.0000 -0.1512227676
C   C79       1.0  0.33540  0.49420  0.47610  1.0000 -0.1278715776
C   C80       1.0  0.23560  0.47430  0.43630  1.0000 -0.0164532964
C   C81       1.0  0.13220  0.50060  0.42690  1.0000 -0.1092274338
C   C82       1.0  0.13240  0.54660  0.45310  1.0000 -0.1592620632
C   C83       1.0  0.23850  0.42540  0.40260  1.0000 0.524779561
C   C84       1.0  0.48430  0.79370  0.78100  1.0000 0.0861404492
C   C85       1.0  0.39470  0.83260  0.87590  1.0000 -0.0506115782
C   C86       1.0  0.49070  0.81260  0.91800  1.0000 -0.0996612049
C   C87       1.0  0.66030  0.76080  0.87200  1.0000 -0.1092274338
C   C88       1.0  0.77260  0.79080  0.88470  1.0000 -0.2150757582
C   C89       1.0  0.79100  0.82060  0.80580  1.0000 -0.1092274338
C   C90       1.0  0.99420  0.83280  0.74880  1.0000 0.0798125016
C   C91       1.0  0.07580  0.88180  0.84020  1.0000 -0.0506115782
C   C92       1.0  0.96300  0.87180  0.86600  1.0000 -0.0996612049
C   C93       1.0  0.93600  0.92010  0.27340  1.0000 -0.0390300573
C   C94       1.0  0.03100  0.91820  0.31810  1.0000 -0.1092274338
C   C95       1.0  0.97550  0.85000  0.28080  1.0000 0.1112022309
C   C96       1.0  0.14500  0.84660  0.39850  1.0000 -0.1512227676
C   C97       1.0  0.24800  0.84800  0.34590  1.0000 -0.2325919764
C   C98       1.0  0.35850  0.84870  0.40810  1.0000 -0.1177789317
C   C99       1.0  0.52210  0.85760  0.30250  1.0000 0.1021734529
C   C100      1.0  0.60550  0.79150  0.30910  1.0000 -0.0506115782
C   C101      1.0  0.51210  0.79060  0.36100  1.0000 -0.0996612049
C   C102      1.0  0.74380  0.76170  0.12120  1.0000 0.5295549958
C   C103      1.0  0.74290  0.71000  0.10840  1.0000 -0.0324447843
C   C104      1.0  0.63690  0.68680  0.08820  1.0000 -0.1177789317
C   C105      1.0  0.63830  0.63920  0.07350  1.0000 -0.1592620632
C   C106      1.0  0.74600  0.61440  0.07570  1.0000 0.0718431812
C   C107      1.0  0.85240  0.63820  0.09900  1.0000 -0.1592620632
C   C108      1.0  0.85120  0.68540  0.11630  1.0000 -0.1092274338
C   C109      1.0  0.75020  0.56430  0.04760  1.0000 0.0718431812
C   C110      1.0  0.65690  0.53380  0.06070  1.0000 -0.1512227676
C   C111      1.0  0.66050  0.48870  0.03010  1.0000 -0.1092274338
C   C112      1.0  0.75580  0.47380  0.98320  1.0000 -0.0164532964
C   C113      1.0  0.84920  0.50440  0.96930  1.0000 -0.0996612049
C   C114      1.0  0.84680  0.54950  0.00210  1.0000 -0.1429986727
C   C115      1.0  0.75940  0.42570  0.94320  1.0000 0.5359346299
C   C116      1.0  0.56400  0.42010  0.72660  1.0000 -0.0390300573
C   C117      1.0  0.46900  0.41820  0.68190  1.0000 -0.1092274338
C   C118      1.0  0.52450  0.35000  0.71920  1.0000 0.1112022309
C   C119      1.0  0.35500  0.34660  0.60150  1.0000 -0.1512227676
C   C120      1.0  0.25200  0.34800  0.65410  1.0000 -0.2325919764
C   C121      1.0  0.14150  0.34870  0.59190  1.0000 -0.1177789317
C   C122      1.0  0.97790  0.35760  0.69750  1.0000 0.1021734529
C   C123      1.0  0.89450  0.29150  0.69090  1.0000 -0.0506115782
C   C124      1.0  0.98790  0.29060  0.63900  1.0000 -0.0996612049
C   C125      1.0  0.75620  0.26170  0.87880  1.0000 0.5295549958
C   C126      1.0  0.75710  0.21000  0.89160  1.0000 -0.0324447843
C   C127      1.0  0.86310  0.18680  0.91180  1.0000 -0.1177789317
C   C128      1.0  0.86170  0.13920  0.92650  1.0000 -0.1592620632
C   C129      1.0  0.75400  0.11440  0.92430  1.0000 0.0718431812
C   C130      1.0  0.64760  0.13820  0.90100  1.0000 -0.1592620632
C   C131      1.0  0.64880  0.18540  0.88370  1.0000 -0.1092274338
C   C132      1.0  0.74980  0.06430  0.95240  1.0000 0.0718431812
C   C133      1.0  0.84310  0.03380  0.93930  1.0000 -0.1512227676
C   C134      1.0  0.83950  0.98870  0.96990  1.0000 -0.1092274338
C   C135      1.0  0.74420  0.97380  0.01680  1.0000 -0.0164532964
C   C136      1.0  0.65080  0.00440  0.03070  1.0000 -0.0996612049
C   C137      1.0  0.65320  0.04950  0.99790  1.0000 -0.1429986727
C   C138      1.0  0.74060  0.92570  0.05680  1.0000 0.5359346299
C   C139      1.0  0.74210  0.74020  0.60020  1.0000 0.5295549958
C   C140      1.0  0.73920  0.78940  0.56730  1.0000 -0.0324447843
C   C141      1.0  0.84180  0.81000  0.53840  1.0000 -0.1278715776
C   C142      1.0  0.84100  0.85620  0.51370  1.0000 -0.1429986727
C   C143      1.0  0.73650  0.88240  0.51600  1.0000 0.0718431812
C   C144      1.0  0.63260  0.86190  0.54540  1.0000 -0.1429986727
C   C145      1.0  0.63460  0.81510  0.56940  1.0000 -0.1177789317
C   C146      1.0  0.73470  0.93250  0.49010  1.0000 0.0798125016
C   C147      1.0  0.83610  0.95980  0.50190  1.0000 -0.1512227676
C   C148      1.0  0.83540  0.00580  0.47610  1.0000 -0.1278715776
C   C149      1.0  0.73560  0.02570  0.43630  1.0000 -0.0164532964
C   C150      1.0  0.63220  0.99940  0.42690  1.0000 -0.1092274338
C   C151      1.0  0.63240  0.95340  0.45310  1.0000 -0.1592620632
C   C152      1.0  0.73850  0.07460  0.40260  1.0000 0.524779561
C   C153      1.0  0.98430  0.70630  0.78100  1.0000 0.0861404492
C   C154      1.0  0.89470  0.66740  0.87590  1.0000 -0.0506115782
C   C155      1.0  0.99070  0.68740  0.91800  1.0000 -0.0996612049
C   C156      1.0  0.16030  0.73920  0.87200  1.0000 -0.1092274338
C   C157      1.0  0.27260  0.70920  0.88470  1.0000 -0.2150757582
C   C158      1.0  0.29100  0.67940  0.80580  1.0000 -0.1092274338
C   C159      1.0  0.49420  0.66720  0.74880  1.0000 0.0798125016
C   C160      1.0  0.57580  0.61820  0.84020  1.0000 -0.0506115782
C   C161      1.0  0.46300  0.62820  0.86600  1.0000 -0.0996612049
C   C162      1.0  0.75790  0.24020  0.39980  1.0000 0.5295549958
C   C163      1.0  0.76080  0.28940  0.43270  1.0000 -0.0324447843
C   C164      1.0  0.65820  0.31000  0.46160  1.0000 -0.1278715776
C   C165      1.0  0.65900  0.35620  0.48630  1.0000 -0.1429986727
C   C166      1.0  0.76350  0.38240  0.48400  1.0000 0.0718431812
C   C167      1.0  0.86740  0.36190  0.45460  1.0000 -0.1429986727
C   C168      1.0  0.86540  0.31510  0.43060  1.0000 -0.1177789317
C   C169      1.0  0.76530  0.43250  0.50990  1.0000 0.0798125016
C   C170      1.0  0.66390  0.45980  0.49810  1.0000 -0.1512227676
C   C171      1.0  0.66460  0.50580  0.52390  1.0000 -0.1278715776
C   C172      1.0  0.76440  0.52570  0.56370  1.0000 -0.0164532964
C   C173      1.0  0.86780  0.49940  0.57310  1.0000 -0.1092274338
C   C174      1.0  0.86760  0.45340  0.54690  1.0000 -0.1592620632
C   C175      1.0  0.76150  0.57460  0.59740  1.0000 0.524779561
C   C176      1.0  0.51570  0.20630  0.21900  1.0000 0.0861404492
C   C177      1.0  0.60530  0.16740  0.12410  1.0000 -0.0506115782
C   C178      1.0  0.50930  0.18740  0.08200  1.0000 -0.0996612049
C   C179      1.0  0.33970  0.23920  0.12800  1.0000 -0.1092274338
C   C180      1.0  0.22740  0.20920  0.11530  1.0000 -0.2150757582
C   C181      1.0  0.20900  0.17940  0.19420  1.0000 -0.1092274338
C   C182      1.0  0.00580  0.16720  0.25120  1.0000 0.0798125016
C   C183      1.0  0.92420  0.11820  0.15980  1.0000 -0.0506115782
C   C184      1.0  0.03700  0.12820  0.13400  1.0000 -0.0996612049
N   N1        1.0  0.10600  0.12200  0.75210  1.0000 -0.2896237643
N   N2        1.0  0.93820  0.12780  0.67320  1.0000 0.0396428561
N   N3        1.0  0.53920  0.16680  0.64120  1.0000 0.0396428561
N   N4        1.0  0.39100  0.16590  0.72860  1.0000 -0.2896237643
N   N5        1.0  0.39400  0.62200  0.24790  1.0000 -0.2896237643
N   N6        1.0  0.56180  0.62780  0.32680  1.0000 0.0396428561
N   N7        1.0  0.96080  0.66680  0.35880  1.0000 0.0396428561
N   N8        1.0  0.10900  0.66590  0.27140  1.0000 -0.2896237643
N   N9        1.0  0.10960  0.32080  0.21050  1.0000 -0.2996564293
N   N10       1.0  0.95070  0.28830  0.14330  1.0000 0.0396428561
N   N11       1.0  0.58910  0.34140  0.19310  1.0000 0.0396428561
N   N12       1.0  0.40380  0.35600  0.23320  1.0000 -0.2996564293
N   N13       1.0  0.39040  0.82080  0.78950  1.0000 -0.2996564293
N   N14       1.0  0.54930  0.78830  0.85670  1.0000 0.0396428561
N   N15       1.0  0.91090  0.84140  0.80690  1.0000 0.0396428561
N   N16       1.0  0.09620  0.85600  0.76680  1.0000 -0.2996564293
N   N17       1.0  0.89400  0.87800  0.24790  1.0000 -0.2896237643
N   N18       1.0  0.06180  0.87220  0.32680  1.0000 0.0396428561
N   N19       1.0  0.46080  0.83320  0.35880  1.0000 0.0396428561
N   N20       1.0  0.60900  0.83410  0.27140  1.0000 -0.2896237643
N   N21       1.0  0.60600  0.37800  0.75210  1.0000 -0.2896237643
N   N22       1.0  0.43820  0.37220  0.67320  1.0000 0.0396428561
N   N23       1.0  0.03920  0.33320  0.64120  1.0000 0.0396428561
N   N24       1.0  0.89100  0.33410  0.72860  1.0000 -0.2896237643
N   N25       1.0  0.89040  0.67920  0.78950  1.0000 -0.2996564293
N   N26       1.0  0.04930  0.71170  0.85670  1.0000 0.0396428561
N   N27       1.0  0.41090  0.65860  0.80690  1.0000 0.0396428561
N   N28       1.0  0.59620  0.64400  0.76680  1.0000 -0.2996564293
N   N29       1.0  0.60960  0.17920  0.21050  1.0000 -0.2996564293
N   N30       1.0  0.45070  0.21170  0.14330  1.0000 0.0396428561
N   N31       1.0  0.08910  0.15860  0.19310  1.0000 0.0396428561
N   N32       1.0  0.90380  0.14400  0.23320  1.0000 -0.2996564293
O   O1        1.0  0.34280  0.21458  0.90930  1.0000 -0.5301644476
O   O2        1.0  0.16800  0.22055  0.83630  1.0000 -0.5507878409
O   O3        1.0  0.31930  0.60320  0.04010  1.0000 -0.5507878409
O   O4        1.0  0.15760  0.58240  0.10750  1.0000 -0.5507878409
O   O5        1.0  0.15720  0.71458  0.09070  1.0000 -0.5301644476
O   O6        1.0  0.33200  0.72055  0.16370  1.0000 -0.5507878409
O   O7        1.0  0.18070  0.10320  0.95990  1.0000 -0.5507878409
O   O8        1.0  0.34240  0.08240  0.89250  1.0000 -0.5507878409
O   O9        1.0  0.34860  0.27492  0.36340  1.0000 -0.5507878409
O   O10       1.0  0.16460  0.28360  0.40620  1.0000 -0.5416798563
O   O11       1.0  0.35120  0.91020  0.64010  1.0000 -0.5107475491
O   O12       1.0  0.17180  0.90109  0.58130  1.0000 -0.5301644476
O   O13       1.0  0.15140  0.77492  0.63660  1.0000 -0.5507878409
O   O14       1.0  0.33540  0.78360  0.59380  1.0000 -0.5416798563
O   O15       1.0  0.14880  0.41020  0.35990  1.0000 -0.5107475491
O   O16       1.0  0.32820  0.40109  0.41870  1.0000 -0.5301644476
O   O17       1.0  0.65720  0.78542  0.09070  1.0000 -0.5301644476
O   O18       1.0  0.83200  0.77945  0.16370  1.0000 -0.5507878409
O   O19       1.0  0.68070  0.39680  0.95990  1.0000 -0.5507878409
O   O20       1.0  0.84240  0.41760  0.89250  1.0000 -0.5507878409
O   O21       1.0  0.84280  0.28542  0.90930  1.0000 -0.5301644476
O   O22       1.0  0.66800  0.27945  0.83630  1.0000 -0.5507878409
O   O23       1.0  0.81930  0.89680  0.04010  1.0000 -0.5507878409
O   O24       1.0  0.65760  0.91760  0.10750  1.0000 -0.5507878409
O   O25       1.0  0.65140  0.72508  0.63660  1.0000 -0.5507878409
O   O26       1.0  0.83540  0.71640  0.59380  1.0000 -0.5416798563
O   O27       1.0  0.64880  0.08980  0.35990  1.0000 -0.5107475491
O   O28       1.0  0.82820  0.09891  0.41870  1.0000 -0.5301644476
O   O29       1.0  0.84860  0.22508  0.36340  1.0000 -0.5507878409
O   O30       1.0  0.66460  0.21640  0.40620  1.0000 -0.5416798563
O   O31       1.0  0.85120  0.58980  0.64010  1.0000 -0.5107475491
O   O32       1.0  0.67180  0.59891  0.58130  1.0000 -0.5301644476
