# DDEC6 charges by PACMAN v1.1 (https://github.com/mtap-research/PACMAN-charge/)
data_0000[Sm][bcu]3[ASR]1
_chemical_formula_sum              "Sm2 H48 C88 S8 N8 O24"
_cell_length_a       15.3683
_cell_length_b       15.3683
_cell_length_c       9.895
_cell_angle_alpha    90
_cell_angle_beta     90
_cell_angle_gamma    90

_symmetry_space_group_name_H-M    "P 1"
_symmetry_Int_Tables_number       1

loop_
  _symmetry_equiv_pos_as_xyz
  'x, y, z'

loop_
  _atom_site_type_symbol
  _atom_site_label
  _atom_site_symmetry_multiplicity
  _atom_site_fract_x
  _atom_site_fract_y
  _atom_site_fract_z
  _atom_site_occupancy
  _atom_site_charge
Sm  Sm1       1.0  0.00000  0.00000  0.25000  1.0000 2.3128156533
Sm  Sm2       1.0  0.00000  0.00000  0.75000  1.0000 2.3128156533
H   H1        1.0  0.91290  0.24030  0.79640  1.0000 0.1426211979
H   H2        1.0  0.08710  0.75970  0.79640  1.0000 0.1426211979
H   H3        1.0  0.24030  0.08710  0.79640  1.0000 0.1426211979
H   H4        1.0  0.75970  0.91290  0.79640  1.0000 0.1426211979
H   H5        1.0  0.91290  0.75970  0.70360  1.0000 0.1426211979
H   H6        1.0  0.08710  0.24030  0.70360  1.0000 0.1426211979
H   H7        1.0  0.24030  0.91290  0.70360  1.0000 0.1426211979
H   H8        1.0  0.75970  0.08710  0.70360  1.0000 0.1426211979
H   H9        1.0  0.08710  0.75970  0.20360  1.0000 0.1426211979
H   H10       1.0  0.91290  0.24030  0.20360  1.0000 0.1426211979
H   H11       1.0  0.75970  0.91290  0.20360  1.0000 0.1426211979
H   H12       1.0  0.24030  0.08710  0.20360  1.0000 0.1426211979
H   H13       1.0  0.08710  0.24030  0.29640  1.0000 0.1426211979
H   H14       1.0  0.91290  0.75970  0.29640  1.0000 0.1426211979
H   H15       1.0  0.75970  0.08710  0.29640  1.0000 0.1426211979
H   H16       1.0  0.24030  0.91290  0.29640  1.0000 0.1426211979
H   H17       1.0  0.78760  0.32260  0.79780  1.0000 0.1339839741
H   H18       1.0  0.21240  0.67740  0.79780  1.0000 0.1339839741
H   H19       1.0  0.32260  0.21240  0.79780  1.0000 0.1339839741
H   H20       1.0  0.67740  0.78760  0.79780  1.0000 0.1339839741
H   H21       1.0  0.78760  0.67740  0.70220  1.0000 0.1339839741
H   H22       1.0  0.21240  0.32260  0.70220  1.0000 0.1339839741
H   H23       1.0  0.32260  0.78760  0.70220  1.0000 0.1339839741
H   H24       1.0  0.67740  0.21240  0.70220  1.0000 0.1339839741
H   H25       1.0  0.21240  0.67740  0.20220  1.0000 0.1339839741
H   H26       1.0  0.78760  0.32260  0.20220  1.0000 0.1339839741
H   H27       1.0  0.67740  0.78760  0.20220  1.0000 0.1339839741
H   H28       1.0  0.32260  0.21240  0.20220  1.0000 0.1339839741
H   H29       1.0  0.21240  0.32260  0.29780  1.0000 0.1339839741
H   H30       1.0  0.78760  0.67740  0.29780  1.0000 0.1339839741
H   H31       1.0  0.67740  0.21240  0.29780  1.0000 0.1339839741
H   H32       1.0  0.32260  0.78760  0.29780  1.0000 0.1339839741
H   H33       1.0  0.65330  0.20230  0.00000  1.0000 0.1457936355
H   H34       1.0  0.34670  0.79770  0.00000  1.0000 0.1457936355
H   H35       1.0  0.20230  0.34670  0.00000  1.0000 0.1457936355
H   H36       1.0  0.79770  0.65330  0.00000  1.0000 0.1457936355
H   H37       1.0  0.65330  0.79770  0.50000  1.0000 0.1457936355
H   H38       1.0  0.34670  0.20230  0.50000  1.0000 0.1457936355
H   H39       1.0  0.20230  0.65330  0.50000  1.0000 0.1457936355
H   H40       1.0  0.79770  0.34670  0.50000  1.0000 0.1457936355
H   H41       1.0  0.49740  0.16690  0.00000  1.0000 0.1339839741
H   H42       1.0  0.50260  0.83310  0.00000  1.0000 0.1339839741
H   H43       1.0  0.16690  0.50260  0.00000  1.0000 0.1339839741
H   H44       1.0  0.83310  0.49740  0.00000  1.0000 0.1339839741
H   H45       1.0  0.49740  0.83310  0.50000  1.0000 0.1339839741
H   H46       1.0  0.50260  0.16690  0.50000  1.0000 0.1339839741
H   H47       1.0  0.16690  0.49740  0.50000  1.0000 0.1339839741
H   H48       1.0  0.83310  0.50260  0.50000  1.0000 0.1339839741
C   C1        1.0  0.92500  0.23430  0.00000  1.0000 -0.0787580362
C   C2        1.0  0.07500  0.76570  0.00000  1.0000 -0.0787580362
C   C3        1.0  0.23430  0.07500  0.00000  1.0000 -0.0787580362
C   C4        1.0  0.76570  0.92500  0.00000  1.0000 -0.0787580362
C   C5        1.0  0.92500  0.76570  0.50000  1.0000 -0.0787580362
C   C6        1.0  0.07500  0.23430  0.50000  1.0000 -0.0787580362
C   C7        1.0  0.23430  0.92500  0.50000  1.0000 -0.0787580362
C   C8        1.0  0.76570  0.07500  0.50000  1.0000 -0.0787580362
C   C9        1.0  0.88776  0.25741  0.87770  1.0000 -0.0716944168
C   C10       1.0  0.11224  0.74259  0.87770  1.0000 -0.0716944168
C   C11       1.0  0.25741  0.11224  0.87770  1.0000 -0.0716944168
C   C12       1.0  0.74259  0.88776  0.87770  1.0000 -0.0716944168
C   C13       1.0  0.88776  0.74259  0.62230  1.0000 -0.0716944168
C   C14       1.0  0.11224  0.25741  0.62230  1.0000 -0.0716944168
C   C15       1.0  0.25741  0.88776  0.62230  1.0000 -0.0716944168
C   C16       1.0  0.74259  0.11224  0.62230  1.0000 -0.0716944168
C   C17       1.0  0.11224  0.74259  0.12230  1.0000 -0.0716944168
C   C18       1.0  0.88776  0.25741  0.12230  1.0000 -0.0716944168
C   C19       1.0  0.74259  0.88776  0.12230  1.0000 -0.0716944168
C   C20       1.0  0.25741  0.11224  0.12230  1.0000 -0.0716944168
C   C21       1.0  0.11224  0.25741  0.37770  1.0000 -0.0716944168
C   C22       1.0  0.88776  0.74259  0.37770  1.0000 -0.0716944168
C   C23       1.0  0.74259  0.11224  0.37770  1.0000 -0.0716944168
C   C24       1.0  0.25741  0.88776  0.37770  1.0000 -0.0716944168
C   C25       1.0  0.81287  0.30617  0.87930  1.0000 -0.1210148408
C   C26       1.0  0.18713  0.69383  0.87930  1.0000 -0.1210148408
C   C27       1.0  0.30617  0.18713  0.87930  1.0000 -0.1210148408
C   C28       1.0  0.69383  0.81287  0.87930  1.0000 -0.1210148408
C   C29       1.0  0.81287  0.69383  0.62070  1.0000 -0.1210148408
C   C30       1.0  0.18713  0.30617  0.62070  1.0000 -0.1210148408
C   C31       1.0  0.30617  0.81287  0.62070  1.0000 -0.1210148408
C   C32       1.0  0.69383  0.18713  0.62070  1.0000 -0.1210148408
C   C33       1.0  0.18713  0.69383  0.12070  1.0000 -0.1210148408
C   C34       1.0  0.81287  0.30617  0.12070  1.0000 -0.1210148408
C   C35       1.0  0.69383  0.81287  0.12070  1.0000 -0.1210148408
C   C36       1.0  0.30617  0.18713  0.12070  1.0000 -0.1210148408
C   C37       1.0  0.18713  0.30617  0.37930  1.0000 -0.1210148408
C   C38       1.0  0.81287  0.69383  0.37930  1.0000 -0.1210148408
C   C39       1.0  0.69383  0.18713  0.37930  1.0000 -0.1210148408
C   C40       1.0  0.30617  0.81287  0.37930  1.0000 -0.1210148408
C   C41       1.0  0.77390  0.33160  0.00000  1.0000 0.0967161787
C   C42       1.0  0.22610  0.66840  0.00000  1.0000 0.0967161787
C   C43       1.0  0.33160  0.22610  0.00000  1.0000 0.0967161787
C   C44       1.0  0.66840  0.77390  0.00000  1.0000 0.0967161787
C   C45       1.0  0.77390  0.66840  0.50000  1.0000 0.0967161787
C   C46       1.0  0.22610  0.33160  0.50000  1.0000 0.0967161787
C   C47       1.0  0.33160  0.77390  0.50000  1.0000 0.0967161787
C   C48       1.0  0.66840  0.22610  0.50000  1.0000 0.0967161787
C   C49       1.0  0.69010  0.38320  0.00000  1.0000 -0.0787580362
C   C50       1.0  0.30990  0.61680  0.00000  1.0000 -0.0787580362
C   C51       1.0  0.38320  0.30990  0.00000  1.0000 -0.0787580362
C   C52       1.0  0.61680  0.69010  0.00000  1.0000 -0.0787580362
C   C53       1.0  0.69010  0.61680  0.50000  1.0000 -0.0787580362
C   C54       1.0  0.30990  0.38320  0.50000  1.0000 -0.0787580362
C   C55       1.0  0.38320  0.69010  0.50000  1.0000 -0.0787580362
C   C56       1.0  0.61680  0.30990  0.50000  1.0000 -0.0787580362
C   C57       1.0  0.61360  0.33500  0.00000  1.0000 0.1993324478
C   C58       1.0  0.38640  0.66500  0.00000  1.0000 0.1993324478
C   C59       1.0  0.33500  0.38640  0.00000  1.0000 0.1993324478
C   C60       1.0  0.66500  0.61360  0.00000  1.0000 0.1993324478
C   C61       1.0  0.61360  0.66500  0.50000  1.0000 0.1993324478
C   C62       1.0  0.38640  0.33500  0.50000  1.0000 0.1993324478
C   C63       1.0  0.33500  0.61360  0.50000  1.0000 0.1993324478
C   C64       1.0  0.66500  0.38640  0.50000  1.0000 0.1993324478
C   C65       1.0  0.60740  0.24180  0.00000  1.0000 -0.1728469784
C   C66       1.0  0.39260  0.75820  0.00000  1.0000 -0.1728469784
C   C67       1.0  0.24180  0.39260  0.00000  1.0000 -0.1728469784
C   C68       1.0  0.75820  0.60740  0.00000  1.0000 -0.1728469784
C   C69       1.0  0.60740  0.75820  0.50000  1.0000 -0.1728469784
C   C70       1.0  0.39260  0.24180  0.50000  1.0000 -0.1728469784
C   C71       1.0  0.24180  0.60740  0.50000  1.0000 -0.1728469784
C   C72       1.0  0.75820  0.39260  0.50000  1.0000 -0.1728469784
C   C73       1.0  0.52110  0.22260  0.00000  1.0000 -0.1799066234
C   C74       1.0  0.47890  0.77740  0.00000  1.0000 -0.1799066234
C   C75       1.0  0.22260  0.47890  0.00000  1.0000 -0.1799066234
C   C76       1.0  0.77740  0.52110  0.00000  1.0000 -0.1799066234
C   C77       1.0  0.52110  0.77740  0.50000  1.0000 -0.1799066234
C   C78       1.0  0.47890  0.22260  0.50000  1.0000 -0.1799066234
C   C79       1.0  0.22260  0.52110  0.50000  1.0000 -0.1799066234
C   C80       1.0  0.77740  0.47890  0.50000  1.0000 -0.1799066234
C   C81       1.0  0.47270  0.30170  0.00000  1.0000 0.2075736244
C   C82       1.0  0.52730  0.69830  0.00000  1.0000 0.2075736244
C   C83       1.0  0.30170  0.52730  0.00000  1.0000 0.2075736244
C   C84       1.0  0.69830  0.47270  0.00000  1.0000 0.2075736244
C   C85       1.0  0.47270  0.69830  0.50000  1.0000 0.2075736244
C   C86       1.0  0.52730  0.30170  0.50000  1.0000 0.2075736244
C   C87       1.0  0.30170  0.47270  0.50000  1.0000 0.2075736244
C   C88       1.0  0.69830  0.52730  0.50000  1.0000 0.2075736244
S   S1        1.0  0.02778  0.18079  0.00000  1.0000 1.2689254303
S   S2        1.0  0.97222  0.81921  0.00000  1.0000 1.2689254303
S   S3        1.0  0.18079  0.97222  0.00000  1.0000 1.2689254303
S   S4        1.0  0.81921  0.02778  0.00000  1.0000 1.2689254303
S   S5        1.0  0.02778  0.81921  0.50000  1.0000 1.2689254303
S   S6        1.0  0.97222  0.18079  0.50000  1.0000 1.2689254303
S   S7        1.0  0.18079  0.02778  0.50000  1.0000 1.2689254303
S   S8        1.0  0.81921  0.97222  0.50000  1.0000 1.2689254303
N   N1        1.0  0.53100  0.36960  0.00000  1.0000 -0.31144814
N   N2        1.0  0.46900  0.63040  0.00000  1.0000 -0.31144814
N   N3        1.0  0.36960  0.46900  0.00000  1.0000 -0.31144814
N   N4        1.0  0.63040  0.53100  0.00000  1.0000 -0.31144814
N   N5        1.0  0.53100  0.63040  0.50000  1.0000 -0.31144814
N   N6        1.0  0.46900  0.36960  0.50000  1.0000 -0.31144814
N   N7        1.0  0.36960  0.53100  0.50000  1.0000 -0.31144814
N   N8        1.0  0.63040  0.46900  0.50000  1.0000 -0.31144814
O   O1        1.0  0.03213  0.12862  0.12170  1.0000 -0.722713394
O   O2        1.0  0.96787  0.87138  0.12170  1.0000 -0.722713394
O   O3        1.0  0.12862  0.96787  0.12170  1.0000 -0.722713394
O   O4        1.0  0.87138  0.03213  0.12170  1.0000 -0.722713394
O   O5        1.0  0.03213  0.87138  0.37830  1.0000 -0.722713394
O   O6        1.0  0.96787  0.12862  0.37830  1.0000 -0.722713394
O   O7        1.0  0.12862  0.03213  0.37830  1.0000 -0.722713394
O   O8        1.0  0.87138  0.96787  0.37830  1.0000 -0.722713394
O   O9        1.0  0.96787  0.87138  0.87830  1.0000 -0.722713394
O   O10       1.0  0.03213  0.12862  0.87830  1.0000 -0.722713394
O   O11       1.0  0.87138  0.03213  0.87830  1.0000 -0.722713394
O   O12       1.0  0.12862  0.96787  0.87830  1.0000 -0.722713394
O   O13       1.0  0.96787  0.12862  0.62170  1.0000 -0.722713394
O   O14       1.0  0.03213  0.87138  0.62170  1.0000 -0.722713394
O   O15       1.0  0.87138  0.96787  0.62170  1.0000 -0.722713394
O   O16       1.0  0.12862  0.03213  0.62170  1.0000 -0.722713394
O   O17       1.0  0.09052  0.24849  0.00000  1.0000 -0.531176431
O   O18       1.0  0.90948  0.75151  0.00000  1.0000 -0.531176431
O   O19       1.0  0.24849  0.90948  0.00000  1.0000 -0.531176431
O   O20       1.0  0.75151  0.09052  0.00000  1.0000 -0.531176431
O   O21       1.0  0.09052  0.75151  0.50000  1.0000 -0.531176431
O   O22       1.0  0.90948  0.24849  0.50000  1.0000 -0.531176431
O   O23       1.0  0.24849  0.09052  0.50000  1.0000 -0.531176431
O   O24       1.0  0.75151  0.90948  0.50000  1.0000 -0.531176431
