# DDEC6 charges by PACMAN v1.1 (https://github.com/mtap-research/PACMAN-charge/)
data_0000[Zn][sql]2[ASR]4
_chemical_formula_sum              "Zn4 H96 C144 S2 N40 O8"
_cell_length_a       12.4676
_cell_length_b       12.4676
_cell_length_c       30.2865
_cell_angle_alpha    82.5428
_cell_angle_beta     97.4572
_cell_angle_gamma    70.6448

_symmetry_space_group_name_H-M    "P 1"
_symmetry_Int_Tables_number       1

loop_
  _symmetry_equiv_pos_as_xyz
  'x, y, z'

loop_
  _atom_site_type_symbol
  _atom_site_label
  _atom_site_symmetry_multiplicity
  _atom_site_fract_x
  _atom_site_fract_y
  _atom_site_fract_z
  _atom_site_occupancy
  _atom_site_charge
Zn  Zn1       1.0  0.01413  0.47167  0.24357  1.0000 0.6482687149
Zn  Zn2       1.0  0.47167  0.01413  0.25643  1.0000 0.6482687149
Zn  Zn3       1.0  0.98587  0.52833  0.75643  1.0000 0.6482687149
Zn  Zn4       1.0  0.52833  0.98587  0.74357  1.0000 0.6482687149
H   H1        1.0  0.31490  0.42570  0.60940  1.0000 0.0930281676
H   H2        1.0  0.28410  0.46850  0.53040  1.0000 0.1395054435
H   H3        1.0  0.45450  0.69030  0.53840  1.0000 0.1395054435
H   H4        1.0  0.47890  0.64390  0.61640  1.0000 0.0930281676
H   H5        1.0  0.45740  0.76780  0.27630  1.0000 0.1002316435
H   H6        1.0  0.41010  0.65250  0.32950  1.0000 0.1315312539
H   H7        1.0  0.35370  0.90530  0.40400  1.0000 0.1395054435
H   H8        1.0  0.38990  0.01730  0.34530  1.0000 0.1095961485
H   H9        1.0  0.05710  0.69470  0.26750  1.0000 0.1002316435
H   H10       1.0  0.15480  0.74820  0.32800  1.0000 0.1315312539
H   H11       1.0  0.29110  0.41350  0.39060  1.0000 0.1395054435
H   H12       1.0  0.20060  0.36500  0.32850  1.0000 0.1172285854
H   H13       1.0  0.00840  0.20880  0.61350  1.0000 0.0930281676
H   H14       1.0  0.96860  0.24700  0.53460  1.0000 0.1395054435
H   H15       1.0  0.84310  0.98370  0.54210  1.0000 0.1395054435
H   H16       1.0  0.87200  0.96760  0.61870  1.0000 0.1002316435
H   H17       1.0  0.54800  0.21180  0.28040  1.0000 0.1095961485
H   H18       1.0  0.66750  0.25810  0.33180  1.0000 0.1315312539
H   H19       1.0  0.77020  0.93000  0.40640  1.0000 0.1395054435
H   H20       1.0  0.65070  0.89250  0.34880  1.0000 0.1002316435
H   H21       1.0  0.95560  0.25000  0.26940  1.0000 0.1002316435
H   H22       1.0  0.89510  0.15490  0.32770  1.0000 0.1315312539
H   H23       1.0  0.90320  0.40700  0.39800  1.0000 0.1395054435
H   H24       1.0  0.95280  0.49880  0.33610  1.0000 0.0930281676
H   H25       1.0  0.42570  0.31490  0.89060  1.0000 0.0930281676
H   H26       1.0  0.46850  0.28410  0.96960  1.0000 0.1395054435
H   H27       1.0  0.69030  0.45450  0.96160  1.0000 0.1395054435
H   H28       1.0  0.64390  0.47890  0.88360  1.0000 0.0930281676
H   H29       1.0  0.76780  0.45740  0.22370  1.0000 0.1002316435
H   H30       1.0  0.65250  0.41010  0.17050  1.0000 0.1315312539
H   H31       1.0  0.90530  0.35370  0.09600  1.0000 0.1395054435
H   H32       1.0  0.01730  0.38990  0.15470  1.0000 0.1095961485
H   H33       1.0  0.69470  0.05710  0.23250  1.0000 0.1002316435
H   H34       1.0  0.74820  0.15480  0.17200  1.0000 0.1315312539
H   H35       1.0  0.41350  0.29110  0.10940  1.0000 0.1395054435
H   H36       1.0  0.36500  0.20060  0.17150  1.0000 0.1172285854
H   H37       1.0  0.20880  0.00840  0.88650  1.0000 0.0930281676
H   H38       1.0  0.24700  0.96860  0.96540  1.0000 0.1395054435
H   H39       1.0  0.98370  0.84310  0.95790  1.0000 0.1395054435
H   H40       1.0  0.96760  0.87200  0.88130  1.0000 0.1002316435
H   H41       1.0  0.21180  0.54800  0.21960  1.0000 0.1095961485
H   H42       1.0  0.25810  0.66750  0.16820  1.0000 0.1315312539
H   H43       1.0  0.93000  0.77020  0.09360  1.0000 0.1395054435
H   H44       1.0  0.89250  0.65070  0.15120  1.0000 0.1002316435
H   H45       1.0  0.25000  0.95560  0.23060  1.0000 0.1002316435
H   H46       1.0  0.15490  0.89510  0.17230  1.0000 0.1315312539
H   H47       1.0  0.40700  0.90320  0.10200  1.0000 0.1395054435
H   H48       1.0  0.49880  0.95280  0.16390  1.0000 0.0930281676
H   H49       1.0  0.68510  0.57430  0.39060  1.0000 0.0930281676
H   H50       1.0  0.71590  0.53150  0.46960  1.0000 0.1395054435
H   H51       1.0  0.54550  0.30970  0.46160  1.0000 0.1395054435
H   H52       1.0  0.52110  0.35610  0.38360  1.0000 0.0930281676
H   H53       1.0  0.54260  0.23220  0.72370  1.0000 0.1002316435
H   H54       1.0  0.58990  0.34750  0.67050  1.0000 0.1315312539
H   H55       1.0  0.64630  0.09470  0.59600  1.0000 0.1395054435
H   H56       1.0  0.61010  0.98270  0.65470  1.0000 0.1095961485
H   H57       1.0  0.94290  0.30530  0.73250  1.0000 0.1002316435
H   H58       1.0  0.84520  0.25180  0.67200  1.0000 0.1315312539
H   H59       1.0  0.70890  0.58650  0.60940  1.0000 0.1395054435
H   H60       1.0  0.79940  0.63500  0.67150  1.0000 0.1172285854
H   H61       1.0  0.99160  0.79120  0.38650  1.0000 0.0930281676
H   H62       1.0  0.03140  0.75300  0.46540  1.0000 0.1395054435
H   H63       1.0  0.15690  0.01630  0.45790  1.0000 0.1395054435
H   H64       1.0  0.12800  0.03240  0.38130  1.0000 0.1002316435
H   H65       1.0  0.45200  0.78820  0.71960  1.0000 0.1095961485
H   H66       1.0  0.33250  0.74190  0.66820  1.0000 0.1315312539
H   H67       1.0  0.22980  0.07000  0.59360  1.0000 0.1395054435
H   H68       1.0  0.34930  0.10750  0.65120  1.0000 0.1002316435
H   H69       1.0  0.04440  0.75000  0.73060  1.0000 0.1002316435
H   H70       1.0  0.10490  0.84510  0.67230  1.0000 0.1315312539
H   H71       1.0  0.09680  0.59300  0.60200  1.0000 0.1395054435
H   H72       1.0  0.04720  0.50120  0.66390  1.0000 0.0930281676
H   H73       1.0  0.57430  0.68510  0.10940  1.0000 0.0930281676
H   H74       1.0  0.53150  0.71590  0.03040  1.0000 0.1395054435
H   H75       1.0  0.30970  0.54550  0.03840  1.0000 0.1395054435
H   H76       1.0  0.35610  0.52110  0.11640  1.0000 0.0930281676
H   H77       1.0  0.23220  0.54260  0.77630  1.0000 0.1002316435
H   H78       1.0  0.34750  0.58990  0.82950  1.0000 0.1315312539
H   H79       1.0  0.09470  0.64630  0.90400  1.0000 0.1395054435
H   H80       1.0  0.98270  0.61010  0.84530  1.0000 0.1095961485
H   H81       1.0  0.30530  0.94290  0.76750  1.0000 0.1002316435
H   H82       1.0  0.25180  0.84520  0.82800  1.0000 0.1315312539
H   H83       1.0  0.58650  0.70890  0.89060  1.0000 0.1395054435
H   H84       1.0  0.63500  0.79940  0.82850  1.0000 0.1172285854
H   H85       1.0  0.79120  0.99160  0.11350  1.0000 0.0930281676
H   H86       1.0  0.75300  0.03140  0.03460  1.0000 0.1395054435
H   H87       1.0  0.01630  0.15690  0.04210  1.0000 0.1395054435
H   H88       1.0  0.03240  0.12800  0.11870  1.0000 0.1002316435
H   H89       1.0  0.78820  0.45200  0.78040  1.0000 0.1095961485
H   H90       1.0  0.74190  0.33250  0.83180  1.0000 0.1315312539
H   H91       1.0  0.07000  0.22980  0.90640  1.0000 0.1395054435
H   H92       1.0  0.10750  0.34930  0.84880  1.0000 0.1002316435
H   H93       1.0  0.75000  0.04440  0.76940  1.0000 0.1002316435
H   H94       1.0  0.84510  0.10490  0.82770  1.0000 0.1315312539
H   H95       1.0  0.59300  0.09680  0.89800  1.0000 0.1395054435
H   H96       1.0  0.50120  0.04720  0.83610  1.0000 0.0930281676
C   C1        1.0  0.34830  0.61090  0.47720  1.0000 0.3213879917
C   C2        1.0  0.35040  0.69160  0.40790  1.0000 0.0682766257
C   C3        1.0  0.29240  0.61120  0.40540  1.0000 0.0811111008
C   C4        1.0  0.34260  0.48120  0.59530  1.0000 0.0682766257
C   C5        1.0  0.32440  0.50620  0.54780  1.0000 -0.1605063375
C   C6        1.0  0.36370  0.58330  0.52680  1.0000 0.0682766257
C   C7        1.0  0.42400  0.63660  0.55220  1.0000 -0.1496663145
C   C8        1.0  0.43760  0.60780  0.59870  1.0000 0.0517595836
C   C9        1.0  0.43440  0.79660  0.30240  1.0000 0.0412754392
C   C10       1.0  0.40780  0.72700  0.33420  1.0000 -0.1821681332
C   C11       1.0  0.37730  0.76470  0.37330  1.0000 0.1095961485
C   C12       1.0  0.37300  0.87520  0.37770  1.0000 -0.1821681332
C   C13       1.0  0.39730  0.94030  0.34270  1.0000 0.0930281676
C   C14       1.0  0.10480  0.63740  0.29270  1.0000 0.0682766257
C   C15       1.0  0.16270  0.66950  0.32860  1.0000 -0.2107891232
C   C16       1.0  0.23360  0.58200  0.36610  1.0000 0.1002316435
C   C17       1.0  0.24470  0.47230  0.36570  1.0000 -0.1605063375
C   C18       1.0  0.18890  0.44410  0.32910  1.0000 0.0517595836
C   C19       1.0  0.87290  0.14010  0.47890  1.0000 0.3034249399
C   C20       1.0  0.80330  0.13010  0.41090  1.0000 0.0599542702
C   C21       1.0  0.86330  0.20570  0.40850  1.0000 0.0682766257
C   C22       1.0  0.97220  0.16420  0.59820  1.0000 0.0682766257
C   C23       1.0  0.94990  0.18750  0.55110  1.0000 -0.1605063375
C   C24       1.0  0.89890  0.11950  0.52890  1.0000 0.0811111008
C   C25       1.0  0.87440  0.03380  0.55590  1.0000 -0.1496663145
C   C26       1.0  0.89510  0.02230  0.60130  1.0000 0.0517595836
C   C27       1.0  0.59300  0.15460  0.30600  1.0000 0.0599542702
C   C28       1.0  0.66410  0.18250  0.33660  1.0000 -0.2107891232
C   C29       1.0  0.73330  0.10150  0.37560  1.0000 0.1172285854
C   C30       1.0  0.72670  0.98850  0.38090  1.0000 -0.1995709683
C   C31       1.0  0.65240  0.96860  0.34650  1.0000 0.0599542702
C   C32       1.0  0.94240  0.28280  0.29570  1.0000 0.0930281676
C   C33       1.0  0.90800  0.22460  0.33090  1.0000 -0.1937729861
C   C34       1.0  0.89290  0.26810  0.37020  1.0000 0.1172285854
C   C35       1.0  0.91150  0.37310  0.37170  1.0000 -0.1937729861
C   C36       1.0  0.94240  0.42720  0.33470  1.0000 0.0811111008
C   C37       1.0  0.61090  0.34830  0.02280  1.0000 0.3213879917
C   C38       1.0  0.69160  0.35040  0.09210  1.0000 0.0682766257
C   C39       1.0  0.61120  0.29240  0.09460  1.0000 0.0811111008
C   C40       1.0  0.48120  0.34260  0.90470  1.0000 0.0682766257
C   C41       1.0  0.50620  0.32440  0.95220  1.0000 -0.1605063375
C   C42       1.0  0.58330  0.36370  0.97320  1.0000 0.0682766257
C   C43       1.0  0.63660  0.42400  0.94780  1.0000 -0.1496663145
C   C44       1.0  0.60780  0.43760  0.90130  1.0000 0.0517595836
C   C45       1.0  0.79660  0.43440  0.19760  1.0000 0.0412754392
C   C46       1.0  0.72700  0.40780  0.16580  1.0000 -0.1821681332
C   C47       1.0  0.76470  0.37730  0.12670  1.0000 0.1095961485
C   C48       1.0  0.87520  0.37300  0.12230  1.0000 -0.1821681332
C   C49       1.0  0.94030  0.39730  0.15730  1.0000 0.0930281676
C   C50       1.0  0.63740  0.10480  0.20730  1.0000 0.0682766257
C   C51       1.0  0.66950  0.16270  0.17140  1.0000 -0.2107891232
C   C52       1.0  0.58200  0.23360  0.13390  1.0000 0.1002316435
C   C53       1.0  0.47230  0.24470  0.13430  1.0000 -0.1605063375
C   C54       1.0  0.44410  0.18890  0.17090  1.0000 0.0517595836
C   C55       1.0  0.14010  0.87290  0.02110  1.0000 0.3034249399
C   C56       1.0  0.13010  0.80330  0.08910  1.0000 0.0599542702
C   C57       1.0  0.20570  0.86330  0.09150  1.0000 0.0682766257
C   C58       1.0  0.16420  0.97220  0.90180  1.0000 0.0682766257
C   C59       1.0  0.18750  0.94990  0.94890  1.0000 -0.1605063375
C   C60       1.0  0.11950  0.89890  0.97110  1.0000 0.0811111008
C   C61       1.0  0.03380  0.87440  0.94410  1.0000 -0.1496663145
C   C62       1.0  0.02230  0.89510  0.89870  1.0000 0.0517595836
C   C63       1.0  0.15460  0.59300  0.19400  1.0000 0.0599542702
C   C64       1.0  0.18250  0.66410  0.16340  1.0000 -0.2107891232
C   C65       1.0  0.10150  0.73330  0.12440  1.0000 0.1172285854
C   C66       1.0  0.98850  0.72670  0.11910  1.0000 -0.1995709683
C   C67       1.0  0.96860  0.65240  0.15350  1.0000 0.0599542702
C   C68       1.0  0.28280  0.94240  0.20430  1.0000 0.0930281676
C   C69       1.0  0.22460  0.90800  0.16910  1.0000 -0.1937729861
C   C70       1.0  0.26810  0.89290  0.12980  1.0000 0.1172285854
C   C71       1.0  0.37310  0.91150  0.12830  1.0000 -0.1937729861
C   C72       1.0  0.42720  0.94240  0.16530  1.0000 0.0811111008
C   C73       1.0  0.65170  0.38910  0.52280  1.0000 0.3213879917
C   C74       1.0  0.64960  0.30840  0.59210  1.0000 0.0682766257
C   C75       1.0  0.70760  0.38880  0.59460  1.0000 0.0811111008
C   C76       1.0  0.65740  0.51880  0.40470  1.0000 0.0682766257
C   C77       1.0  0.67560  0.49380  0.45220  1.0000 -0.1605063375
C   C78       1.0  0.63630  0.41670  0.47320  1.0000 0.0682766257
C   C79       1.0  0.57600  0.36340  0.44780  1.0000 -0.1496663145
C   C80       1.0  0.56240  0.39220  0.40130  1.0000 0.0517595836
C   C81       1.0  0.56560  0.20340  0.69760  1.0000 0.0412754392
C   C82       1.0  0.59220  0.27300  0.66580  1.0000 -0.1821681332
C   C83       1.0  0.62270  0.23530  0.62670  1.0000 0.1095961485
C   C84       1.0  0.62700  0.12480  0.62230  1.0000 -0.1821681332
C   C85       1.0  0.60270  0.05970  0.65730  1.0000 0.0930281676
C   C86       1.0  0.89520  0.36260  0.70730  1.0000 0.0811111008
C   C87       1.0  0.83730  0.33050  0.67140  1.0000 -0.2107891232
C   C88       1.0  0.76640  0.41800  0.63390  1.0000 0.1002316435
C   C89       1.0  0.75530  0.52770  0.63430  1.0000 -0.1605063375
C   C90       1.0  0.81110  0.55590  0.67090  1.0000 0.0517595836
C   C91       1.0  0.12710  0.85990  0.52110  1.0000 0.3034249399
C   C92       1.0  0.19670  0.86990  0.58910  1.0000 0.0599542702
C   C93       1.0  0.13670  0.79430  0.59150  1.0000 0.0682766257
C   C94       1.0  0.02780  0.83580  0.40180  1.0000 0.0682766257
C   C95       1.0  0.05010  0.81250  0.44890  1.0000 -0.1605063375
C   C96       1.0  0.10110  0.88050  0.47110  1.0000 0.0811111008
C   C97       1.0  0.12560  0.96620  0.44410  1.0000 -0.1496663145
C   C98       1.0  0.10490  0.97770  0.39870  1.0000 0.0517595836
C   C99       1.0  0.40700  0.84540  0.69400  1.0000 0.0599542702
C   C100      1.0  0.33590  0.81750  0.66340  1.0000 -0.2107891232
C   C101      1.0  0.26670  0.89850  0.62440  1.0000 0.1172285854
C   C102      1.0  0.27330  0.01150  0.61910  1.0000 -0.1995709683
C   C103      1.0  0.34760  0.03140  0.65350  1.0000 0.0599542702
C   C104      1.0  0.05760  0.71720  0.70430  1.0000 0.0930281676
C   C105      1.0  0.09200  0.77540  0.66910  1.0000 -0.1937729861
C   C106      1.0  0.10710  0.73190  0.62980  1.0000 0.1172285854
C   C107      1.0  0.08850  0.62690  0.62830  1.0000 -0.1937729861
C   C108      1.0  0.05760  0.57280  0.66530  1.0000 0.0811111008
C   C109      1.0  0.38910  0.65170  0.97720  1.0000 0.3213879917
C   C110      1.0  0.30840  0.64960  0.90790  1.0000 0.0682766257
C   C111      1.0  0.38880  0.70760  0.90540  1.0000 0.0811111008
C   C112      1.0  0.51880  0.65740  0.09530  1.0000 0.0682766257
C   C113      1.0  0.49380  0.67560  0.04780  1.0000 -0.1605063375
C   C114      1.0  0.41670  0.63630  0.02680  1.0000 0.0682766257
C   C115      1.0  0.36340  0.57600  0.05220  1.0000 -0.1496663145
C   C116      1.0  0.39220  0.56240  0.09870  1.0000 0.0517595836
C   C117      1.0  0.20340  0.56560  0.80240  1.0000 0.0412754392
C   C118      1.0  0.27300  0.59220  0.83420  1.0000 -0.1821681332
C   C119      1.0  0.23530  0.62270  0.87330  1.0000 0.1095961485
C   C120      1.0  0.12480  0.62700  0.87770  1.0000 -0.1821681332
C   C121      1.0  0.05970  0.60270  0.84270  1.0000 0.0930281676
C   C122      1.0  0.36260  0.89520  0.79270  1.0000 0.0682766257
C   C123      1.0  0.33050  0.83730  0.82860  1.0000 -0.2107891232
C   C124      1.0  0.41800  0.76640  0.86610  1.0000 0.1002316435
C   C125      1.0  0.52770  0.75530  0.86570  1.0000 -0.1605063375
C   C126      1.0  0.55590  0.81110  0.82910  1.0000 0.0517595836
C   C127      1.0  0.85990  0.12710  0.97890  1.0000 0.3034249399
C   C128      1.0  0.86990  0.19670  0.91090  1.0000 0.0599542702
C   C129      1.0  0.79430  0.13670  0.90850  1.0000 0.0682766257
C   C130      1.0  0.83580  0.02780  0.09820  1.0000 0.0682766257
C   C131      1.0  0.81250  0.05010  0.05110  1.0000 -0.1605063375
C   C132      1.0  0.88050  0.10110  0.02890  1.0000 0.0811111008
C   C133      1.0  0.96620  0.12560  0.05590  1.0000 -0.1496663145
C   C134      1.0  0.97770  0.10490  0.10130  1.0000 0.0517595836
C   C135      1.0  0.84540  0.40700  0.80600  1.0000 0.0599542702
C   C136      1.0  0.81750  0.33590  0.83660  1.0000 -0.2107891232
C   C137      1.0  0.89850  0.26670  0.87560  1.0000 0.1172285854
C   C138      1.0  0.01150  0.27330  0.88090  1.0000 -0.1995709683
C   C139      1.0  0.03140  0.34760  0.84650  1.0000 0.0599542702
C   C140      1.0  0.71720  0.05760  0.79570  1.0000 0.0930281676
C   C141      1.0  0.77540  0.09200  0.83090  1.0000 -0.1937729861
C   C142      1.0  0.73190  0.10710  0.87020  1.0000 0.1172285854
C   C143      1.0  0.62690  0.08850  0.87170  1.0000 -0.1937729861
C   C144      1.0  0.57280  0.05760  0.83470  1.0000 0.0811111008
S   S1        1.0  0.21095  0.21095  0.25000  1.0000 1.3689966355
S   S2        1.0  0.78905  0.78905  0.75000  1.0000 1.3689966355
N   N1        1.0  0.38079  0.68861  0.45419  1.0000 -0.393136331
N   N2        1.0  0.29095  0.56365  0.44855  1.0000 -0.4136860143
N   N3        1.0  0.39740  0.53280  0.62120  1.0000 -0.2588805255
N   N4        1.0  0.42980  0.90420  0.30620  1.0000 -0.2269208197
N   N5        1.0  0.11659  0.52741  0.29359  1.0000 -0.2269208197
N   N6        1.0  0.81040  0.08880  0.45580  1.0000 -0.393136331
N   N7        1.0  0.90706  0.21034  0.45176  1.0000 -0.393136331
N   N8        1.0  0.94680  0.08440  0.62330  1.0000 -0.2588805255
N   N9        1.0  0.58340  0.04820  0.31040  1.0000 -0.2445168007
N   N10       1.0  0.95718  0.38362  0.29848  1.0000 -0.2248361852
N   N11       1.0  0.68861  0.38079  0.04581  1.0000 -0.393136331
N   N12       1.0  0.56365  0.29095  0.05145  1.0000 -0.4136860143
N   N13       1.0  0.53280  0.39740  0.87880  1.0000 -0.2588805255
N   N14       1.0  0.90420  0.42980  0.19380  1.0000 -0.2269208197
N   N15       1.0  0.52741  0.11659  0.20641  1.0000 -0.2269208197
N   N16       1.0  0.08880  0.81040  0.04420  1.0000 -0.393136331
N   N17       1.0  0.21034  0.90706  0.04824  1.0000 -0.3953975584
N   N18       1.0  0.08440  0.94680  0.87670  1.0000 -0.2588805255
N   N19       1.0  0.04820  0.58340  0.18960  1.0000 -0.2445168007
N   N20       1.0  0.38362  0.95718  0.20152  1.0000 -0.2269208197
N   N21       1.0  0.61921  0.31139  0.54581  1.0000 -0.393136331
N   N22       1.0  0.70905  0.43635  0.55145  1.0000 -0.4136860143
N   N23       1.0  0.60260  0.46720  0.37880  1.0000 -0.2588805255
N   N24       1.0  0.57020  0.09580  0.69380  1.0000 -0.2269208197
N   N25       1.0  0.88341  0.47259  0.70641  1.0000 -0.2269208197
N   N26       1.0  0.18960  0.91120  0.54420  1.0000 -0.393136331
N   N27       1.0  0.09294  0.78966  0.54824  1.0000 -0.3953975584
N   N28       1.0  0.05320  0.91560  0.37670  1.0000 -0.2588805255
N   N29       1.0  0.41660  0.95180  0.68960  1.0000 -0.2445168007
N   N30       1.0  0.04282  0.61638  0.70152  1.0000 -0.2269208197
N   N31       1.0  0.31139  0.61921  0.95419  1.0000 -0.393136331
N   N32       1.0  0.43635  0.70905  0.94855  1.0000 -0.4136860143
N   N33       1.0  0.46720  0.60260  0.12120  1.0000 -0.2588805255
N   N34       1.0  0.09580  0.57020  0.80620  1.0000 -0.2269208197
N   N35       1.0  0.47259  0.88341  0.79359  1.0000 -0.2269208197
N   N36       1.0  0.91120  0.18960  0.95580  1.0000 -0.393136331
N   N37       1.0  0.78966  0.09294  0.95176  1.0000 -0.393136331
N   N38       1.0  0.91560  0.05320  0.12330  1.0000 -0.2588805255
N   N39       1.0  0.95180  0.41660  0.81040  1.0000 -0.2445168007
N   N40       1.0  0.61638  0.04282  0.79848  1.0000 -0.2269208197
O   O1        1.0  0.16530  0.17990  0.20920  1.0000 -0.6552225199
O   O2        1.0  0.16800  0.33580  0.24460  1.0000 -0.6273593452
O   O3        1.0  0.17990  0.16530  0.29080  1.0000 -0.6552225199
O   O4        1.0  0.33580  0.16800  0.25540  1.0000 -0.6273593452
O   O5        1.0  0.83470  0.82010  0.79080  1.0000 -0.6536035981
O   O6        1.0  0.83200  0.66420  0.75540  1.0000 -0.6273593452
O   O7        1.0  0.82010  0.83470  0.70920  1.0000 -0.6536035981
O   O8        1.0  0.66420  0.83200  0.74460  1.0000 -0.6273593452
