# DDEC6 charges by PACMAN v1.1 (https://github.com/mtap-research/PACMAN-charge/)
data_0000[Cu][tbo]3[ASR]1
_chemical_formula_sum              "Cu12 H192 C312 N8 O48"
_cell_length_a       43.0699
_cell_length_b       43.0699
_cell_length_c       43.0699
_cell_angle_alpha    60
_cell_angle_beta     60
_cell_angle_gamma    60

_symmetry_space_group_name_H-M    "P 1"
_symmetry_Int_Tables_number       1

loop_
  _symmetry_equiv_pos_as_xyz
  'x, y, z'

loop_
  _atom_site_type_symbol
  _atom_site_label
  _atom_site_symmetry_multiplicity
  _atom_site_fract_x
  _atom_site_fract_y
  _atom_site_fract_z
  _atom_site_occupancy
  _atom_site_charge
Cu  Cu1       1.0  0.00000  0.46952  0.53048  1.0000 0.8714674324
Cu  Cu2       1.0  0.46952  0.00000  0.00000  1.0000 0.8714674324
Cu  Cu3       1.0  0.53048  0.00000  0.00000  1.0000 0.8714674324
Cu  Cu4       1.0  0.00000  0.53048  0.46952  1.0000 0.8714674324
Cu  Cu5       1.0  0.53048  0.00000  0.46952  1.0000 0.8714674324
Cu  Cu6       1.0  0.00000  0.46952  0.00000  1.0000 0.8714674324
Cu  Cu7       1.0  0.00000  0.53048  0.00000  1.0000 0.8714674324
Cu  Cu8       1.0  0.46952  0.00000  0.53048  1.0000 0.8714674324
Cu  Cu9       1.0  0.46952  0.53048  0.00000  1.0000 0.8714674324
Cu  Cu10      1.0  0.00000  0.00000  0.46952  1.0000 0.8714674324
Cu  Cu11      1.0  0.00000  0.00000  0.53048  1.0000 0.8714674324
Cu  Cu12      1.0  0.53048  0.46952  0.00000  1.0000 0.8714674324
H   H1        1.0  0.88160  0.50540  0.59320  1.0000 0.1352358701
H   H2        1.0  0.50540  0.88160  0.01980  1.0000 0.1352358701
H   H3        1.0  0.59320  0.01980  0.88160  1.0000 0.1352358701
H   H4        1.0  0.01980  0.59320  0.50540  1.0000 0.1352358701
H   H5        1.0  0.59320  0.88160  0.50540  1.0000 0.1352358701
H   H6        1.0  0.01980  0.50540  0.88160  1.0000 0.1352358701
H   H7        1.0  0.88160  0.59320  0.01980  1.0000 0.1352358701
H   H8        1.0  0.50540  0.01980  0.59320  1.0000 0.1352358701
H   H9        1.0  0.50540  0.59320  0.88160  1.0000 0.1352358701
H   H10       1.0  0.88160  0.01980  0.50540  1.0000 0.1352358701
H   H11       1.0  0.01980  0.88160  0.59320  1.0000 0.1352358701
H   H12       1.0  0.59320  0.50540  0.01980  1.0000 0.1352358701
H   H13       1.0  0.11840  0.49460  0.98020  1.0000 0.1352358701
H   H14       1.0  0.49460  0.11840  0.40680  1.0000 0.1352358701
H   H15       1.0  0.40680  0.98020  0.49460  1.0000 0.1352358701
H   H16       1.0  0.98020  0.40680  0.11840  1.0000 0.1352358701
H   H17       1.0  0.40680  0.11840  0.98020  1.0000 0.1352358701
H   H18       1.0  0.98020  0.49460  0.40680  1.0000 0.1352358701
H   H19       1.0  0.11840  0.40680  0.49460  1.0000 0.1352358701
H   H20       1.0  0.49460  0.98020  0.11840  1.0000 0.1352358701
H   H21       1.0  0.49460  0.40680  0.98020  1.0000 0.1352358701
H   H22       1.0  0.11840  0.98020  0.40680  1.0000 0.1352358701
H   H23       1.0  0.98020  0.11840  0.49460  1.0000 0.1352358701
H   H24       1.0  0.40680  0.49460  0.11840  1.0000 0.1352358701
H   H25       1.0  0.81780  0.53520  0.62200  1.0000 0.1119718083
H   H26       1.0  0.53520  0.81780  0.02500  1.0000 0.1119718083
H   H27       1.0  0.62200  0.02500  0.81780  1.0000 0.1119718083
H   H28       1.0  0.02500  0.62200  0.53520  1.0000 0.1119718083
H   H29       1.0  0.62200  0.81780  0.53520  1.0000 0.1119718083
H   H30       1.0  0.02500  0.53520  0.81780  1.0000 0.1119718083
H   H31       1.0  0.81780  0.62200  0.02500  1.0000 0.1119718083
H   H32       1.0  0.53520  0.02500  0.62200  1.0000 0.1119718083
H   H33       1.0  0.53520  0.62200  0.81780  1.0000 0.1119718083
H   H34       1.0  0.81780  0.02500  0.53520  1.0000 0.1119718083
H   H35       1.0  0.02500  0.81780  0.62200  1.0000 0.1119718083
H   H36       1.0  0.62200  0.53520  0.02500  1.0000 0.1119718083
H   H37       1.0  0.18220  0.46480  0.97500  1.0000 0.1119718083
H   H38       1.0  0.46480  0.18220  0.37800  1.0000 0.1119718083
H   H39       1.0  0.37800  0.97500  0.46480  1.0000 0.1119718083
H   H40       1.0  0.97500  0.37800  0.18220  1.0000 0.1119718083
H   H41       1.0  0.37800  0.18220  0.97500  1.0000 0.1119718083
H   H42       1.0  0.97500  0.46480  0.37800  1.0000 0.1119718083
H   H43       1.0  0.18220  0.37800  0.46480  1.0000 0.1119718083
H   H44       1.0  0.46480  0.97500  0.18220  1.0000 0.1119718083
H   H45       1.0  0.46480  0.37800  0.97500  1.0000 0.1119718083
H   H46       1.0  0.18220  0.97500  0.37800  1.0000 0.1119718083
H   H47       1.0  0.97500  0.18220  0.46480  1.0000 0.1119718083
H   H48       1.0  0.37800  0.46480  0.18220  1.0000 0.1119718083
H   H49       1.0  0.81990  0.62950  0.52990  1.0000 0.1119718083
H   H50       1.0  0.62950  0.81990  0.02070  1.0000 0.1119718083
H   H51       1.0  0.52990  0.02070  0.81990  1.0000 0.1119718083
H   H52       1.0  0.02070  0.52990  0.62950  1.0000 0.1119718083
H   H53       1.0  0.52990  0.81990  0.62950  1.0000 0.1119718083
H   H54       1.0  0.02070  0.62950  0.81990  1.0000 0.1119718083
H   H55       1.0  0.81990  0.52990  0.02070  1.0000 0.1119718083
H   H56       1.0  0.62950  0.02070  0.52990  1.0000 0.1119718083
H   H57       1.0  0.62950  0.52990  0.81990  1.0000 0.1119718083
H   H58       1.0  0.81990  0.02070  0.62950  1.0000 0.1119718083
H   H59       1.0  0.02070  0.81990  0.52990  1.0000 0.1119718083
H   H60       1.0  0.52990  0.62950  0.02070  1.0000 0.1119718083
H   H61       1.0  0.18010  0.37050  0.97930  1.0000 0.1119718083
H   H62       1.0  0.37050  0.18010  0.47010  1.0000 0.1119718083
H   H63       1.0  0.47010  0.97930  0.37050  1.0000 0.1119718083
H   H64       1.0  0.97930  0.47010  0.18010  1.0000 0.1119718083
H   H65       1.0  0.47010  0.18010  0.97930  1.0000 0.1119718083
H   H66       1.0  0.97930  0.37050  0.47010  1.0000 0.1119718083
H   H67       1.0  0.18010  0.47010  0.37050  1.0000 0.1119718083
H   H68       1.0  0.37050  0.97930  0.18010  1.0000 0.1119718083
H   H69       1.0  0.37050  0.47010  0.97930  1.0000 0.1119718083
H   H70       1.0  0.18010  0.97930  0.47010  1.0000 0.1119718083
H   H71       1.0  0.97930  0.18010  0.37050  1.0000 0.1119718083
H   H72       1.0  0.47010  0.37050  0.18010  1.0000 0.1119718083
H   H73       1.0  0.88370  0.59990  0.50110  1.0000 0.1285513753
H   H74       1.0  0.59990  0.88370  0.01530  1.0000 0.1285513753
H   H75       1.0  0.50110  0.01530  0.88370  1.0000 0.1285513753
H   H76       1.0  0.01530  0.50110  0.59990  1.0000 0.1285513753
H   H77       1.0  0.50110  0.88370  0.59990  1.0000 0.1285513753
H   H78       1.0  0.01530  0.59990  0.88370  1.0000 0.1285513753
H   H79       1.0  0.88370  0.50110  0.01530  1.0000 0.1285513753
H   H80       1.0  0.59990  0.01530  0.50110  1.0000 0.1285513753
H   H81       1.0  0.59990  0.50110  0.88370  1.0000 0.1285513753
H   H82       1.0  0.88370  0.01530  0.59990  1.0000 0.1285513753
H   H83       1.0  0.01530  0.88370  0.50110  1.0000 0.1285513753
H   H84       1.0  0.50110  0.59990  0.01530  1.0000 0.1285513753
H   H85       1.0  0.11630  0.40010  0.98470  1.0000 0.1285513753
H   H86       1.0  0.40010  0.11630  0.49890  1.0000 0.1285513753
H   H87       1.0  0.49890  0.98470  0.40010  1.0000 0.1285513753
H   H88       1.0  0.98470  0.49890  0.11630  1.0000 0.1285513753
H   H89       1.0  0.49890  0.11630  0.98470  1.0000 0.1285513753
H   H90       1.0  0.98470  0.40010  0.49890  1.0000 0.1285513753
H   H91       1.0  0.11630  0.49890  0.40010  1.0000 0.1285513753
H   H92       1.0  0.40010  0.98470  0.11630  1.0000 0.1285513753
H   H93       1.0  0.40010  0.49890  0.98470  1.0000 0.1285513753
H   H94       1.0  0.11630  0.98470  0.49890  1.0000 0.1285513753
H   H95       1.0  0.98470  0.11630  0.40010  1.0000 0.1285513753
H   H96       1.0  0.49890  0.40010  0.11630  1.0000 0.1285513753
H   H97       1.0  0.77530  0.57790  0.64850  1.0000 0.1119718083
H   H98       1.0  0.57790  0.77530  0.99830  1.0000 0.1119718083
H   H99       1.0  0.64850  0.99830  0.77530  1.0000 0.1119718083
H   H100      1.0  0.99830  0.64850  0.57790  1.0000 0.1119718083
H   H101      1.0  0.64850  0.77530  0.57790  1.0000 0.1119718083
H   H102      1.0  0.99830  0.57790  0.77530  1.0000 0.1119718083
H   H103      1.0  0.77530  0.64850  0.99830  1.0000 0.1119718083
H   H104      1.0  0.57790  0.99830  0.64850  1.0000 0.1119718083
H   H105      1.0  0.57790  0.64850  0.77530  1.0000 0.1119718083
H   H106      1.0  0.77530  0.99830  0.57790  1.0000 0.1119718083
H   H107      1.0  0.99830  0.77530  0.64850  1.0000 0.1119718083
H   H108      1.0  0.64850  0.57790  0.99830  1.0000 0.1119718083
H   H109      1.0  0.22470  0.42210  0.00170  1.0000 0.1155968653
H   H110      1.0  0.42210  0.22470  0.35150  1.0000 0.1119718083
H   H111      1.0  0.35150  0.00170  0.42210  1.0000 0.1119718083
H   H112      1.0  0.00170  0.35150  0.22470  1.0000 0.1119718083
H   H113      1.0  0.35150  0.22470  0.00170  1.0000 0.1119718083
H   H114      1.0  0.00170  0.42210  0.35150  1.0000 0.1119718083
H   H115      1.0  0.22470  0.35150  0.42210  1.0000 0.1119718083
H   H116      1.0  0.42210  0.00170  0.22470  1.0000 0.1119718083
H   H117      1.0  0.42210  0.35150  0.00170  1.0000 0.1119718083
H   H118      1.0  0.22470  0.00170  0.35150  1.0000 0.1119718083
H   H119      1.0  0.00170  0.22470  0.42210  1.0000 0.1119718083
H   H120      1.0  0.35150  0.42210  0.22470  1.0000 0.1119718083
H   H121      1.0  0.71170  0.60330  0.68130  1.0000 0.1285513753
H   H122      1.0  0.60330  0.71170  0.00370  1.0000 0.1285513753
H   H123      1.0  0.68130  0.00370  0.71170  1.0000 0.1285513753
H   H124      1.0  0.00370  0.68130  0.60330  1.0000 0.1285513753
H   H125      1.0  0.68130  0.71170  0.60330  1.0000 0.1285513753
H   H126      1.0  0.00370  0.60330  0.71170  1.0000 0.1285513753
H   H127      1.0  0.71170  0.68130  0.00370  1.0000 0.1285513753
H   H128      1.0  0.60330  0.00370  0.68130  1.0000 0.1285513753
H   H129      1.0  0.60330  0.68130  0.71170  1.0000 0.1285513753
H   H130      1.0  0.71170  0.00370  0.60330  1.0000 0.1285513753
H   H131      1.0  0.00370  0.71170  0.68130  1.0000 0.1285513753
H   H132      1.0  0.68130  0.60330  0.00370  1.0000 0.1285513753
H   H133      1.0  0.28830  0.39670  0.99630  1.0000 0.1285513753
H   H134      1.0  0.39670  0.28830  0.31870  1.0000 0.1285513753
H   H135      1.0  0.31870  0.99630  0.39670  1.0000 0.1285513753
H   H136      1.0  0.99630  0.31870  0.28830  1.0000 0.1285513753
H   H137      1.0  0.31870  0.28830  0.99630  1.0000 0.1285513753
H   H138      1.0  0.99630  0.39670  0.31870  1.0000 0.1285513753
H   H139      1.0  0.28830  0.31870  0.39670  1.0000 0.1285513753
H   H140      1.0  0.39670  0.99630  0.28830  1.0000 0.1285513753
H   H141      1.0  0.39670  0.31870  0.99630  1.0000 0.1285513753
H   H142      1.0  0.28830  0.99630  0.31870  1.0000 0.1285513753
H   H143      1.0  0.99630  0.28830  0.39670  1.0000 0.1285513753
H   H144      1.0  0.31870  0.39670  0.28830  1.0000 0.1285513753
H   H145      1.0  0.68980  0.66260  0.58280  1.0000 0.1285513753
H   H146      1.0  0.66260  0.68980  0.06480  1.0000 0.1285513753
H   H147      1.0  0.58280  0.06480  0.68980  1.0000 0.1285513753
H   H148      1.0  0.06480  0.58280  0.66260  1.0000 0.1285513753
H   H149      1.0  0.58280  0.68980  0.66260  1.0000 0.1285513753
H   H150      1.0  0.06480  0.66260  0.68980  1.0000 0.1285513753
H   H151      1.0  0.68980  0.58280  0.06480  1.0000 0.1285513753
H   H152      1.0  0.66260  0.06480  0.58280  1.0000 0.1285513753
H   H153      1.0  0.66260  0.58280  0.68980  1.0000 0.1285513753
H   H154      1.0  0.68980  0.06480  0.66260  1.0000 0.1285513753
H   H155      1.0  0.06480  0.68980  0.58280  1.0000 0.1285513753
H   H156      1.0  0.58280  0.66260  0.06480  1.0000 0.1285513753
H   H157      1.0  0.31020  0.33740  0.93520  1.0000 0.1285513753
H   H158      1.0  0.33740  0.31020  0.41720  1.0000 0.1285513753
H   H159      1.0  0.41720  0.93520  0.33740  1.0000 0.1285513753
H   H160      1.0  0.93520  0.41720  0.31020  1.0000 0.1285513753
H   H161      1.0  0.41720  0.31020  0.93520  1.0000 0.1285513753
H   H162      1.0  0.93520  0.33740  0.41720  1.0000 0.1285513753
H   H163      1.0  0.31020  0.41720  0.33740  1.0000 0.1285513753
H   H164      1.0  0.33740  0.93520  0.31020  1.0000 0.1285513753
H   H165      1.0  0.33740  0.41720  0.93520  1.0000 0.1285513753
H   H166      1.0  0.31020  0.93520  0.41720  1.0000 0.1285513753
H   H167      1.0  0.93520  0.31020  0.33740  1.0000 0.1285513753
H   H168      1.0  0.41720  0.33740  0.31020  1.0000 0.1285513753
H   H169      1.0  0.75340  0.63740  0.55000  1.0000 0.1155968653
H   H170      1.0  0.63740  0.75340  0.05920  1.0000 0.1155968653
H   H171      1.0  0.55000  0.05920  0.75340  1.0000 0.1155968653
H   H172      1.0  0.05920  0.55000  0.63740  1.0000 0.1155968653
H   H173      1.0  0.55000  0.75340  0.63740  1.0000 0.1155968653
H   H174      1.0  0.05920  0.63740  0.75340  1.0000 0.1155968653
H   H175      1.0  0.75340  0.55000  0.05920  1.0000 0.1155968653
H   H176      1.0  0.63740  0.05920  0.55000  1.0000 0.1155968653
H   H177      1.0  0.63740  0.55000  0.75340  1.0000 0.1155968653
H   H178      1.0  0.75340  0.05920  0.63740  1.0000 0.1155968653
H   H179      1.0  0.05920  0.75340  0.55000  1.0000 0.1155968653
H   H180      1.0  0.55000  0.63740  0.05920  1.0000 0.1155968653
H   H181      1.0  0.24660  0.36260  0.94080  1.0000 0.1155968653
H   H182      1.0  0.36260  0.24660  0.45000  1.0000 0.1155968653
H   H183      1.0  0.45000  0.94080  0.36260  1.0000 0.1155968653
H   H184      1.0  0.94080  0.45000  0.24660  1.0000 0.1155968653
H   H185      1.0  0.45000  0.24660  0.94080  1.0000 0.1155968653
H   H186      1.0  0.94080  0.36260  0.45000  1.0000 0.1155968653
H   H187      1.0  0.24660  0.45000  0.36260  1.0000 0.1155968653
H   H188      1.0  0.36260  0.94080  0.24660  1.0000 0.1155968653
H   H189      1.0  0.36260  0.45000  0.94080  1.0000 0.1155968653
H   H190      1.0  0.24660  0.94080  0.45000  1.0000 0.1155968653
H   H191      1.0  0.94080  0.24660  0.36260  1.0000 0.1155968653
H   H192      1.0  0.45000  0.36260  0.24660  1.0000 0.1155968653
C   C1        1.0  0.93420  0.53026  0.52600  1.0000 0.5603909776
C   C2        1.0  0.53026  0.93420  0.00954  1.0000 0.5603909776
C   C3        1.0  0.52600  0.00954  0.93420  1.0000 0.5603909776
C   C4        1.0  0.00954  0.52600  0.53026  1.0000 0.5603909776
C   C5        1.0  0.52600  0.93420  0.53026  1.0000 0.5603909776
C   C6        1.0  0.00954  0.53026  0.93420  1.0000 0.5603909776
C   C7        1.0  0.93420  0.52600  0.00954  1.0000 0.5603909776
C   C8        1.0  0.53026  0.00954  0.52600  1.0000 0.5603909776
C   C9        1.0  0.53026  0.52600  0.93420  1.0000 0.5603909776
C   C10       1.0  0.93420  0.00954  0.53026  1.0000 0.5603909776
C   C11       1.0  0.00954  0.93420  0.52600  1.0000 0.5603909776
C   C12       1.0  0.52600  0.53026  0.00954  1.0000 0.5603909776
C   C13       1.0  0.06580  0.46974  0.99046  1.0000 0.5603909776
C   C14       1.0  0.46974  0.06580  0.47400  1.0000 0.5603909776
C   C15       1.0  0.47400  0.99046  0.46974  1.0000 0.5603909776
C   C16       1.0  0.99046  0.47400  0.06580  1.0000 0.5603909776
C   C17       1.0  0.47400  0.06580  0.99046  1.0000 0.5603909776
C   C18       1.0  0.99046  0.46974  0.47400  1.0000 0.5603909776
C   C19       1.0  0.06580  0.47400  0.46974  1.0000 0.5603909776
C   C20       1.0  0.46974  0.99046  0.06580  1.0000 0.5603909776
C   C21       1.0  0.46974  0.47400  0.99046  1.0000 0.5603909776
C   C22       1.0  0.06580  0.99046  0.47400  1.0000 0.5603909776
C   C23       1.0  0.99046  0.06580  0.46974  1.0000 0.5603909776
C   C24       1.0  0.47400  0.46974  0.06580  1.0000 0.5603909776
C   C25       1.0  0.88893  0.54977  0.54429  1.0000 0.0113147928
C   C26       1.0  0.54977  0.88893  0.01701  1.0000 0.0113147928
C   C27       1.0  0.54429  0.01701  0.88893  1.0000 0.0113147928
C   C28       1.0  0.01701  0.54429  0.54977  1.0000 0.0113147928
C   C29       1.0  0.54429  0.88893  0.54977  1.0000 0.0113147928
C   C30       1.0  0.01701  0.54977  0.88893  1.0000 0.0113147928
C   C31       1.0  0.88893  0.54429  0.01701  1.0000 0.0113147928
C   C32       1.0  0.54977  0.01701  0.54429  1.0000 0.0113147928
C   C33       1.0  0.54977  0.54429  0.88893  1.0000 0.0113147928
C   C34       1.0  0.88893  0.01701  0.54977  1.0000 0.0113147928
C   C35       1.0  0.01701  0.88893  0.54429  1.0000 0.0113147928
C   C36       1.0  0.54429  0.54977  0.01701  1.0000 0.0113147928
C   C37       1.0  0.11107  0.45023  0.98299  1.0000 0.0113147928
C   C38       1.0  0.45023  0.11107  0.45571  1.0000 0.0113147928
C   C39       1.0  0.45571  0.98299  0.45023  1.0000 0.0113147928
C   C40       1.0  0.98299  0.45571  0.11107  1.0000 0.0113147928
C   C41       1.0  0.45571  0.11107  0.98299  1.0000 0.0113147928
C   C42       1.0  0.98299  0.45023  0.45571  1.0000 0.0113147928
C   C43       1.0  0.11107  0.45571  0.45023  1.0000 0.0113147928
C   C44       1.0  0.45023  0.98299  0.11107  1.0000 0.0113147928
C   C45       1.0  0.45023  0.45571  0.98299  1.0000 0.0113147928
C   C46       1.0  0.11107  0.98299  0.45571  1.0000 0.0113147928
C   C47       1.0  0.98299  0.11107  0.45023  1.0000 0.0113147928
C   C48       1.0  0.45571  0.45023  0.11107  1.0000 0.0113147928
C   C49       1.0  0.86922  0.53038  0.58048  1.0000 -0.1082435001
C   C50       1.0  0.53038  0.86922  0.01992  1.0000 -0.1082435001
C   C51       1.0  0.58048  0.01992  0.86922  1.0000 -0.1082435001
C   C52       1.0  0.01992  0.58048  0.53038  1.0000 -0.1082435001
C   C53       1.0  0.58048  0.86922  0.53038  1.0000 -0.1082435001
C   C54       1.0  0.01992  0.53038  0.86922  1.0000 -0.1082435001
C   C55       1.0  0.86922  0.58048  0.01992  1.0000 -0.1082435001
C   C56       1.0  0.53038  0.01992  0.58048  1.0000 -0.1082435001
C   C57       1.0  0.53038  0.58048  0.86922  1.0000 -0.1082435001
C   C58       1.0  0.86922  0.01992  0.53038  1.0000 -0.1082435001
C   C59       1.0  0.01992  0.86922  0.58048  1.0000 -0.1082435001
C   C60       1.0  0.58048  0.53038  0.01992  1.0000 -0.1082435001
C   C61       1.0  0.13078  0.46962  0.98008  1.0000 -0.1082435001
C   C62       1.0  0.46962  0.13078  0.41952  1.0000 -0.1082435001
C   C63       1.0  0.41952  0.98008  0.46962  1.0000 -0.1082435001
C   C64       1.0  0.98008  0.41952  0.13078  1.0000 -0.1082435001
C   C65       1.0  0.41952  0.13078  0.98008  1.0000 -0.1082435001
C   C66       1.0  0.98008  0.46962  0.41952  1.0000 -0.1082435001
C   C67       1.0  0.13078  0.41952  0.46962  1.0000 -0.1082435001
C   C68       1.0  0.46962  0.98008  0.13078  1.0000 -0.1082435001
C   C69       1.0  0.46962  0.41952  0.98008  1.0000 -0.1082435001
C   C70       1.0  0.13078  0.98008  0.41952  1.0000 -0.1082435001
C   C71       1.0  0.98008  0.13078  0.46962  1.0000 -0.1082435001
C   C72       1.0  0.41952  0.46962  0.13078  1.0000 -0.1082435001
C   C73       1.0  0.83101  0.54815  0.59773  1.0000 -0.1517541224
C   C74       1.0  0.54815  0.83101  0.02311  1.0000 -0.1517541224
C   C75       1.0  0.59773  0.02311  0.83101  1.0000 -0.1517541224
C   C76       1.0  0.02311  0.59773  0.54815  1.0000 -0.1517541224
C   C77       1.0  0.59773  0.83101  0.54815  1.0000 -0.1517541224
C   C78       1.0  0.02311  0.54815  0.83101  1.0000 -0.1517541224
C   C79       1.0  0.83101  0.59773  0.02311  1.0000 -0.1517541224
C   C80       1.0  0.54815  0.02311  0.59773  1.0000 -0.1517541224
C   C81       1.0  0.54815  0.59773  0.83101  1.0000 -0.1517541224
C   C82       1.0  0.83101  0.02311  0.54815  1.0000 -0.1517541224
C   C83       1.0  0.02311  0.83101  0.59773  1.0000 -0.1517541224
C   C84       1.0  0.59773  0.54815  0.02311  1.0000 -0.1517541224
C   C85       1.0  0.16899  0.45185  0.97689  1.0000 -0.1517541224
C   C86       1.0  0.45185  0.16899  0.40227  1.0000 -0.1517541224
C   C87       1.0  0.40227  0.97689  0.45185  1.0000 -0.1517541224
C   C88       1.0  0.97689  0.40227  0.16899  1.0000 -0.1517541224
C   C89       1.0  0.40227  0.16899  0.97689  1.0000 -0.1517541224
C   C90       1.0  0.97689  0.45185  0.40227  1.0000 -0.1517541224
C   C91       1.0  0.16899  0.40227  0.45185  1.0000 -0.1517541224
C   C92       1.0  0.45185  0.97689  0.16899  1.0000 -0.1517541224
C   C93       1.0  0.45185  0.40227  0.97689  1.0000 -0.1517541224
C   C94       1.0  0.16899  0.97689  0.40227  1.0000 -0.1517541224
C   C95       1.0  0.97689  0.16899  0.45185  1.0000 -0.1517541224
C   C96       1.0  0.40227  0.45185  0.16899  1.0000 -0.1517541224
C   C97       1.0  0.81251  0.58533  0.57877  1.0000 0.0686174905
C   C98       1.0  0.58533  0.81251  0.02339  1.0000 0.0686174905
C   C99       1.0  0.57877  0.02339  0.81251  1.0000 0.0686174905
C   C100      1.0  0.02339  0.57877  0.58533  1.0000 0.0686174905
C   C101      1.0  0.57877  0.81251  0.58533  1.0000 0.0686174905
C   C102      1.0  0.02339  0.58533  0.81251  1.0000 0.0686174905
C   C103      1.0  0.81251  0.57877  0.02339  1.0000 0.0686174905
C   C104      1.0  0.58533  0.02339  0.57877  1.0000 0.0686174905
C   C105      1.0  0.58533  0.57877  0.81251  1.0000 0.0686174905
C   C106      1.0  0.81251  0.02339  0.58533  1.0000 0.0686174905
C   C107      1.0  0.02339  0.81251  0.57877  1.0000 0.0686174905
C   C108      1.0  0.57877  0.58533  0.02339  1.0000 0.0686174905
C   C109      1.0  0.18749  0.41467  0.97661  1.0000 0.0686174905
C   C110      1.0  0.41467  0.18749  0.42123  1.0000 0.0686174905
C   C111      1.0  0.42123  0.97661  0.41467  1.0000 0.0686174905
C   C112      1.0  0.97661  0.42123  0.18749  1.0000 0.0686174905
C   C113      1.0  0.42123  0.18749  0.97661  1.0000 0.0686174905
C   C114      1.0  0.97661  0.41467  0.42123  1.0000 0.0686174905
C   C115      1.0  0.18749  0.42123  0.41467  1.0000 0.0686174905
C   C116      1.0  0.41467  0.97661  0.18749  1.0000 0.0686174905
C   C117      1.0  0.41467  0.42123  0.97661  1.0000 0.0686174905
C   C118      1.0  0.18749  0.97661  0.42123  1.0000 0.0686174905
C   C119      1.0  0.97661  0.18749  0.41467  1.0000 0.0686174905
C   C120      1.0  0.42123  0.41467  0.18749  1.0000 0.0686174905
C   C121      1.0  0.83222  0.60472  0.54258  1.0000 -0.1517541224
C   C122      1.0  0.60472  0.83222  0.02048  1.0000 -0.1517541224
C   C123      1.0  0.54258  0.02048  0.83222  1.0000 -0.1517541224
C   C124      1.0  0.02048  0.54258  0.60472  1.0000 -0.1517541224
C   C125      1.0  0.54258  0.83222  0.60472  1.0000 -0.1517541224
C   C126      1.0  0.02048  0.60472  0.83222  1.0000 -0.1517541224
C   C127      1.0  0.83222  0.54258  0.02048  1.0000 -0.1517541224
C   C128      1.0  0.60472  0.02048  0.54258  1.0000 -0.1517541224
C   C129      1.0  0.60472  0.54258  0.83222  1.0000 -0.1517541224
C   C130      1.0  0.83222  0.02048  0.60472  1.0000 -0.1517541224
C   C131      1.0  0.02048  0.83222  0.54258  1.0000 -0.1517541224
C   C132      1.0  0.54258  0.60472  0.02048  1.0000 -0.1517541224
C   C133      1.0  0.16778  0.39528  0.97952  1.0000 -0.1517541224
C   C134      1.0  0.39528  0.16778  0.45742  1.0000 -0.1517541224
C   C135      1.0  0.45742  0.97952  0.39528  1.0000 -0.1517541224
C   C136      1.0  0.97952  0.45742  0.16778  1.0000 -0.1517541224
C   C137      1.0  0.45742  0.16778  0.97952  1.0000 -0.1517541224
C   C138      1.0  0.97952  0.39528  0.45742  1.0000 -0.1517541224
C   C139      1.0  0.16778  0.45742  0.39528  1.0000 -0.1517541224
C   C140      1.0  0.39528  0.97952  0.16778  1.0000 -0.1517541224
C   C141      1.0  0.39528  0.45742  0.97952  1.0000 -0.1517541224
C   C142      1.0  0.16778  0.97952  0.45742  1.0000 -0.1517541224
C   C143      1.0  0.97952  0.16778  0.39528  1.0000 -0.1517541224
C   C144      1.0  0.45742  0.39528  0.16778  1.0000 -0.1517541224
C   C145      1.0  0.87043  0.58695  0.52533  1.0000 -0.0998274801
C   C146      1.0  0.58695  0.87043  0.01729  1.0000 -0.0998274801
C   C147      1.0  0.52533  0.01729  0.87043  1.0000 -0.0998274801
C   C148      1.0  0.01729  0.52533  0.58695  1.0000 -0.0998274801
C   C149      1.0  0.52533  0.87043  0.58695  1.0000 -0.0998274801
C   C150      1.0  0.01729  0.58695  0.87043  1.0000 -0.0998274801
C   C151      1.0  0.87043  0.52533  0.01729  1.0000 -0.0998274801
C   C152      1.0  0.58695  0.01729  0.52533  1.0000 -0.0998274801
C   C153      1.0  0.58695  0.52533  0.87043  1.0000 -0.0998274801
C   C154      1.0  0.87043  0.01729  0.58695  1.0000 -0.0998274801
C   C155      1.0  0.01729  0.87043  0.52533  1.0000 -0.0998274801
C   C156      1.0  0.52533  0.58695  0.01729  1.0000 -0.0998274801
C   C157      1.0  0.12957  0.41305  0.98271  1.0000 -0.0998274801
C   C158      1.0  0.41305  0.12957  0.47467  1.0000 -0.0998274801
C   C159      1.0  0.47467  0.98271  0.41305  1.0000 -0.0998274801
C   C160      1.0  0.98271  0.47467  0.12957  1.0000 -0.0998274801
C   C161      1.0  0.47467  0.12957  0.98271  1.0000 -0.0998274801
C   C162      1.0  0.98271  0.41305  0.47467  1.0000 -0.0998274801
C   C163      1.0  0.12957  0.47467  0.41305  1.0000 -0.0998274801
C   C164      1.0  0.41305  0.98271  0.12957  1.0000 -0.0998274801
C   C165      1.0  0.41305  0.47467  0.98271  1.0000 -0.0998274801
C   C166      1.0  0.12957  0.98271  0.47467  1.0000 -0.0998274801
C   C167      1.0  0.98271  0.12957  0.41305  1.0000 -0.0998274801
C   C168      1.0  0.47467  0.41305  0.12957  1.0000 -0.0998274801
C   C169      1.0  0.77071  0.60511  0.59599  1.0000 0.0636597243
C   C170      1.0  0.60511  0.77071  0.02819  1.0000 0.0636597243
C   C171      1.0  0.59599  0.02819  0.77071  1.0000 0.0636597243
C   C172      1.0  0.02819  0.59599  0.60511  1.0000 0.0636597243
C   C173      1.0  0.59599  0.77071  0.60511  1.0000 0.0636597243
C   C174      1.0  0.02819  0.60511  0.77071  1.0000 0.0636597243
C   C175      1.0  0.77071  0.59599  0.02819  1.0000 0.0636597243
C   C176      1.0  0.60511  0.02819  0.59599  1.0000 0.0636597243
C   C177      1.0  0.60511  0.59599  0.77071  1.0000 0.0636597243
C   C178      1.0  0.77071  0.02819  0.60511  1.0000 0.0636597243
C   C179      1.0  0.02819  0.77071  0.59599  1.0000 0.0636597243
C   C180      1.0  0.59599  0.60511  0.02819  1.0000 0.0636597243
C   C181      1.0  0.22929  0.39489  0.97181  1.0000 0.0636597243
C   C182      1.0  0.39489  0.22929  0.40401  1.0000 0.0636597243
C   C183      1.0  0.40401  0.97181  0.39489  1.0000 0.0636597243
C   C184      1.0  0.97181  0.40401  0.22929  1.0000 0.0636597243
C   C185      1.0  0.40401  0.22929  0.97181  1.0000 0.0636597243
C   C186      1.0  0.97181  0.39489  0.40401  1.0000 0.0636597243
C   C187      1.0  0.22929  0.40401  0.39489  1.0000 0.0636597243
C   C188      1.0  0.39489  0.97181  0.22929  1.0000 0.0636597243
C   C189      1.0  0.39489  0.40401  0.97181  1.0000 0.0636597243
C   C190      1.0  0.22929  0.97181  0.40401  1.0000 0.0636597243
C   C191      1.0  0.97181  0.22929  0.39489  1.0000 0.0636597243
C   C192      1.0  0.40401  0.39489  0.22929  1.0000 0.0636597243
C   C193      1.0  0.75820  0.59492  0.63532  1.0000 -0.1384030893
C   C194      1.0  0.59492  0.75820  0.01156  1.0000 -0.1384030893
C   C195      1.0  0.63532  0.01156  0.75820  1.0000 -0.1384030893
C   C196      1.0  0.01156  0.63532  0.59492  1.0000 -0.1384030893
C   C197      1.0  0.63532  0.75820  0.59492  1.0000 -0.1384030893
C   C198      1.0  0.01156  0.59492  0.75820  1.0000 -0.1384030893
C   C199      1.0  0.75820  0.63532  0.01156  1.0000 -0.1384030893
C   C200      1.0  0.59492  0.01156  0.63532  1.0000 -0.1384030893
C   C201      1.0  0.59492  0.63532  0.75820  1.0000 -0.1384030893
C   C202      1.0  0.75820  0.01156  0.59492  1.0000 -0.1384030893
C   C203      1.0  0.01156  0.75820  0.63532  1.0000 -0.1384030893
C   C204      1.0  0.63532  0.59492  0.01156  1.0000 -0.1384030893
C   C205      1.0  0.24180  0.40508  0.98844  1.0000 -0.1384030893
C   C206      1.0  0.40508  0.24180  0.36468  1.0000 -0.1384030893
C   C207      1.0  0.36468  0.98844  0.40508  1.0000 -0.1384030893
C   C208      1.0  0.98844  0.36468  0.24180  1.0000 -0.1384030893
C   C209      1.0  0.36468  0.24180  0.98844  1.0000 -0.1384030893
C   C210      1.0  0.98844  0.40508  0.36468  1.0000 -0.1384030893
C   C211      1.0  0.24180  0.36468  0.40508  1.0000 -0.1384030893
C   C212      1.0  0.40508  0.98844  0.24180  1.0000 -0.1384030893
C   C213      1.0  0.40508  0.36468  0.98844  1.0000 -0.1384030893
C   C214      1.0  0.24180  0.98844  0.36468  1.0000 -0.1384030893
C   C215      1.0  0.98844  0.24180  0.40508  1.0000 -0.1384030893
C   C216      1.0  0.36468  0.40508  0.24180  1.0000 -0.1384030893
C   C217      1.0  0.72005  0.61009  0.65499  1.0000 -0.1811167174
C   C218      1.0  0.61009  0.72005  0.01487  1.0000 -0.1811167174
C   C219      1.0  0.65499  0.01487  0.72005  1.0000 -0.1811167174
C   C220      1.0  0.01487  0.65499  0.61009  1.0000 -0.1811167174
C   C221      1.0  0.65499  0.72005  0.61009  1.0000 -0.1811167174
C   C222      1.0  0.01487  0.61009  0.72005  1.0000 -0.1811167174
C   C223      1.0  0.72005  0.65499  0.01487  1.0000 -0.1811167174
C   C224      1.0  0.61009  0.01487  0.65499  1.0000 -0.1811167174
C   C225      1.0  0.61009  0.65499  0.72005  1.0000 -0.1811167174
C   C226      1.0  0.72005  0.01487  0.61009  1.0000 -0.1811167174
C   C227      1.0  0.01487  0.72005  0.65499  1.0000 -0.1811167174
C   C228      1.0  0.65499  0.61009  0.01487  1.0000 -0.1811167174
C   C229      1.0  0.27995  0.38991  0.98513  1.0000 -0.1811167174
C   C230      1.0  0.38991  0.27995  0.34501  1.0000 -0.1811167174
C   C231      1.0  0.34501  0.98513  0.38991  1.0000 -0.1811167174
C   C232      1.0  0.98513  0.34501  0.27995  1.0000 -0.1811167174
C   C233      1.0  0.34501  0.27995  0.98513  1.0000 -0.1811167174
C   C234      1.0  0.98513  0.38991  0.34501  1.0000 -0.1811167174
C   C235      1.0  0.27995  0.34501  0.38991  1.0000 -0.1811167174
C   C236      1.0  0.38991  0.98513  0.27995  1.0000 -0.1811167174
C   C237      1.0  0.38991  0.34501  0.98513  1.0000 -0.1811167174
C   C238      1.0  0.27995  0.98513  0.34501  1.0000 -0.1811167174
C   C239      1.0  0.98513  0.27995  0.38991  1.0000 -0.1811167174
C   C240      1.0  0.34501  0.38991  0.27995  1.0000 -0.1811167174
C   C241      1.0  0.69443  0.63547  0.63533  1.0000 0.1660980648
C   C242      1.0  0.63547  0.69443  0.03477  1.0000 0.1660980648
C   C243      1.0  0.63533  0.03477  0.69443  1.0000 0.1660980648
C   C244      1.0  0.03477  0.63533  0.63547  1.0000 0.1660980648
C   C245      1.0  0.63533  0.69443  0.63547  1.0000 0.1660980648
C   C246      1.0  0.03477  0.63547  0.69443  1.0000 0.1660980648
C   C247      1.0  0.69443  0.63533  0.03477  1.0000 0.1660980648
C   C248      1.0  0.63547  0.03477  0.63533  1.0000 0.1660980648
C   C249      1.0  0.63547  0.63533  0.69443  1.0000 0.1660980648
C   C250      1.0  0.69443  0.03477  0.63547  1.0000 0.1660980648
C   C251      1.0  0.03477  0.69443  0.63533  1.0000 0.1660980648
C   C252      1.0  0.63533  0.63547  0.03477  1.0000 0.1660980648
C   C253      1.0  0.30557  0.36453  0.96523  1.0000 0.1660980648
C   C254      1.0  0.36453  0.30557  0.36467  1.0000 0.1660980648
C   C255      1.0  0.36467  0.96523  0.36453  1.0000 0.1660980648
C   C256      1.0  0.96523  0.36467  0.30557  1.0000 0.1660980648
C   C257      1.0  0.36467  0.30557  0.96523  1.0000 0.1660980648
C   C258      1.0  0.96523  0.36453  0.36467  1.0000 0.1660980648
C   C259      1.0  0.30557  0.36467  0.36453  1.0000 0.1660980648
C   C260      1.0  0.36453  0.96523  0.30557  1.0000 0.1660980648
C   C261      1.0  0.36453  0.36467  0.96523  1.0000 0.1660980648
C   C262      1.0  0.30557  0.96523  0.36467  1.0000 0.1660980648
C   C263      1.0  0.96523  0.30557  0.36453  1.0000 0.1660980648
C   C264      1.0  0.36467  0.36453  0.30557  1.0000 0.1660980648
C   C265      1.0  0.70695  0.64565  0.59601  1.0000 -0.1811167174
C   C266      1.0  0.64565  0.70695  0.05139  1.0000 -0.1811167174
C   C267      1.0  0.59601  0.05139  0.70695  1.0000 -0.1811167174
C   C268      1.0  0.05139  0.59601  0.64565  1.0000 -0.1811167174
C   C269      1.0  0.59601  0.70695  0.64565  1.0000 -0.1811167174
C   C270      1.0  0.05139  0.64565  0.70695  1.0000 -0.1811167174
C   C271      1.0  0.70695  0.59601  0.05139  1.0000 -0.1811167174
C   C272      1.0  0.64565  0.05139  0.59601  1.0000 -0.1811167174
C   C273      1.0  0.64565  0.59601  0.70695  1.0000 -0.1811167174
C   C274      1.0  0.70695  0.05139  0.64565  1.0000 -0.1811167174
C   C275      1.0  0.05139  0.70695  0.59601  1.0000 -0.1811167174
C   C276      1.0  0.59601  0.64565  0.05139  1.0000 -0.1811167174
C   C277      1.0  0.29305  0.35435  0.94861  1.0000 -0.1811167174
C   C278      1.0  0.35435  0.29305  0.40399  1.0000 -0.1811167174
C   C279      1.0  0.40399  0.94861  0.35435  1.0000 -0.1811167174
C   C280      1.0  0.94861  0.40399  0.29305  1.0000 -0.1811167174
C   C281      1.0  0.40399  0.29305  0.94861  1.0000 -0.1811167174
C   C282      1.0  0.94861  0.35435  0.40399  1.0000 -0.1811167174
C   C283      1.0  0.29305  0.40399  0.35435  1.0000 -0.1811167174
C   C284      1.0  0.35435  0.94861  0.29305  1.0000 -0.1811167174
C   C285      1.0  0.35435  0.40399  0.94861  1.0000 -0.1811167174
C   C286      1.0  0.29305  0.94861  0.40399  1.0000 -0.1811167174
C   C287      1.0  0.94861  0.29305  0.35435  1.0000 -0.1811167174
C   C288      1.0  0.40399  0.35435  0.29305  1.0000 -0.1811167174
C   C289      1.0  0.74509  0.63049  0.57633  1.0000 -0.1517541224
C   C290      1.0  0.63049  0.74509  0.04809  1.0000 -0.1517541224
C   C291      1.0  0.57633  0.04809  0.74509  1.0000 -0.1517541224
C   C292      1.0  0.04809  0.57633  0.63049  1.0000 -0.1517541224
C   C293      1.0  0.57633  0.74509  0.63049  1.0000 -0.1517541224
C   C294      1.0  0.04809  0.63049  0.74509  1.0000 -0.1517541224
C   C295      1.0  0.74509  0.57633  0.04809  1.0000 -0.1517541224
C   C296      1.0  0.63049  0.04809  0.57633  1.0000 -0.1517541224
C   C297      1.0  0.63049  0.57633  0.74509  1.0000 -0.1517541224
C   C298      1.0  0.74509  0.04809  0.63049  1.0000 -0.1517541224
C   C299      1.0  0.04809  0.74509  0.57633  1.0000 -0.1517541224
C   C300      1.0  0.57633  0.63049  0.04809  1.0000 -0.1517541224
C   C301      1.0  0.25491  0.36951  0.95191  1.0000 -0.1517541224
C   C302      1.0  0.36951  0.25491  0.42367  1.0000 -0.1517541224
C   C303      1.0  0.42367  0.95191  0.36951  1.0000 -0.1517541224
C   C304      1.0  0.95191  0.42367  0.25491  1.0000 -0.1517541224
C   C305      1.0  0.42367  0.25491  0.95191  1.0000 -0.1517541224
C   C306      1.0  0.95191  0.36951  0.42367  1.0000 -0.1517541224
C   C307      1.0  0.25491  0.42367  0.36951  1.0000 -0.1517541224
C   C308      1.0  0.36951  0.95191  0.25491  1.0000 -0.1517541224
C   C309      1.0  0.36951  0.42367  0.95191  1.0000 -0.1517541224
C   C310      1.0  0.25491  0.95191  0.42367  1.0000 -0.1517541224
C   C311      1.0  0.95191  0.25491  0.36951  1.0000 -0.1517541224
C   C312      1.0  0.42367  0.36951  0.25491  1.0000 -0.1517541224
N   N1        1.0  0.65502  0.65502  0.65502  1.0000 -0.1811167174
N   N2        1.0  0.65502  0.65502  0.03494  1.0000 -0.1811167174
N   N3        1.0  0.65502  0.03494  0.65502  1.0000 -0.1811167174
N   N4        1.0  0.03494  0.65502  0.65502  1.0000 -0.1811167174
N   N5        1.0  0.34498  0.34498  0.96506  1.0000 -0.1811167174
N   N6        1.0  0.34498  0.34498  0.34498  1.0000 -0.1811167174
N   N7        1.0  0.34498  0.96506  0.34498  1.0000 -0.1811167174
N   N8        1.0  0.96506  0.34498  0.34498  1.0000 -0.1811167174
O   O1        1.0  0.94974  0.49348  0.54084  1.0000 -0.543366588
O   O2        1.0  0.49348  0.94974  0.01594  1.0000 -0.543366588
O   O3        1.0  0.54084  0.01594  0.94974  1.0000 -0.543366588
O   O4        1.0  0.01594  0.54084  0.49348  1.0000 -0.543366588
O   O5        1.0  0.54084  0.94974  0.49348  1.0000 -0.543366588
O   O6        1.0  0.01594  0.49348  0.94974  1.0000 -0.543366588
O   O7        1.0  0.94974  0.54084  0.01594  1.0000 -0.543366588
O   O8        1.0  0.49348  0.01594  0.54084  1.0000 -0.543366588
O   O9        1.0  0.49348  0.54084  0.94974  1.0000 -0.543366588
O   O10       1.0  0.94974  0.01594  0.49348  1.0000 -0.543366588
O   O11       1.0  0.01594  0.94974  0.54084  1.0000 -0.543366588
O   O12       1.0  0.54084  0.49348  0.01594  1.0000 -0.543366588
O   O13       1.0  0.05026  0.50652  0.98406  1.0000 -0.543366588
O   O14       1.0  0.50652  0.05026  0.45916  1.0000 -0.543366588
O   O15       1.0  0.45916  0.98406  0.50652  1.0000 -0.543366588
O   O16       1.0  0.98406  0.45916  0.05026  1.0000 -0.543366588
O   O17       1.0  0.45916  0.05026  0.98406  1.0000 -0.543366588
O   O18       1.0  0.98406  0.50652  0.45916  1.0000 -0.5451072792
O   O19       1.0  0.05026  0.45916  0.50652  1.0000 -0.543366588
O   O20       1.0  0.50652  0.98406  0.05026  1.0000 -0.543366588
O   O21       1.0  0.50652  0.45916  0.98406  1.0000 -0.543366588
O   O22       1.0  0.05026  0.98406  0.45916  1.0000 -0.5451072792
O   O23       1.0  0.98406  0.05026  0.50652  1.0000 -0.5451072792
O   O24       1.0  0.45916  0.50652  0.05026  1.0000 -0.543366588
O   O25       1.0  0.94480  0.55584  0.49386  1.0000 -0.5104418113
O   O26       1.0  0.55584  0.94480  0.00550  1.0000 -0.5104418113
O   O27       1.0  0.49386  0.00550  0.94480  1.0000 -0.5104418113
O   O28       1.0  0.00550  0.49386  0.55584  1.0000 -0.5104418113
O   O29       1.0  0.49386  0.94480  0.55584  1.0000 -0.5104418113
O   O30       1.0  0.00550  0.55584  0.94480  1.0000 -0.5104418113
O   O31       1.0  0.94480  0.49386  0.00550  1.0000 -0.5104418113
O   O32       1.0  0.55584  0.00550  0.49386  1.0000 -0.5104418113
O   O33       1.0  0.55584  0.49386  0.94480  1.0000 -0.5104418113
O   O34       1.0  0.94480  0.00550  0.55584  1.0000 -0.5104418113
O   O35       1.0  0.00550  0.94480  0.49386  1.0000 -0.5104418113
O   O36       1.0  0.49386  0.55584  0.00550  1.0000 -0.5104418113
O   O37       1.0  0.05520  0.44416  0.99450  1.0000 -0.5104418113
O   O38       1.0  0.44416  0.05520  0.50614  1.0000 -0.5104418113
O   O39       1.0  0.50614  0.99450  0.44416  1.0000 -0.5104418113
O   O40       1.0  0.99450  0.50614  0.05520  1.0000 -0.5104418113
O   O41       1.0  0.50614  0.05520  0.99450  1.0000 -0.5104418113
O   O42       1.0  0.99450  0.44416  0.50614  1.0000 -0.5104418113
O   O43       1.0  0.05520  0.50614  0.44416  1.0000 -0.5104418113
O   O44       1.0  0.44416  0.99450  0.05520  1.0000 -0.5104418113
O   O45       1.0  0.44416  0.50614  0.99450  1.0000 -0.5104418113
O   O46       1.0  0.05520  0.99450  0.50614  1.0000 -0.5104418113
O   O47       1.0  0.99450  0.05520  0.44416  1.0000 -0.5104418113
O   O48       1.0  0.50614  0.44416  0.05520  1.0000 -0.5104418113
