# DDEC6 charges by PACMAN v1.1 (https://github.com/mtap-research/PACMAN-charge/)
data_0000[Zn][nan]3[ASR]10
_chemical_formula_sum              "Zn8 H44 C48 N28 O12"
_cell_length_a       8.018
_cell_length_b       21.04
_cell_length_c       11.069
_cell_angle_alpha    90
_cell_angle_beta     91.26
_cell_angle_gamma    90

_symmetry_space_group_name_H-M    "P 1"
_symmetry_Int_Tables_number       1

loop_
  _symmetry_equiv_pos_as_xyz
  'x, y, z'

loop_
  _atom_site_type_symbol
  _atom_site_label
  _atom_site_symmetry_multiplicity
  _atom_site_fract_x
  _atom_site_fract_y
  _atom_site_fract_z
  _atom_site_occupancy
  _atom_site_charge
Zn  Zn1       1.0  0.89663  0.38645  0.72331  1.0000 0.8113997274
Zn  Zn2       1.0  0.10337  0.88645  0.77669  1.0000 0.8113997274
Zn  Zn3       1.0  0.10337  0.61355  0.27669  1.0000 0.8113997274
Zn  Zn4       1.0  0.89663  0.11355  0.22331  1.0000 0.8113997274
Zn  Zn5       1.0  0.18479  0.30832  0.86446  1.0000 0.7492417537
Zn  Zn6       1.0  0.81521  0.80832  0.63554  1.0000 0.7492417537
Zn  Zn7       1.0  0.81521  0.69168  0.13554  1.0000 0.7492417537
Zn  Zn8       1.0  0.18479  0.19168  0.36446  1.0000 0.7492417537
H   H1        1.0  0.03690  0.40610  0.92180  1.0000 0.4095321464
H   H2        1.0  0.96310  0.90610  0.57820  1.0000 0.4095321464
H   H3        1.0  0.96310  0.59390  0.07820  1.0000 0.4095321464
H   H4        1.0  0.03690  0.09390  0.42180  1.0000 0.4095321464
H   H5        1.0  0.43200  0.39660  0.36920  1.0000 0.1236321547
H   H6        1.0  0.56800  0.89660  0.13080  1.0000 0.1236321547
H   H7        1.0  0.56800  0.60340  0.63080  1.0000 0.1236321547
H   H8        1.0  0.43200  0.10340  0.86920  1.0000 0.1236321547
H   H9        1.0  0.19550  0.50990  0.60450  1.0000 0.129830469
H   H10       1.0  0.80450  0.00990  0.89550  1.0000 0.129830469
H   H11       1.0  0.80450  0.49010  0.39550  1.0000 0.129830469
H   H12       1.0  0.19550  0.99010  0.10450  1.0000 0.129830469
H   H13       1.0  0.54840  0.33920  0.53030  1.0000 0.129830469
H   H14       1.0  0.45160  0.83920  0.96970  1.0000 0.129830469
H   H15       1.0  0.45160  0.66080  0.46970  1.0000 0.129830469
H   H16       1.0  0.54840  0.16080  0.03030  1.0000 0.129830469
H   H17       1.0  0.31480  0.45340  0.76400  1.0000 0.129830469
H   H18       1.0  0.68520  0.95340  0.73600  1.0000 0.129830469
H   H19       1.0  0.68520  0.54660  0.23600  1.0000 0.129830469
H   H20       1.0  0.31480  0.04660  0.26400  1.0000 0.129830469
H   H21       1.0  0.25330  0.14380  0.64730  1.0000 0.1709745172
H   H22       1.0  0.74670  0.64380  0.85270  1.0000 0.1709745172
H   H23       1.0  0.74670  0.85620  0.35270  1.0000 0.1709745172
H   H24       1.0  0.25330  0.35620  0.14730  1.0000 0.1709745172
H   H25       1.0  0.40530  0.18740  0.61680  1.0000 0.1616830918
H   H26       1.0  0.59470  0.68740  0.88320  1.0000 0.1616830918
H   H27       1.0  0.59470  0.81260  0.38320  1.0000 0.1616830918
H   H28       1.0  0.40530  0.31260  0.11680  1.0000 0.1616830918
H   H29       1.0  0.32950  0.18930  0.74610  1.0000 0.1616830918
H   H30       1.0  0.67050  0.68930  0.75390  1.0000 0.1616830918
H   H31       1.0  0.67050  0.81070  0.25390  1.0000 0.1616830918
H   H32       1.0  0.32950  0.31070  0.24610  1.0000 0.1616830918
H   H33       1.0  0.88270  0.36680  0.43660  1.0000 0.1709745172
H   H34       1.0  0.11730  0.86680  0.06340  1.0000 0.1709745172
H   H35       1.0  0.11730  0.63320  0.56340  1.0000 0.1709745172
H   H36       1.0  0.88270  0.13320  0.93660  1.0000 0.1709745172
H   H37       1.0  0.02760  0.34600  0.35240  1.0000 0.1709745172
H   H38       1.0  0.97240  0.84600  0.14760  1.0000 0.1709745172
H   H39       1.0  0.97240  0.65400  0.64760  1.0000 0.1709745172
H   H40       1.0  0.02760  0.15400  0.85240  1.0000 0.1709745172
H   H41       1.0  0.87230  0.30170  0.36770  1.0000 0.1616830918
H   H42       1.0  0.12770  0.80170  0.13230  1.0000 0.1616830918
H   H43       1.0  0.12770  0.69830  0.63230  1.0000 0.1616830918
H   H44       1.0  0.87230  0.19830  0.86770  1.0000 0.1616830918
C   C1        1.0  0.22960  0.49690  0.36580  1.0000 0.5665616982
C   C2        1.0  0.77040  0.99690  0.13420  1.0000 0.5665616982
C   C3        1.0  0.77040  0.50310  0.63420  1.0000 0.5665616982
C   C4        1.0  0.22960  0.00310  0.86580  1.0000 0.5665616982
C   C5        1.0  0.30200  0.45910  0.47100  1.0000 -0.0132790513
C   C6        1.0  0.69800  0.95910  0.02900  1.0000 -0.0132790513
C   C7        1.0  0.69800  0.54090  0.52900  1.0000 -0.0132790513
C   C8        1.0  0.30200  0.04090  0.97100  1.0000 -0.0132790513
C   C9        1.0  0.40820  0.40780  0.44830  1.0000 -0.1032474793
C   C10       1.0  0.59180  0.90780  0.05170  1.0000 -0.1032474793
C   C11       1.0  0.59180  0.59220  0.55170  1.0000 -0.1032474793
C   C12       1.0  0.40820  0.09220  0.94830  1.0000 -0.1032474793
C   C13       1.0  0.26640  0.47600  0.58940  1.0000 -0.0917695619
C   C14       1.0  0.73360  0.97600  0.91060  1.0000 -0.0917695619
C   C15       1.0  0.73360  0.52400  0.41060  1.0000 -0.0917695619
C   C16       1.0  0.26640  0.02400  0.08940  1.0000 -0.0917695619
C   C17       1.0  0.47830  0.37340  0.54510  1.0000 -0.1259727001
C   C18       1.0  0.52170  0.87340  0.95490  1.0000 -0.1259727001
C   C19       1.0  0.52170  0.62660  0.45490  1.0000 -0.1259727001
C   C20       1.0  0.47830  0.12660  0.04510  1.0000 -0.1259727001
C   C21       1.0  0.33770  0.44180  0.68500  1.0000 -0.1210670013
C   C22       1.0  0.66230  0.94180  0.81500  1.0000 -0.1210670013
C   C23       1.0  0.66230  0.55820  0.31500  1.0000 -0.1210670013
C   C24       1.0  0.33770  0.05820  0.18500  1.0000 -0.1210670013
C   C25       1.0  0.44310  0.39030  0.66380  1.0000 0.0256972082
C   C26       1.0  0.55690  0.89030  0.83620  1.0000 0.0256972082
C   C27       1.0  0.55690  0.60970  0.33620  1.0000 0.0256972082
C   C28       1.0  0.44310  0.10970  0.16380  1.0000 0.0256972082
C   C29       1.0  0.52110  0.35310  0.76570  1.0000 0.2763136767
C   C30       1.0  0.47890  0.85310  0.73430  1.0000 0.2763136767
C   C31       1.0  0.47890  0.64690  0.23430  1.0000 0.2763136767
C   C32       1.0  0.52110  0.14690  0.26570  1.0000 0.2763136767
C   C33       1.0  0.30420  0.18450  0.66140  1.0000 -0.5293733246
C   C34       1.0  0.69580  0.68450  0.83860  1.0000 -0.5293733246
C   C35       1.0  0.69580  0.81550  0.33860  1.0000 -0.5293733246
C   C36       1.0  0.30420  0.31550  0.16140  1.0000 -0.5293733246
C   C37       1.0  0.18700  0.23580  0.62100  1.0000 0.4095321464
C   C38       1.0  0.81300  0.73580  0.87900  1.0000 0.4095321464
C   C39       1.0  0.81300  0.76420  0.37900  1.0000 0.4095321464
C   C40       1.0  0.18700  0.26420  0.12100  1.0000 0.4095321464
C   C41       1.0  0.03150  0.29920  0.51240  1.0000 0.4095321464
C   C42       1.0  0.96850  0.79920  0.98760  1.0000 0.4095321464
C   C43       1.0  0.96850  0.70080  0.48760  1.0000 0.4095321464
C   C44       1.0  0.03150  0.20080  0.01240  1.0000 0.4095321464
C   C45       1.0  0.94590  0.33130  0.40790  1.0000 -0.5242998806
C   C46       1.0  0.05410  0.83130  0.09210  1.0000 -0.5293733246
C   C47       1.0  0.05410  0.66870  0.59210  1.0000 -0.5242998806
C   C48       1.0  0.94590  0.16870  0.90790  1.0000 -0.5242998806
N   N1        1.0  0.13590  0.24790  0.50490  1.0000 -0.4493500597
N   N2        1.0  0.86410  0.74790  0.99510  1.0000 -0.4493500597
N   N3        1.0  0.86410  0.75210  0.49510  1.0000 -0.4493500597
N   N4        1.0  0.13590  0.25210  0.00490  1.0000 -0.4493500597
N   N5        1.0  0.01840  0.31810  0.62550  1.0000 -0.2806708298
N   N6        1.0  0.98160  0.81810  0.87450  1.0000 -0.2806708298
N   N7        1.0  0.98160  0.68190  0.37450  1.0000 -0.2806708298
N   N8        1.0  0.01840  0.18190  0.12550  1.0000 -0.2806708298
N   N9        1.0  0.12010  0.27740  0.69580  1.0000 -0.2881738886
N   N10       1.0  0.87990  0.77740  0.80420  1.0000 -0.2881738886
N   N11       1.0  0.87990  0.72260  0.30420  1.0000 -0.2881738886
N   N12       1.0  0.12010  0.22260  0.19580  1.0000 -0.2881738886
N   N13       1.0  0.68410  0.34610  0.78780  1.0000 -0.2881738886
N   N14       1.0  0.31590  0.84610  0.71220  1.0000 -0.2881738886
N   N15       1.0  0.31590  0.65390  0.21220  1.0000 -0.2881738886
N   N16       1.0  0.68410  0.15390  0.28780  1.0000 -0.2881738886
N   N17       1.0  0.43680  0.32130  0.84970  1.0000 -0.2806708298
N   N18       1.0  0.56320  0.82130  0.65030  1.0000 -0.2806708298
N   N19       1.0  0.56320  0.67870  0.15030  1.0000 -0.2806708298
N   N20       1.0  0.43680  0.17870  0.34970  1.0000 -0.2806708298
N   N21       1.0  0.55170  0.29260  0.92270  1.0000 -0.0763738957
N   N22       1.0  0.44830  0.79260  0.57730  1.0000 -0.0745226673
N   N23       1.0  0.44830  0.70740  0.07730  1.0000 -0.0745226673
N   N24       1.0  0.55170  0.20740  0.42270  1.0000 -0.0763738957
N   N25       1.0  0.69950  0.30760  0.88650  1.0000 -0.0763738957
N   N26       1.0  0.30050  0.80760  0.61350  1.0000 -0.0763738957
N   N27       1.0  0.30050  0.69240  0.11350  1.0000 -0.0763738957
N   N28       1.0  0.69950  0.19240  0.38650  1.0000 -0.0763738957
O   O1        1.0  0.15400  0.54870  0.39510  1.0000 -0.5706577606
O   O2        1.0  0.84600  0.04870  0.10490  1.0000 -0.5706577606
O   O3        1.0  0.84600  0.45130  0.60490  1.0000 -0.5706577606
O   O4        1.0  0.15400  0.95130  0.89510  1.0000 -0.5706577606
O   O5        1.0  0.24860  0.47930  0.26030  1.0000 -0.559403897
O   O6        1.0  0.75140  0.97930  0.23970  1.0000 -0.559403897
O   O7        1.0  0.75140  0.52070  0.73970  1.0000 -0.559403897
O   O8        1.0  0.24860  0.02070  0.76030  1.0000 -0.559403897
O   O9        1.0  0.05390  0.38590  0.85890  1.0000 -0.7897062011
O   O10       1.0  0.94610  0.88590  0.64110  1.0000 -0.7897062011
O   O11       1.0  0.94610  0.61410  0.14110  1.0000 -0.7897062011
O   O12       1.0  0.05390  0.11410  0.35890  1.0000 -0.7897062011
