# DDEC6 charges by PACMAN v1.1 (https://github.com/mtap-research/PACMAN-charge/)
data_0000[Zn][rtl]3[ASR]3
_chemical_formula_sum              "Zn4 H12 C36 O24"
_cell_length_a       9.1699
_cell_length_b       15.6055
_cell_length_c       13.5026
_cell_angle_alpha    90
_cell_angle_beta     107.162
_cell_angle_gamma    90

_symmetry_space_group_name_H-M    "P 1"
_symmetry_Int_Tables_number       1

loop_
  _symmetry_equiv_pos_as_xyz
  'x, y, z'

loop_
  _atom_site_type_symbol
  _atom_site_label
  _atom_site_symmetry_multiplicity
  _atom_site_fract_x
  _atom_site_fract_y
  _atom_site_fract_z
  _atom_site_occupancy
  _atom_site_charge
Zn  Zn1       1.0  0.38016  0.55100  0.24923  1.0000 0.9791891835
Zn  Zn2       1.0  0.61984  0.05100  0.75077  1.0000 0.9791891835
Zn  Zn3       1.0  0.12717  0.74618  0.25127  1.0000 0.9723767004
Zn  Zn4       1.0  0.87283  0.24618  0.74873  1.0000 0.9723767004
H   H1        1.0  0.02830  0.45060  0.99830  1.0000 0.1397735085
H   H2        1.0  0.97170  0.95060  0.00170  1.0000 0.1397735085
H   H3        1.0  0.60540  0.36930  0.98180  1.0000 0.1255407295
H   H4        1.0  0.39460  0.86930  0.01820  1.0000 0.124462412
H   H5        1.0  0.79250  0.56290  0.17130  1.0000 0.1397735085
H   H6        1.0  0.20750  0.06290  0.82870  1.0000 0.1397735085
H   H7        1.0  0.48180  0.84520  0.50460  1.0000 0.1397735085
H   H8        1.0  0.51820  0.34520  0.49540  1.0000 0.1397735085
H   H9        1.0  0.90330  0.92840  0.51980  1.0000 0.124462412
H   H10       1.0  0.09670  0.42840  0.48020  1.0000 0.124462412
H   H11       1.0  0.71870  0.73070  0.33520  1.0000 0.1397735085
H   H12       1.0  0.28130  0.23070  0.66480  1.0000 0.1397735085
C   C1        1.0  0.93080  0.51460  0.09260  1.0000 -0.0207602817
C   C2        1.0  0.06920  0.01460  0.90740  1.0000 -0.0207602817
C   C3        1.0  0.94050  0.45470  0.01910  1.0000 -0.0908625591
C   C4        1.0  0.05950  0.95470  0.98090  1.0000 -0.0908625591
C   C5        1.0  0.81670  0.40040  0.97650  1.0000 -0.0016995092
C   C6        1.0  0.18330  0.90040  0.02350  1.0000 -0.0050597606
C   C7        1.0  0.68660  0.40640  0.00930  1.0000 -0.0908625591
C   C8        1.0  0.31340  0.90640  0.99070  1.0000 -0.0908625591
C   C9        1.0  0.67590  0.46660  0.08220  1.0000 -0.0207602817
C   C10       1.0  0.32410  0.96660  0.91780  1.0000 -0.0207602817
C   C11       1.0  0.79870  0.52140  0.12320  1.0000 -0.0908625591
C   C12       1.0  0.20130  0.02140  0.87680  1.0000 -0.0908625591
C   C13       1.0  0.06120  0.57413  0.14130  1.0000 0.5964843295
C   C14       1.0  0.93880  0.07413  0.85870  1.0000 0.5964843295
C   C15       1.0  0.82280  0.33650  0.89490  1.0000 0.5269744656
C   C16       1.0  0.17720  0.83650  0.10510  1.0000 0.5269744656
C   C17       1.0  0.53550  0.47360  0.11790  1.0000 0.5397958568
C   C18       1.0  0.46450  0.97360  0.88210  1.0000 0.5397958568
C   C19       1.0  0.57940  0.77910  0.41200  1.0000 -0.0207602817
C   C20       1.0  0.42060  0.27910  0.58800  1.0000 -0.0207602817
C   C21       1.0  0.56990  0.84080  0.48420  1.0000 -0.0908625591
C   C22       1.0  0.43010  0.34080  0.51580  1.0000 -0.0908625591
C   C23       1.0  0.69230  0.89580  0.52600  1.0000 -0.0016995092
C   C24       1.0  0.30770  0.39580  0.47400  1.0000 -0.0016995092
C   C25       1.0  0.82310  0.89030  0.49370  1.0000 -0.0908625591
C   C26       1.0  0.17690  0.39030  0.50630  1.0000 -0.0951895529
C   C27       1.0  0.83400  0.82810  0.42250  1.0000 -0.0207602817
C   C28       1.0  0.16600  0.32810  0.57750  1.0000 -0.0207602817
C   C29       1.0  0.71160  0.77270  0.38250  1.0000 -0.0908625591
C   C30       1.0  0.28840  0.27270  0.61750  1.0000 -0.0908625591
C   C31       1.0  0.44670  0.72275  0.36120  1.0000 0.5964843295
C   C32       1.0  0.55330  0.22275  0.63880  1.0000 0.5964843295
C   C33       1.0  0.68570  0.96190  0.60530  1.0000 0.5269744656
C   C34       1.0  0.31430  0.46190  0.39470  1.0000 0.5269744656
C   C35       1.0  0.97300  0.82240  0.38480  1.0000 0.5397958568
C   C36       1.0  0.02700  0.32240  0.61520  1.0000 0.5397958568
O   O1        1.0  0.03050  0.64088  0.18181  1.0000 -0.4865164944
O   O2        1.0  0.96950  0.14088  0.81819  1.0000 -0.4865164944
O   O3        1.0  0.19156  0.55260  0.13667  1.0000 -0.4865164944
O   O4        1.0  0.80844  0.05260  0.86333  1.0000 -0.4865164944
O   O5        1.0  0.94170  0.33363  0.86490  1.0000 -0.444028739
O   O6        1.0  0.05830  0.83363  0.13510  1.0000 -0.4508328655
O   O7        1.0  0.71160  0.28868  0.85640  1.0000 -0.4602483549
O   O8        1.0  0.28840  0.78868  0.14360  1.0000 -0.4602483549
O   O9        1.0  0.43190  0.42060  0.08970  1.0000 -0.3866432447
O   O10       1.0  0.56810  0.92060  0.91030  1.0000 -0.3866432447
O   O11       1.0  0.53680  0.53655  0.17884  1.0000 -0.4602483549
O   O12       1.0  0.46320  0.03655  0.82116  1.0000 -0.4602483549
O   O13       1.0  0.47720  0.65610  0.31857  1.0000 -0.4964680114
O   O14       1.0  0.52280  0.15610  0.68143  1.0000 -0.4964680114
O   O15       1.0  0.31679  0.74550  0.36435  1.0000 -0.4810665586
O   O16       1.0  0.68321  0.24550  0.63565  1.0000 -0.4810665586
O   O17       1.0  0.56560  0.96323  0.63737  1.0000 -0.4602483549
O   O18       1.0  0.43440  0.46323  0.36263  1.0000 -0.4602483549
O   O19       1.0  0.79350  0.01092  0.64170  1.0000 -0.4508328655
O   O20       1.0  0.20650  0.51092  0.35830  1.0000 -0.4508328655
O   O21       1.0  0.07590  0.87542  0.41090  1.0000 -0.3866432447
O   O22       1.0  0.92410  0.37542  0.58910  1.0000 -0.3816001156
O   O23       1.0  0.97250  0.75968  0.32418  1.0000 -0.4508328655
O   O24       1.0  0.02750  0.25968  0.67582  1.0000 -0.4508328655
