# DDEC6 charges by PACMAN v1.1 (https://github.com/mtap-research/PACMAN-charge/)
data_1996[La][nia]3[ASR]1
_chemical_formula_sum              "La4 H24 C24 O30"
_cell_length_a       9.507
_cell_length_b       9.507
_cell_length_c       17.443
_cell_angle_alpha    90
_cell_angle_beta     90
_cell_angle_gamma    120

_symmetry_space_group_name_H-M    "P 1"
_symmetry_Int_Tables_number       1

loop_
  _symmetry_equiv_pos_as_xyz
  'x, y, z'

loop_
  _atom_site_type_symbol
  _atom_site_label
  _atom_site_symmetry_multiplicity
  _atom_site_fract_x
  _atom_site_fract_y
  _atom_site_fract_z
  _atom_site_occupancy
  _atom_site_charge
La  La1       1.0  0.66667  0.33333  0.25000  1.0000 1.9652238014
La  La2       1.0  0.33333  0.66667  0.75000  1.0000 1.9652238014
La  La3       1.0  0.00000  0.00000  0.00000  1.0000 1.7240646008
La  La4       1.0  0.00000  0.00000  0.50000  1.0000 1.7240646008
H   H1        1.0  0.43070  0.02790  0.08100  1.0000 0.1358388188
H   H2        1.0  0.59720  0.56930  0.41900  1.0000 0.1358388188
H   H3        1.0  0.02790  0.43070  0.58100  1.0000 0.1358388188
H   H4        1.0  0.97210  0.40280  0.08100  1.0000 0.1358388188
H   H5        1.0  0.40280  0.97210  0.91900  1.0000 0.1358388188
H   H6        1.0  0.43070  0.02790  0.41900  1.0000 0.1358388188
H   H7        1.0  0.56930  0.59720  0.58100  1.0000 0.1358388188
H   H8        1.0  0.59720  0.56930  0.08100  1.0000 0.1358388188
H   H9        1.0  0.02790  0.43070  0.91900  1.0000 0.1358388188
H   H10       1.0  0.97210  0.40280  0.41900  1.0000 0.1358388188
H   H11       1.0  0.40280  0.97210  0.58100  1.0000 0.1358388188
H   H12       1.0  0.56930  0.59720  0.91900  1.0000 0.1358388188
H   H13       1.0  0.49470  0.16970  0.02270  1.0000 0.1243503513
H   H14       1.0  0.67500  0.50530  0.47730  1.0000 0.1243503513
H   H15       1.0  0.16970  0.49470  0.52270  1.0000 0.1243503513
H   H16       1.0  0.83030  0.32500  0.02270  1.0000 0.1243503513
H   H17       1.0  0.32500  0.83030  0.97730  1.0000 0.1243503513
H   H18       1.0  0.49470  0.16970  0.47730  1.0000 0.1243503513
H   H19       1.0  0.50530  0.67500  0.52270  1.0000 0.1243503513
H   H20       1.0  0.67500  0.50530  0.02270  1.0000 0.1243503513
H   H21       1.0  0.16970  0.49470  0.97730  1.0000 0.1243503513
H   H22       1.0  0.83030  0.32500  0.47730  1.0000 0.1243503513
H   H23       1.0  0.32500  0.83030  0.52270  1.0000 0.1243503513
H   H24       1.0  0.50530  0.67500  0.97730  1.0000 0.1243503513
C   C1        1.0  0.35010  0.18500  0.10460  1.0000 0.6390602512
C   C2        1.0  0.83490  0.64990  0.39540  1.0000 0.6390602512
C   C3        1.0  0.18500  0.35010  0.60460  1.0000 0.6390602512
C   C4        1.0  0.81500  0.16510  0.10460  1.0000 0.6390602512
C   C5        1.0  0.16510  0.81500  0.89540  1.0000 0.6390602512
C   C6        1.0  0.35010  0.18500  0.39540  1.0000 0.6390602512
C   C7        1.0  0.64990  0.83490  0.60460  1.0000 0.6390602512
C   C8        1.0  0.83490  0.64990  0.10460  1.0000 0.6390602512
C   C9        1.0  0.18500  0.35010  0.89540  1.0000 0.6390602512
C   C10       1.0  0.81500  0.16510  0.39540  1.0000 0.6390602512
C   C11       1.0  0.16510  0.81500  0.60460  1.0000 0.6390602512
C   C12       1.0  0.64990  0.83490  0.89540  1.0000 0.6390602512
C   C13       1.0  0.40090  0.09410  0.05140  1.0000 -0.19882529
C   C14       1.0  0.69320  0.59910  0.44860  1.0000 -0.19882529
C   C15       1.0  0.09410  0.40090  0.55140  1.0000 -0.19882529
C   C16       1.0  0.90590  0.30680  0.05140  1.0000 -0.19882529
C   C17       1.0  0.30680  0.90590  0.94860  1.0000 -0.19882529
C   C18       1.0  0.40090  0.09410  0.44860  1.0000 -0.19882529
C   C19       1.0  0.59910  0.69320  0.55140  1.0000 -0.19882529
C   C20       1.0  0.69320  0.59910  0.05140  1.0000 -0.19882529
C   C21       1.0  0.09410  0.40090  0.94860  1.0000 -0.19882529
C   C22       1.0  0.90590  0.30680  0.44860  1.0000 -0.19882529
C   C23       1.0  0.30680  0.90590  0.55140  1.0000 -0.19882529
C   C24       1.0  0.59910  0.69320  0.94860  1.0000 -0.19882529
O   O1        1.0  0.45000  0.27050  0.15490  1.0000 -0.6535194792
O   O2        1.0  0.82050  0.55000  0.34510  1.0000 -0.6535194792
O   O3        1.0  0.27050  0.45000  0.65490  1.0000 -0.6535194792
O   O4        1.0  0.72950  0.17950  0.15490  1.0000 -0.6535194792
O   O5        1.0  0.17950  0.72950  0.84510  1.0000 -0.6535194792
O   O6        1.0  0.45000  0.27050  0.34510  1.0000 -0.6535194792
O   O7        1.0  0.55000  0.82050  0.65490  1.0000 -0.6535194792
O   O8        1.0  0.82050  0.55000  0.15490  1.0000 -0.6535194792
O   O9        1.0  0.27050  0.45000  0.84510  1.0000 -0.6535194792
O   O10       1.0  0.72950  0.17950  0.34510  1.0000 -0.6535194792
O   O11       1.0  0.17950  0.72950  0.65490  1.0000 -0.6535194792
O   O12       1.0  0.55000  0.82050  0.84510  1.0000 -0.6535194792
O   O13       1.0  0.27160  0.00000  0.00000  1.0000 -0.19882529
O   O14       1.0  0.72840  0.72840  0.50000  1.0000 -0.19882529
O   O15       1.0  0.00000  0.27160  0.50000  1.0000 -0.19882529
O   O16       1.0  0.00000  0.27160  0.00000  1.0000 -0.19882529
O   O17       1.0  0.27160  0.00000  0.50000  1.0000 -0.19882529
O   O18       1.0  0.72840  0.72840  0.00000  1.0000 -0.19882529
O   O19       1.0  0.21460  0.17280  0.09530  1.0000 -0.5623734074
O   O20       1.0  0.95820  0.78540  0.40470  1.0000 -0.5623734074
O   O21       1.0  0.17280  0.21460  0.59530  1.0000 -0.5623734074
O   O22       1.0  0.82720  0.04180  0.09530  1.0000 -0.5623734074
O   O23       1.0  0.04180  0.82720  0.90470  1.0000 -0.5623734074
O   O24       1.0  0.21460  0.17280  0.40470  1.0000 -0.5623734074
O   O25       1.0  0.78540  0.95820  0.59530  1.0000 -0.5623734074
O   O26       1.0  0.95820  0.78540  0.09530  1.0000 -0.5623734074
O   O27       1.0  0.17280  0.21460  0.90470  1.0000 -0.5623734074
O   O28       1.0  0.82720  0.04180  0.40470  1.0000 -0.5623734074
O   O29       1.0  0.04180  0.82720  0.59530  1.0000 -0.5623734074
O   O30       1.0  0.78540  0.95820  0.90470  1.0000 -0.5623734074
