# DDEC6 charges by PACMAN v1.1 (https://github.com/mtap-research/PACMAN-charge/)
data_1998[In][nan]3[ASR]1
_chemical_formula_sum              "In4 P6 C4 O32"
_cell_length_a       6.5052
_cell_length_b       17.5005
_cell_length_c       8.1811
_cell_angle_alpha    90
_cell_angle_beta     107.656
_cell_angle_gamma    90

_symmetry_space_group_name_H-M    "P 1"
_symmetry_Int_Tables_number       1

loop_
  _symmetry_equiv_pos_as_xyz
  'x, y, z'

loop_
  _atom_site_type_symbol
  _atom_site_label
  _atom_site_symmetry_multiplicity
  _atom_site_fract_x
  _atom_site_fract_y
  _atom_site_fract_z
  _atom_site_occupancy
  _atom_site_charge
In  In1       1.0  0.74437  0.99750  0.22049  1.0000 1.6172408431
In  In2       1.0  0.25563  0.49750  0.77951  1.0000 1.6172408431
In  In3       1.0  0.11908  0.85853  0.87401  1.0000 1.6172408431
In  In4       1.0  0.88092  0.35853  0.12599  1.0000 1.6116488148
P   P1        1.0  0.26390  0.95260  0.24300  1.0000 1.5187624862
P   P2        1.0  0.73610  0.45260  0.75700  1.0000 1.5187624862
P   P3        1.0  0.60600  0.90870  0.84180  1.0000 1.5086989571
P   P4        1.0  0.39400  0.40870  0.15820  1.0000 1.5086989571
P   P5        1.0  0.92950  0.16326  0.12930  1.0000 1.4136794974
P   P6        1.0  0.07050  0.66326  0.87070  1.0000 1.4204437901
C   C1        1.0  0.89720  0.88670  0.50480  1.0000 0.5365235378
C   C2        1.0  0.10280  0.38670  0.49520  1.0000 0.5365235378
C   C3        1.0  0.96780  0.96660  0.58790  1.0000 0.5340865423
C   C4        1.0  0.03220  0.46660  0.41210  1.0000 0.5340865423
O   O1        1.0  0.44820  0.01170  0.27270  1.0000 -0.6482685934
O   O2        1.0  0.55180  0.51170  0.72730  1.0000 -0.6482685934
O   O3        1.0  0.04680  0.99340  0.16760  1.0000 -0.6710301171
O   O4        1.0  0.95320  0.49340  0.83240  1.0000 -0.6710301171
O   O5        1.0  0.29190  0.88730  0.12830  1.0000 -0.6997396579
O   O6        1.0  0.70810  0.38730  0.87170  1.0000 -0.6997396579
O   O7        1.0  0.27070  0.91760  0.41860  1.0000 -0.498610122
O   O8        1.0  0.72930  0.41760  0.58140  1.0000 -0.498610122
O   O9        1.0  0.59340  0.97180  0.96780  1.0000 -0.6997396579
O   O10       1.0  0.40660  0.47180  0.03220  1.0000 -0.6997396579
O   O11       1.0  0.58090  0.94740  0.66690  1.0000 -0.4932824205
O   O12       1.0  0.41910  0.44740  0.33310  1.0000 -0.4932824205
O   O13       1.0  0.81320  0.86330  0.90720  1.0000 -0.6997396579
O   O14       1.0  0.18680  0.36330  0.09280  1.0000 -0.6997396579
O   O15       1.0  0.42220  0.85070  0.82370  1.0000 -0.6710301171
O   O16       1.0  0.57780  0.35070  0.17630  1.0000 -0.6710301171
O   O17       1.0  0.76170  0.11910  0.18490  1.0000 -0.6422262023
O   O18       1.0  0.23830  0.61910  0.81510  1.0000 -0.6422262023
O   O19       1.0  0.13860  0.17030  0.27750  1.0000 -0.5267223845
O   O20       1.0  0.86140  0.67030  0.72250  1.0000 -0.5267223845
O   O21       1.0  0.98280  0.11930  0.97880  1.0000 -0.4584214817
O   O22       1.0  0.01720  0.61930  0.02120  1.0000 -0.4584214817
O   O23       1.0  0.83820  0.24020  0.05300  1.0000 -0.6482685934
O   O24       1.0  0.16180  0.74020  0.94700  1.0000 -0.6482685934
O   O25       1.0  0.78850  0.88550  0.34910  1.0000 -0.3487509544
O   O26       1.0  0.21150  0.38550  0.65090  1.0000 -0.3487509544
O   O27       1.0  0.95490  0.82980  0.59860  1.0000 -0.3487509544
O   O28       1.0  0.04510  0.32980  0.40140  1.0000 -0.3487509544
O   O29       1.0  0.91820  0.02450  0.49170  1.0000 -0.3586769084
O   O30       1.0  0.08180  0.52450  0.50830  1.0000 -0.3586769084
O   O31       1.0  0.07310  0.96930  0.74380  1.0000 -0.3318425248
O   O32       1.0  0.92690  0.46930  0.25620  1.0000 -0.3352795075
