# DDEC6 charges by PACMAN v1.1 (https://github.com/mtap-research/PACMAN-charge/)
data_1998[Cu][cds]3[ASR]1
_chemical_formula_sum              "Cu8 H192 C192 N32"
_cell_length_a       14.7097
_cell_length_b       21.832
_cell_length_c       26.719
_cell_angle_alpha    90
_cell_angle_beta     90
_cell_angle_gamma    90

_symmetry_space_group_name_H-M    "P 1"
_symmetry_Int_Tables_number       1

loop_
  _symmetry_equiv_pos_as_xyz
  'x, y, z'

loop_
  _atom_site_type_symbol
  _atom_site_label
  _atom_site_symmetry_multiplicity
  _atom_site_fract_x
  _atom_site_fract_y
  _atom_site_fract_z
  _atom_site_occupancy
  _atom_site_charge
Cu  Cu1       1.0  0.25366  0.49866  0.53760  1.0000 0.19797373
Cu  Cu2       1.0  0.74634  0.99866  0.96240  1.0000 0.19797373
Cu  Cu3       1.0  0.75366  0.99866  0.46240  1.0000 0.19797373
Cu  Cu4       1.0  0.24634  0.49866  0.03760  1.0000 0.19797373
Cu  Cu5       1.0  0.24634  0.00134  0.53760  1.0000 0.19797373
Cu  Cu6       1.0  0.75366  0.50134  0.96240  1.0000 0.19797373
Cu  Cu7       1.0  0.74634  0.50134  0.46240  1.0000 0.19797373
Cu  Cu8       1.0  0.25366  0.00134  0.03760  1.0000 0.19797373
H   H1        1.0  0.26500  0.37500  0.49000  1.0000 0.0857466725
H   H2        1.0  0.73500  0.87500  0.01000  1.0000 0.0857466725
H   H3        1.0  0.76500  0.87500  0.51000  1.0000 0.0857466725
H   H4        1.0  0.23500  0.37500  0.99000  1.0000 0.0857466725
H   H5        1.0  0.16800  0.28700  0.48000  1.0000 0.1184456915
H   H6        1.0  0.83200  0.78700  0.02000  1.0000 0.1184456915
H   H7        1.0  0.66800  0.78700  0.52000  1.0000 0.1184456915
H   H8        1.0  0.33200  0.28700  0.98000  1.0000 0.1184456915
H   H9        1.0  0.96700  0.37600  0.56100  1.0000 0.1184456915
H   H10       1.0  0.03300  0.87600  0.93900  1.0000 0.1184456915
H   H11       1.0  0.46700  0.87600  0.43900  1.0000 0.1184456915
H   H12       1.0  0.53300  0.37600  0.06100  1.0000 0.1184456915
H   H13       1.0  0.06900  0.46000  0.57000  1.0000 0.0833258836
H   H14       1.0  0.93100  0.96000  0.93000  1.0000 0.0833258836
H   H15       1.0  0.56900  0.96000  0.43000  1.0000 0.0833258836
H   H16       1.0  0.43100  0.46000  0.07000  1.0000 0.0833258836
H   H17       1.0  0.99900  0.24200  0.54200  1.0000 0.1184456915
H   H18       1.0  0.00100  0.74200  0.95800  1.0000 0.1184456915
H   H19       1.0  0.49900  0.74200  0.45800  1.0000 0.1184456915
H   H20       1.0  0.50100  0.24200  0.04200  1.0000 0.1184456915
H   H21       1.0  0.92900  0.28700  0.51200  1.0000 0.1037683471
H   H22       1.0  0.07100  0.78700  0.98800  1.0000 0.1037683471
H   H23       1.0  0.42900  0.78700  0.48800  1.0000 0.1037683471
H   H24       1.0  0.57100  0.28700  0.01200  1.0000 0.1037683471
H   H25       1.0  0.99600  0.26000  0.43400  1.0000 0.1184456915
H   H26       1.0  0.00400  0.76000  0.06600  1.0000 0.1184456915
H   H27       1.0  0.49600  0.76000  0.56600  1.0000 0.1184456915
H   H28       1.0  0.50400  0.26000  0.93400  1.0000 0.1184456915
H   H29       1.0  0.07200  0.21900  0.46300  1.0000 0.1037683471
H   H30       1.0  0.92800  0.71900  0.03700  1.0000 0.1037683471
H   H31       1.0  0.57200  0.71900  0.53700  1.0000 0.1037683471
H   H32       1.0  0.42800  0.21900  0.96300  1.0000 0.1037683471
H   H33       1.0  0.04200  0.11900  0.43300  1.0000 0.1184456915
H   H34       1.0  0.95800  0.61900  0.06700  1.0000 0.1184456915
H   H35       1.0  0.54200  0.61900  0.56700  1.0000 0.1184456915
H   H36       1.0  0.45800  0.11900  0.93300  1.0000 0.1184456915
H   H37       1.0  0.94300  0.03100  0.43300  1.0000 0.0833258836
H   H38       1.0  0.05700  0.53100  0.06700  1.0000 0.0833258836
H   H39       1.0  0.44300  0.53100  0.56700  1.0000 0.0833258836
H   H40       1.0  0.55700  0.03100  0.93300  1.0000 0.0833258836
H   H41       1.0  0.73400  0.13100  0.48900  1.0000 0.0833258836
H   H42       1.0  0.26600  0.63100  0.01100  1.0000 0.0833258836
H   H43       1.0  0.23400  0.63100  0.51100  1.0000 0.0833258836
H   H44       1.0  0.76600  0.13100  0.98900  1.0000 0.0833258836
H   H45       1.0  0.82600  0.22300  0.48700  1.0000 0.1184456915
H   H46       1.0  0.17400  0.72300  0.01300  1.0000 0.1184456915
H   H47       1.0  0.32600  0.72300  0.51300  1.0000 0.1184456915
H   H48       1.0  0.67400  0.22300  0.98700  1.0000 0.1184456915
H   H49       1.0  0.11400  0.49800  0.45600  1.0000 0.0833258836
H   H50       1.0  0.88600  0.99800  0.04400  1.0000 0.0833258836
H   H51       1.0  0.61400  0.99800  0.54400  1.0000 0.0833258836
H   H52       1.0  0.38600  0.49800  0.95600  1.0000 0.0833258836
H   H53       1.0  0.10500  0.51800  0.36900  1.0000 0.1184456915
H   H54       1.0  0.89500  0.01800  0.13100  1.0000 0.1184456915
H   H55       1.0  0.60500  0.01800  0.63100  1.0000 0.1184456915
H   H56       1.0  0.39500  0.51800  0.86900  1.0000 0.1184456915
H   H57       1.0  0.38700  0.53400  0.36500  1.0000 0.1184456915
H   H58       1.0  0.61300  0.03400  0.13500  1.0000 0.1184456915
H   H59       1.0  0.88700  0.03400  0.63500  1.0000 0.1184456915
H   H60       1.0  0.11300  0.53400  0.86500  1.0000 0.1184456915
H   H61       1.0  0.38800  0.51700  0.45500  1.0000 0.0833258836
H   H62       1.0  0.61200  0.01700  0.04500  1.0000 0.0833258836
H   H63       1.0  0.88800  0.01700  0.54500  1.0000 0.0833258836
H   H64       1.0  0.11200  0.51700  0.95500  1.0000 0.0833258836
H   H65       1.0  0.29700  0.56600  0.29300  1.0000 0.1037683471
H   H66       1.0  0.70300  0.06600  0.20700  1.0000 0.1085301392
H   H67       1.0  0.79700  0.06600  0.70700  1.0000 0.1085301392
H   H68       1.0  0.20300  0.56600  0.79300  1.0000 0.1085301392
H   H69       1.0  0.18600  0.56200  0.29400  1.0000 0.1085301392
H   H70       1.0  0.81400  0.06200  0.20600  1.0000 0.1085301392
H   H71       1.0  0.68600  0.06200  0.70600  1.0000 0.1085301392
H   H72       1.0  0.31400  0.56200  0.79400  1.0000 0.1085301392
H   H73       1.0  0.30500  0.45800  0.28400  1.0000 0.1085301392
H   H74       1.0  0.69500  0.95800  0.21600  1.0000 0.1085301392
H   H75       1.0  0.80500  0.95800  0.71600  1.0000 0.1085301392
H   H76       1.0  0.19500  0.45800  0.78400  1.0000 0.1085301392
H   H77       1.0  0.19400  0.45400  0.28500  1.0000 0.1085301392
H   H78       1.0  0.80600  0.95400  0.21500  1.0000 0.1085301392
H   H79       1.0  0.69400  0.95400  0.71500  1.0000 0.1085301392
H   H80       1.0  0.30600  0.45400  0.78500  1.0000 0.1085301392
H   H81       1.0  0.27100  0.58000  0.21400  1.0000 0.1184456915
H   H82       1.0  0.72900  0.08000  0.28600  1.0000 0.1184456915
H   H83       1.0  0.77100  0.08000  0.78600  1.0000 0.1184456915
H   H84       1.0  0.22900  0.58000  0.71400  1.0000 0.1184456915
H   H85       1.0  0.26900  0.58400  0.12400  1.0000 0.0857466725
H   H86       1.0  0.73100  0.08400  0.37600  1.0000 0.0857466725
H   H87       1.0  0.76900  0.08400  0.87600  1.0000 0.0857466725
H   H88       1.0  0.23100  0.58400  0.62400  1.0000 0.0857466725
H   H89       1.0  0.22400  0.40100  0.11600  1.0000 0.0857466725
H   H90       1.0  0.77600  0.90100  0.38400  1.0000 0.0857466725
H   H91       1.0  0.72400  0.90100  0.88400  1.0000 0.0857466725
H   H92       1.0  0.27600  0.40100  0.61600  1.0000 0.0857466725
H   H93       1.0  0.22100  0.39300  0.20500  1.0000 0.1184456915
H   H94       1.0  0.77900  0.89300  0.29500  1.0000 0.1184456915
H   H95       1.0  0.72100  0.89300  0.79500  1.0000 0.1184456915
H   H96       1.0  0.27900  0.39300  0.70500  1.0000 0.1184456915
H   H97       1.0  0.23500  0.12500  0.49000  1.0000 0.0857466725
H   H98       1.0  0.76500  0.62500  0.01000  1.0000 0.0857466725
H   H99       1.0  0.73500  0.62500  0.51000  1.0000 0.0857466725
H   H100      1.0  0.26500  0.12500  0.99000  1.0000 0.0857466725
H   H101      1.0  0.33200  0.21300  0.48000  1.0000 0.1184456915
H   H102      1.0  0.66800  0.71300  0.02000  1.0000 0.1184456915
H   H103      1.0  0.83200  0.71300  0.52000  1.0000 0.1184456915
H   H104      1.0  0.16800  0.21300  0.98000  1.0000 0.1184456915
H   H105      1.0  0.53300  0.12400  0.56100  1.0000 0.1184456915
H   H106      1.0  0.46700  0.62400  0.93900  1.0000 0.1184456915
H   H107      1.0  0.03300  0.62400  0.43900  1.0000 0.1184456915
H   H108      1.0  0.96700  0.12400  0.06100  1.0000 0.1184456915
H   H109      1.0  0.43100  0.04000  0.57000  1.0000 0.0833258836
H   H110      1.0  0.56900  0.54000  0.93000  1.0000 0.0833258836
H   H111      1.0  0.93100  0.54000  0.43000  1.0000 0.0833258836
H   H112      1.0  0.06900  0.04000  0.07000  1.0000 0.0833258836
H   H113      1.0  0.50100  0.25800  0.54200  1.0000 0.1184456915
H   H114      1.0  0.49900  0.75800  0.95800  1.0000 0.1184456915
H   H115      1.0  0.00100  0.75800  0.45800  1.0000 0.1184456915
H   H116      1.0  0.99900  0.25800  0.04200  1.0000 0.1184456915
H   H117      1.0  0.57100  0.21300  0.51200  1.0000 0.1037683471
H   H118      1.0  0.42900  0.71300  0.98800  1.0000 0.1037683471
H   H119      1.0  0.07100  0.71300  0.48800  1.0000 0.1037683471
H   H120      1.0  0.92900  0.21300  0.01200  1.0000 0.1037683471
H   H121      1.0  0.50400  0.24000  0.43400  1.0000 0.1184456915
H   H122      1.0  0.49600  0.74000  0.06600  1.0000 0.1184456915
H   H123      1.0  0.00400  0.74000  0.56600  1.0000 0.1184456915
H   H124      1.0  0.99600  0.24000  0.93400  1.0000 0.1184456915
H   H125      1.0  0.42800  0.28100  0.46300  1.0000 0.1037683471
H   H126      1.0  0.57200  0.78100  0.03700  1.0000 0.1037683471
H   H127      1.0  0.92800  0.78100  0.53700  1.0000 0.1037683471
H   H128      1.0  0.07200  0.28100  0.96300  1.0000 0.1037683471
H   H129      1.0  0.45800  0.38100  0.43300  1.0000 0.1184456915
H   H130      1.0  0.54200  0.88100  0.06700  1.0000 0.1184456915
H   H131      1.0  0.95800  0.88100  0.56700  1.0000 0.1184456915
H   H132      1.0  0.04200  0.38100  0.93300  1.0000 0.1184456915
H   H133      1.0  0.55700  0.46900  0.43300  1.0000 0.0833258836
H   H134      1.0  0.44300  0.96900  0.06700  1.0000 0.0833258836
H   H135      1.0  0.05700  0.96900  0.56700  1.0000 0.0833258836
H   H136      1.0  0.94300  0.46900  0.93300  1.0000 0.0833258836
H   H137      1.0  0.76600  0.36900  0.48900  1.0000 0.0833258836
H   H138      1.0  0.23400  0.86900  0.01100  1.0000 0.0833258836
H   H139      1.0  0.26600  0.86900  0.51100  1.0000 0.0833258836
H   H140      1.0  0.73400  0.36900  0.98900  1.0000 0.0833258836
H   H141      1.0  0.67400  0.27700  0.48700  1.0000 0.1184456915
H   H142      1.0  0.32600  0.77700  0.01300  1.0000 0.1184456915
H   H143      1.0  0.17400  0.77700  0.51300  1.0000 0.1184456915
H   H144      1.0  0.82600  0.27700  0.98700  1.0000 0.1184456915
H   H145      1.0  0.38600  0.00200  0.45600  1.0000 0.0833258836
H   H146      1.0  0.61400  0.50200  0.04400  1.0000 0.0833258836
H   H147      1.0  0.88600  0.50200  0.54400  1.0000 0.0833258836
H   H148      1.0  0.11400  0.00200  0.95600  1.0000 0.0833258836
H   H149      1.0  0.39500  0.98200  0.36900  1.0000 0.1184456915
H   H150      1.0  0.60500  0.48200  0.13100  1.0000 0.1184456915
H   H151      1.0  0.89500  0.48200  0.63100  1.0000 0.1184456915
H   H152      1.0  0.10500  0.98200  0.86900  1.0000 0.1184456915
H   H153      1.0  0.11300  0.96600  0.36500  1.0000 0.1184456915
H   H154      1.0  0.88700  0.46600  0.13500  1.0000 0.1184456915
H   H155      1.0  0.61300  0.46600  0.63500  1.0000 0.1184456915
H   H156      1.0  0.38700  0.96600  0.86500  1.0000 0.1184456915
H   H157      1.0  0.11200  0.98300  0.45500  1.0000 0.0833258836
H   H158      1.0  0.88800  0.48300  0.04500  1.0000 0.0833258836
H   H159      1.0  0.61200  0.48300  0.54500  1.0000 0.0833258836
H   H160      1.0  0.38800  0.98300  0.95500  1.0000 0.0833258836
H   H161      1.0  0.20300  0.93400  0.29300  1.0000 0.1037683471
H   H162      1.0  0.79700  0.43400  0.20700  1.0000 0.1085301392
H   H163      1.0  0.70300  0.43400  0.70700  1.0000 0.1085301392
H   H164      1.0  0.29700  0.93400  0.79300  1.0000 0.1085301392
H   H165      1.0  0.31400  0.93800  0.29400  1.0000 0.1085301392
H   H166      1.0  0.68600  0.43800  0.20600  1.0000 0.1085301392
H   H167      1.0  0.81400  0.43800  0.70600  1.0000 0.1085301392
H   H168      1.0  0.18600  0.93800  0.79400  1.0000 0.1085301392
H   H169      1.0  0.19500  0.04200  0.28400  1.0000 0.1085301392
H   H170      1.0  0.80500  0.54200  0.21600  1.0000 0.1085301392
H   H171      1.0  0.69500  0.54200  0.71600  1.0000 0.1085301392
H   H172      1.0  0.30500  0.04200  0.78400  1.0000 0.1085301392
H   H173      1.0  0.30600  0.04600  0.28500  1.0000 0.1085301392
H   H174      1.0  0.69400  0.54600  0.21500  1.0000 0.1085301392
H   H175      1.0  0.80600  0.54600  0.71500  1.0000 0.1085301392
H   H176      1.0  0.19400  0.04600  0.78500  1.0000 0.1085301392
H   H177      1.0  0.22900  0.92000  0.21400  1.0000 0.1184456915
H   H178      1.0  0.77100  0.42000  0.28600  1.0000 0.1184456915
H   H179      1.0  0.72900  0.42000  0.78600  1.0000 0.1184456915
H   H180      1.0  0.27100  0.92000  0.71400  1.0000 0.1184456915
H   H181      1.0  0.23100  0.91600  0.12400  1.0000 0.0857466725
H   H182      1.0  0.76900  0.41600  0.37600  1.0000 0.0857466725
H   H183      1.0  0.73100  0.41600  0.87600  1.0000 0.0857466725
H   H184      1.0  0.26900  0.91600  0.62400  1.0000 0.0857466725
H   H185      1.0  0.27600  0.09900  0.11600  1.0000 0.0857466725
H   H186      1.0  0.72400  0.59900  0.38400  1.0000 0.0857466725
H   H187      1.0  0.77600  0.59900  0.88400  1.0000 0.0857466725
H   H188      1.0  0.22400  0.09900  0.61600  1.0000 0.0857466725
H   H189      1.0  0.27900  0.10700  0.20500  1.0000 0.1184456915
H   H190      1.0  0.72100  0.60700  0.29500  1.0000 0.1184456915
H   H191      1.0  0.77900  0.60700  0.79500  1.0000 0.1184456915
H   H192      1.0  0.22100  0.10700  0.70500  1.0000 0.1184456915
C   C1        1.0  0.20180  0.37490  0.50591  1.0000 0.0416025945
C   C2        1.0  0.79820  0.87490  0.99409  1.0000 0.0416025945
C   C3        1.0  0.70180  0.87490  0.49409  1.0000 0.0416025945
C   C4        1.0  0.29820  0.37490  0.00591  1.0000 0.0416025945
C   C5        1.0  0.14570  0.32360  0.49920  1.0000 -0.2186969944
C   C6        1.0  0.85430  0.82360  0.00080  1.0000 -0.2186969944
C   C7        1.0  0.64570  0.82360  0.50080  1.0000 -0.2186969944
C   C8        1.0  0.35430  0.32360  0.99920  1.0000 -0.2186969944
C   C9        1.0  0.05850  0.32360  0.51875  1.0000 0.1592546663
C   C10       1.0  0.94150  0.82360  0.98125  1.0000 0.1592546663
C   C11       1.0  0.55850  0.82360  0.48125  1.0000 0.1592546663
C   C12       1.0  0.44150  0.32360  0.01875  1.0000 0.1592546663
C   C13       1.0  0.03050  0.37470  0.54565  1.0000 -0.2390389946
C   C14       1.0  0.96950  0.87470  0.95435  1.0000 -0.2390389946
C   C15       1.0  0.53050  0.87470  0.45435  1.0000 -0.2390389946
C   C16       1.0  0.46950  0.37470  0.04565  1.0000 -0.2390389946
C   C17       1.0  0.09140  0.42310  0.55186  1.0000 0.0589512837
C   C18       1.0  0.90860  0.92310  0.94814  1.0000 0.0589512837
C   C19       1.0  0.59140  0.92310  0.44814  1.0000 0.0589512837
C   C20       1.0  0.40860  0.42310  0.05186  1.0000 0.0589512837
C   C21       1.0  0.99360  0.27060  0.51198  1.0000 -0.2646599878
C   C22       1.0  0.00640  0.77060  0.98802  1.0000 -0.2646599878
C   C23       1.0  0.49360  0.77060  0.48802  1.0000 -0.2646599878
C   C24       1.0  0.50640  0.27060  0.01198  1.0000 -0.2646599878
C   C25       1.0  0.00640  0.23290  0.46520  1.0000 -0.2494991432
C   C26       1.0  0.99360  0.73290  0.03480  1.0000 -0.2494991432
C   C27       1.0  0.50640  0.73290  0.53480  1.0000 -0.2494991432
C   C28       1.0  0.49360  0.23290  0.96520  1.0000 -0.2494991432
C   C29       1.0  0.94370  0.17840  0.46202  1.0000 0.1592546663
C   C30       1.0  0.05630  0.67840  0.03798  1.0000 0.1592546663
C   C31       1.0  0.44370  0.67840  0.53798  1.0000 0.1592546663
C   C32       1.0  0.55630  0.17840  0.96202  1.0000 0.1592546663
C   C33       1.0  0.97650  0.12280  0.44466  1.0000 -0.2294106503
C   C34       1.0  0.02350  0.62280  0.05534  1.0000 -0.2294106503
C   C35       1.0  0.47650  0.62280  0.55534  1.0000 -0.2294106503
C   C36       1.0  0.52350  0.12280  0.94466  1.0000 -0.2294106503
C   C37       1.0  0.91790  0.07230  0.44373  1.0000 0.0330508742
C   C38       1.0  0.08210  0.57230  0.05627  1.0000 0.0330508742
C   C39       1.0  0.41790  0.57230  0.55627  1.0000 0.0330508742
C   C40       1.0  0.58210  0.07230  0.94373  1.0000 0.0330508742
C   C41       1.0  0.79920  0.12850  0.47593  1.0000 0.0589512837
C   C42       1.0  0.20080  0.62850  0.02407  1.0000 0.0589512837
C   C43       1.0  0.29920  0.62850  0.52407  1.0000 0.0589512837
C   C44       1.0  0.70080  0.12850  0.97593  1.0000 0.0589512837
C   C45       1.0  0.85320  0.18260  0.47620  1.0000 -0.2294106503
C   C46       1.0  0.14680  0.68260  0.02380  1.0000 -0.2294106503
C   C47       1.0  0.35320  0.68260  0.52380  1.0000 -0.2294106503
C   C48       1.0  0.64680  0.18260  0.97620  1.0000 -0.2294106503
C   C49       1.0  0.17130  0.50610  0.43719  1.0000 0.0416025945
C   C50       1.0  0.82870  0.00610  0.06281  1.0000 0.0416025945
C   C51       1.0  0.67130  0.00610  0.56281  1.0000 0.0416025945
C   C52       1.0  0.32870  0.50610  0.93719  1.0000 0.0416025945
C   C53       1.0  0.16650  0.51780  0.38614  1.0000 -0.2186969944
C   C54       1.0  0.83350  0.01780  0.11386  1.0000 -0.2186969944
C   C55       1.0  0.66650  0.01780  0.61386  1.0000 -0.2186969944
C   C56       1.0  0.33350  0.51780  0.88614  1.0000 -0.2186969944
C   C57       1.0  0.24540  0.52790  0.35880  1.0000 0.1592546663
C   C58       1.0  0.75460  0.02790  0.14120  1.0000 0.1592546663
C   C59       1.0  0.74540  0.02790  0.64120  1.0000 0.1592546663
C   C60       1.0  0.25460  0.52790  0.85880  1.0000 0.1592546663
C   C61       1.0  0.32750  0.52670  0.38384  1.0000 -0.2294106503
C   C62       1.0  0.67250  0.02670  0.11616  1.0000 -0.2294106503
C   C63       1.0  0.82750  0.02670  0.61616  1.0000 -0.2294106503
C   C64       1.0  0.17250  0.52670  0.88384  1.0000 -0.2294106503
C   C65       1.0  0.32790  0.51720  0.43654  1.0000 0.0416025945
C   C66       1.0  0.67210  0.01720  0.06346  1.0000 0.0416025945
C   C67       1.0  0.82790  0.01720  0.56346  1.0000 0.0416025945
C   C68       1.0  0.17210  0.51720  0.93654  1.0000 0.0416025945
C   C69       1.0  0.24370  0.53980  0.30296  1.0000 -0.2494991432
C   C70       1.0  0.75630  0.03980  0.19704  1.0000 -0.2494991432
C   C71       1.0  0.74370  0.03980  0.69704  1.0000 -0.2494991432
C   C72       1.0  0.25630  0.53980  0.80296  1.0000 -0.2494991432
C   C73       1.0  0.24710  0.48000  0.27442  1.0000 -0.2390389946
C   C74       1.0  0.75290  0.98000  0.22558  1.0000 -0.2390389946
C   C75       1.0  0.74710  0.98000  0.72558  1.0000 -0.2390389946
C   C76       1.0  0.25290  0.48000  0.77442  1.0000 -0.2390389946
C   C77       1.0  0.24560  0.48620  0.21787  1.0000 0.1497314292
C   C78       1.0  0.75440  0.98620  0.28213  1.0000 0.1497314292
C   C79       1.0  0.74560  0.98620  0.78213  1.0000 0.1497314292
C   C80       1.0  0.25440  0.48620  0.71787  1.0000 0.1497314292
C   C81       1.0  0.25990  0.54100  0.19312  1.0000 -0.2186969944
C   C82       1.0  0.74010  0.04100  0.30688  1.0000 -0.2186969944
C   C83       1.0  0.75990  0.04100  0.80688  1.0000 -0.2186969944
C   C84       1.0  0.24010  0.54100  0.69312  1.0000 -0.2186969944
C   C85       1.0  0.25940  0.54280  0.14143  1.0000 0.0416025945
C   C86       1.0  0.74060  0.04280  0.35857  1.0000 0.0416025945
C   C87       1.0  0.75940  0.04280  0.85857  1.0000 0.0416025945
C   C88       1.0  0.24060  0.54280  0.64143  1.0000 0.0416025945
C   C89       1.0  0.23420  0.43980  0.13692  1.0000 0.0330508742
C   C90       1.0  0.76580  0.93980  0.36308  1.0000 0.0330508742
C   C91       1.0  0.73420  0.93980  0.86308  1.0000 0.0330508742
C   C92       1.0  0.26580  0.43980  0.63692  1.0000 0.0330508742
C   C93       1.0  0.23220  0.43460  0.18815  1.0000 -0.2294106503
C   C94       1.0  0.76780  0.93460  0.31185  1.0000 -0.2294106503
C   C95       1.0  0.73220  0.93460  0.81185  1.0000 -0.2294106503
C   C96       1.0  0.26780  0.43460  0.68815  1.0000 -0.2294106503
C   C97       1.0  0.29820  0.12510  0.50591  1.0000 0.0416025945
C   C98       1.0  0.70180  0.62510  0.99409  1.0000 0.0416025945
C   C99       1.0  0.79820  0.62510  0.49409  1.0000 0.0416025945
C   C100      1.0  0.20180  0.12510  0.00591  1.0000 0.0416025945
C   C101      1.0  0.35430  0.17640  0.49920  1.0000 -0.2186969944
C   C102      1.0  0.64570  0.67640  0.00080  1.0000 -0.2186969944
C   C103      1.0  0.85430  0.67640  0.50080  1.0000 -0.2186969944
C   C104      1.0  0.14570  0.17640  0.99920  1.0000 -0.2186969944
C   C105      1.0  0.44150  0.17640  0.51875  1.0000 0.1592546663
C   C106      1.0  0.55850  0.67640  0.98125  1.0000 0.1592546663
C   C107      1.0  0.94150  0.67640  0.48125  1.0000 0.1592546663
C   C108      1.0  0.05850  0.17640  0.01875  1.0000 0.1592546663
C   C109      1.0  0.46950  0.12530  0.54565  1.0000 -0.2390389946
C   C110      1.0  0.53050  0.62530  0.95435  1.0000 -0.2390389946
C   C111      1.0  0.96950  0.62530  0.45435  1.0000 -0.2390389946
C   C112      1.0  0.03050  0.12530  0.04565  1.0000 -0.2390389946
C   C113      1.0  0.40860  0.07690  0.55186  1.0000 0.0589512837
C   C114      1.0  0.59140  0.57690  0.94814  1.0000 0.0589512837
C   C115      1.0  0.90860  0.57690  0.44814  1.0000 0.0589512837
C   C116      1.0  0.09140  0.07690  0.05186  1.0000 0.0589512837
C   C117      1.0  0.50640  0.22940  0.51198  1.0000 -0.2646599878
C   C118      1.0  0.49360  0.72940  0.98802  1.0000 -0.2646599878
C   C119      1.0  0.00640  0.72940  0.48802  1.0000 -0.2646599878
C   C120      1.0  0.99360  0.22940  0.01198  1.0000 -0.2646599878
C   C121      1.0  0.49360  0.26710  0.46520  1.0000 -0.2494991432
C   C122      1.0  0.50640  0.76710  0.03480  1.0000 -0.2494991432
C   C123      1.0  0.99360  0.76710  0.53480  1.0000 -0.2494991432
C   C124      1.0  0.00640  0.26710  0.96520  1.0000 -0.2494991432
C   C125      1.0  0.55630  0.32160  0.46202  1.0000 0.1592546663
C   C126      1.0  0.44370  0.82160  0.03798  1.0000 0.1592546663
C   C127      1.0  0.05630  0.82160  0.53798  1.0000 0.1592546663
C   C128      1.0  0.94370  0.32160  0.96202  1.0000 0.1592546663
C   C129      1.0  0.52350  0.37720  0.44466  1.0000 -0.2294106503
C   C130      1.0  0.47650  0.87720  0.05534  1.0000 -0.2294106503
C   C131      1.0  0.02350  0.87720  0.55534  1.0000 -0.2294106503
C   C132      1.0  0.97650  0.37720  0.94466  1.0000 -0.2294106503
C   C133      1.0  0.58210  0.42770  0.44373  1.0000 0.0330508742
C   C134      1.0  0.41790  0.92770  0.05627  1.0000 0.0330508742
C   C135      1.0  0.08210  0.92770  0.55627  1.0000 0.0330508742
C   C136      1.0  0.91790  0.42770  0.94373  1.0000 0.0330508742
C   C137      1.0  0.70080  0.37150  0.47593  1.0000 0.0589512837
C   C138      1.0  0.29920  0.87150  0.02407  1.0000 0.0589512837
C   C139      1.0  0.20080  0.87150  0.52407  1.0000 0.0589512837
C   C140      1.0  0.79920  0.37150  0.97593  1.0000 0.0589512837
C   C141      1.0  0.64680  0.31740  0.47620  1.0000 -0.2294106503
C   C142      1.0  0.35320  0.81740  0.02380  1.0000 -0.2294106503
C   C143      1.0  0.14680  0.81740  0.52380  1.0000 -0.2294106503
C   C144      1.0  0.85320  0.31740  0.97620  1.0000 -0.2294106503
C   C145      1.0  0.32870  0.99390  0.43719  1.0000 0.0416025945
C   C146      1.0  0.67130  0.49390  0.06281  1.0000 0.0416025945
C   C147      1.0  0.82870  0.49390  0.56281  1.0000 0.0416025945
C   C148      1.0  0.17130  0.99390  0.93719  1.0000 0.0416025945
C   C149      1.0  0.33350  0.98220  0.38614  1.0000 -0.2186969944
C   C150      1.0  0.66650  0.48220  0.11386  1.0000 -0.2186969944
C   C151      1.0  0.83350  0.48220  0.61386  1.0000 -0.2186969944
C   C152      1.0  0.16650  0.98220  0.88614  1.0000 -0.2186969944
C   C153      1.0  0.25460  0.97210  0.35880  1.0000 0.1592546663
C   C154      1.0  0.74540  0.47210  0.14120  1.0000 0.1592546663
C   C155      1.0  0.75460  0.47210  0.64120  1.0000 0.1592546663
C   C156      1.0  0.24540  0.97210  0.85880  1.0000 0.1592546663
C   C157      1.0  0.17250  0.97330  0.38384  1.0000 -0.2294106503
C   C158      1.0  0.82750  0.47330  0.11616  1.0000 -0.2294106503
C   C159      1.0  0.67250  0.47330  0.61616  1.0000 -0.2294106503
C   C160      1.0  0.32750  0.97330  0.88384  1.0000 -0.2294106503
C   C161      1.0  0.17210  0.98280  0.43654  1.0000 0.0416025945
C   C162      1.0  0.82790  0.48280  0.06346  1.0000 0.0416025945
C   C163      1.0  0.67210  0.48280  0.56346  1.0000 0.0416025945
C   C164      1.0  0.32790  0.98280  0.93654  1.0000 0.0416025945
C   C165      1.0  0.25630  0.96020  0.30296  1.0000 -0.2494991432
C   C166      1.0  0.74370  0.46020  0.19704  1.0000 -0.2494991432
C   C167      1.0  0.75630  0.46020  0.69704  1.0000 -0.2494991432
C   C168      1.0  0.24370  0.96020  0.80296  1.0000 -0.2494991432
C   C169      1.0  0.25290  0.02000  0.27442  1.0000 -0.2390389946
C   C170      1.0  0.74710  0.52000  0.22558  1.0000 -0.2390389946
C   C171      1.0  0.75290  0.52000  0.72558  1.0000 -0.2390389946
C   C172      1.0  0.24710  0.02000  0.77442  1.0000 -0.2390389946
C   C173      1.0  0.25440  0.01380  0.21787  1.0000 0.1497314292
C   C174      1.0  0.74560  0.51380  0.28213  1.0000 0.1497314292
C   C175      1.0  0.75440  0.51380  0.78213  1.0000 0.1497314292
C   C176      1.0  0.24560  0.01380  0.71787  1.0000 0.1497314292
C   C177      1.0  0.24010  0.95900  0.19312  1.0000 -0.2186969944
C   C178      1.0  0.75990  0.45900  0.30688  1.0000 -0.2186969944
C   C179      1.0  0.74010  0.45900  0.80688  1.0000 -0.2186969944
C   C180      1.0  0.25990  0.95900  0.69312  1.0000 -0.2186969944
C   C181      1.0  0.24060  0.95720  0.14143  1.0000 0.0416025945
C   C182      1.0  0.75940  0.45720  0.35857  1.0000 0.0416025945
C   C183      1.0  0.74060  0.45720  0.85857  1.0000 0.0416025945
C   C184      1.0  0.25940  0.95720  0.64143  1.0000 0.0416025945
C   C185      1.0  0.26580  0.06020  0.13692  1.0000 0.0330508742
C   C186      1.0  0.73420  0.56020  0.36308  1.0000 0.0330508742
C   C187      1.0  0.76580  0.56020  0.86308  1.0000 0.0330508742
C   C188      1.0  0.23420  0.06020  0.63692  1.0000 0.0330508742
C   C189      1.0  0.26780  0.06540  0.18815  1.0000 -0.2294106503
C   C190      1.0  0.73220  0.56540  0.31185  1.0000 -0.2294106503
C   C191      1.0  0.76780  0.56540  0.81185  1.0000 -0.2294106503
C   C192      1.0  0.23220  0.06540  0.68815  1.0000 -0.2294106503
N   N1        1.0  0.17470  0.42312  0.53315  1.0000 -0.2109065839
N   N2        1.0  0.82530  0.92312  0.96685  1.0000 -0.2109065839
N   N3        1.0  0.67470  0.92312  0.46685  1.0000 -0.2109065839
N   N4        1.0  0.32530  0.42312  0.03315  1.0000 -0.2109065839
N   N5        1.0  0.83130  0.07589  0.45864  1.0000 -0.2109065839
N   N6        1.0  0.16870  0.57589  0.04136  1.0000 -0.2109065839
N   N7        1.0  0.33130  0.57589  0.54136  1.0000 -0.2109065839
N   N8        1.0  0.66870  0.07589  0.95864  1.0000 -0.2109065839
N   N9        1.0  0.25050  0.50716  0.46217  1.0000 -0.2186969944
N   N10       1.0  0.74950  0.00716  0.03783  1.0000 -0.2186969944
N   N11       1.0  0.75050  0.00716  0.53783  1.0000 -0.2186969944
N   N12       1.0  0.24950  0.50716  0.96217  1.0000 -0.2186969944
N   N13       1.0  0.24670  0.49316  0.11312  1.0000 -0.2186969944
N   N14       1.0  0.75330  0.99316  0.38688  1.0000 -0.2186969944
N   N15       1.0  0.74670  0.99316  0.88688  1.0000 -0.2186969944
N   N16       1.0  0.25330  0.49316  0.61312  1.0000 -0.2186969944
N   N17       1.0  0.32530  0.07688  0.53315  1.0000 -0.2109065839
N   N18       1.0  0.67470  0.57688  0.96685  1.0000 -0.2109065839
N   N19       1.0  0.82530  0.57688  0.46685  1.0000 -0.2109065839
N   N20       1.0  0.17470  0.07688  0.03315  1.0000 -0.2109065839
N   N21       1.0  0.66870  0.42411  0.45864  1.0000 -0.2109065839
N   N22       1.0  0.33130  0.92411  0.04136  1.0000 -0.2109065839
N   N23       1.0  0.16870  0.92411  0.54136  1.0000 -0.2109065839
N   N24       1.0  0.83130  0.42411  0.95864  1.0000 -0.2109065839
N   N25       1.0  0.24950  0.99284  0.46217  1.0000 -0.2186969944
N   N26       1.0  0.75050  0.49284  0.03783  1.0000 -0.2186969944
N   N27       1.0  0.74950  0.49284  0.53783  1.0000 -0.2186969944
N   N28       1.0  0.25050  0.99284  0.96217  1.0000 -0.2186969944
N   N29       1.0  0.25330  0.00684  0.11312  1.0000 -0.2186969944
N   N30       1.0  0.74670  0.50684  0.38688  1.0000 -0.2186969944
N   N31       1.0  0.75330  0.50684  0.88688  1.0000 -0.2186969944
N   N32       1.0  0.24670  0.00684  0.61312  1.0000 -0.2186969944
