# DDEC6 charges by PACMAN v1.1 (https://github.com/mtap-research/PACMAN-charge/)
data_1998[V][nan]3[ASR]1
_chemical_formula_sum              "V6 P8 H8 C4 O32"
_cell_length_a       13.512
_cell_length_b       16.194
_cell_length_c       4.677
_cell_angle_alpha    90
_cell_angle_beta     90
_cell_angle_gamma    90

_symmetry_space_group_name_H-M    "P 1"
_symmetry_Int_Tables_number       1

loop_
  _symmetry_equiv_pos_as_xyz
  'x, y, z'

loop_
  _atom_site_type_symbol
  _atom_site_label
  _atom_site_symmetry_multiplicity
  _atom_site_fract_x
  _atom_site_fract_y
  _atom_site_fract_z
  _atom_site_occupancy
  _atom_site_charge
V   V1        1.0  0.99998  0.49998  0.00047  1.0000 1.9090957518
V   V2        1.0  0.49991  0.49990  0.00024  1.0000 1.9090957518
V   V3        1.0  0.00011  0.99788  0.00077  1.0000 1.9090957518
V   V4        1.0  0.49991  0.00010  0.00104  1.0000 1.9090957518
V   V5        1.0  0.74963  0.74985  0.34158  1.0000 1.8763748582
V   V6        1.0  0.24970  0.24982  0.65739  1.0000 1.8763748582
P   P1        1.0  0.63508  0.57837  0.49403  1.0000 1.5094825353
P   P2        1.0  0.86499  0.92088  0.49446  1.0000 1.5094825353
P   P3        1.0  0.36435  0.07862  0.50648  1.0000 1.5094825353
P   P4        1.0  0.13517  0.42127  0.50614  1.0000 1.5094825353
P   P5        1.0  0.36473  0.42135  0.50619  1.0000 1.5094825353
P   P6        1.0  0.13476  0.07812  0.50695  1.0000 1.5094825353
P   P7        1.0  0.63537  0.92149  0.49411  1.0000 1.5094825353
P   P8        1.0  0.86480  0.57869  0.49388  1.0000 1.5094825353
H   H1        1.0  0.75014  0.48352  0.69751  1.0000 0.2540038589
H   H2        1.0  0.75002  0.58037  0.88073  1.0000 0.2359449852
H   H3        1.0  0.75000  0.01664  0.69749  1.0000 0.2540038589
H   H4        1.0  0.75006  0.91988  0.87923  1.0000 0.2359449852
H   H5        1.0  0.25030  0.98336  0.30290  1.0000 0.2540038589
H   H6        1.0  0.24957  0.08037  0.12080  1.0000 0.2359449852
H   H7        1.0  0.24996  0.51642  0.30277  1.0000 0.2540038589
H   H8        1.0  0.24999  0.41965  0.11925  1.0000 0.2359449852
C   C1        1.0  0.74992  0.55131  0.66687  1.0000 -0.7491397534
C   C2        1.0  0.75020  0.94895  0.66555  1.0000 -0.7491397534
C   C3        1.0  0.24983  0.05121  0.33440  1.0000 -0.7491397534
C   C4        1.0  0.24991  0.44864  0.33310  1.0000 -0.7491397534
O   O1        1.0  0.55252  0.58586  0.71612  1.0000 -0.7396850597
O   O2        1.0  0.62083  0.51916  0.24194  1.0000 -0.7396850597
O   O3        1.0  0.65592  0.66968  0.37605  1.0000 -0.7317067359
O   O4        1.0  0.43828  0.57867  0.16403  1.0000 -0.5970545435
O   O5        1.0  0.94730  0.91365  0.71615  1.0000 -0.7317067359
O   O6        1.0  0.88054  0.97953  0.24120  1.0000 -0.7396850597
O   O7        1.0  0.84381  0.82981  0.37541  1.0000 -0.7317067359
O   O8        1.0  0.06296  0.91863  0.15975  1.0000 -0.5970545435
O   O9        1.0  0.44701  0.08599  0.28374  1.0000 -0.7396850597
O   O10       1.0  0.37897  0.01929  0.75889  1.0000 -0.7396850597
O   O11       1.0  0.34331  0.16981  0.62426  1.0000 -0.7317067359
O   O12       1.0  0.56183  0.07852  0.83591  1.0000 -0.5970545435
O   O13       1.0  0.05258  0.41397  0.28385  1.0000 -0.7396850597
O   O14       1.0  0.12089  0.48051  0.75852  1.0000 -0.7396850597
O   O15       1.0  0.15620  0.33006  0.62340  1.0000 -0.7317067359
O   O16       1.0  0.93810  0.42152  0.83580  1.0000 -0.5970545435
O   O17       1.0  0.44739  0.41398  0.28393  1.0000 -0.7396850597
O   O18       1.0  0.37903  0.48062  0.75861  1.0000 -0.7396850597
O   O19       1.0  0.34368  0.33009  0.62380  1.0000 -0.7317067359
O   O20       1.0  0.56189  0.42153  0.83595  1.0000 -0.5970545435
O   O21       1.0  0.05248  0.08303  0.28384  1.0000 -0.7396850597
O   O22       1.0  0.12048  0.01863  0.75715  1.0000 -0.7396850597
O   O23       1.0  0.15508  0.16997  0.62183  1.0000 -0.7396850597
O   O24       1.0  0.94063  0.07578  0.83943  1.0000 -0.5629442159
O   O25       1.0  0.55251  0.91397  0.71593  1.0000 -0.7396850597
O   O26       1.0  0.62074  0.98071  0.24151  1.0000 -0.7396850597
O   O27       1.0  0.65632  0.83020  0.37628  1.0000 -0.7317067359
O   O28       1.0  0.43824  0.92137  0.16401  1.0000 -0.5943430487
O   O29       1.0  0.94750  0.58602  0.71617  1.0000 -0.7396850597
O   O30       1.0  0.87921  0.51941  0.24166  1.0000 -0.7396850597
O   O31       1.0  0.84358  0.66985  0.37653  1.0000 -0.7317067359
O   O32       1.0  0.06179  0.57862  0.16399  1.0000 -0.5970545435
