# DDEC6 charges by PACMAN v1.1 (https://github.com/mtap-research/PACMAN-charge/)
data_1999[Co][ths]3[ASR]1
_chemical_formula_sum              "Co4 H48 C60 N16 O12"
_cell_length_a       15.8375
_cell_length_b       15.8375
_cell_length_c       10.798
_cell_angle_alpha    76.5416
_cell_angle_beta     103.458
_cell_angle_gamma    85.1911

_symmetry_space_group_name_H-M    "P 1"
_symmetry_Int_Tables_number       1

loop_
  _symmetry_equiv_pos_as_xyz
  'x, y, z'

loop_
  _atom_site_type_symbol
  _atom_site_label
  _atom_site_symmetry_multiplicity
  _atom_site_fract_x
  _atom_site_fract_y
  _atom_site_fract_z
  _atom_site_occupancy
  _atom_site_charge
Co  Co1       1.0  0.77210  0.06630  0.04150  1.0000 0.5634181505
Co  Co2       1.0  0.93370  0.22790  0.54150  1.0000 0.5634181505
Co  Co3       1.0  0.26060  0.57800  0.27970  1.0000 0.3206730341
Co  Co4       1.0  0.42200  0.73940  0.77970  1.0000 0.3206730341
H   H1        1.0  0.94600  0.23620  0.82840  1.0000 0.1092761034
H   H2        1.0  0.76380  0.05400  0.32840  1.0000 0.1092761034
H   H3        1.0  0.70250  0.13590  0.74750  1.0000 0.1000036584
H   H4        1.0  0.86410  0.29750  0.24750  1.0000 0.1000036584
H   H5        1.0  0.08420  0.69720  0.16830  1.0000 0.0902049972
H   H6        1.0  0.30280  0.91580  0.66830  1.0000 0.0902049972
H   H7        1.0  0.13970  0.44770  0.25230  1.0000 0.1000036584
H   H8        1.0  0.55230  0.86030  0.75230  1.0000 0.1000036584
H   H9        1.0  0.06660  0.37000  0.11840  1.0000 0.1304024359
H   H10       1.0  0.63000  0.93340  0.61840  1.0000 0.1304024359
H   H11       1.0  0.25680  0.55800  0.01510  1.0000 0.1000036584
H   H12       1.0  0.44200  0.74320  0.51510  1.0000 0.1000036584
H   H13       1.0  0.44970  0.27390  0.45280  1.0000 0.1304024359
H   H14       1.0  0.72610  0.55030  0.95280  1.0000 0.1304024359
H   H15       1.0  0.60110  0.23450  0.59250  1.0000 0.1304024359
H   H16       1.0  0.76550  0.39890  0.09250  1.0000 0.1304024359
H   H17       1.0  0.42520  0.39120  0.73590  1.0000 0.1304024359
H   H18       1.0  0.60880  0.57480  0.23590  1.0000 0.1304024359
H   H19       1.0  0.34970  0.39050  0.30880  1.0000 0.1000036584
H   H20       1.0  0.60950  0.65030  0.80880  1.0000 0.1000036584
H   H21       1.0  0.58850  0.15950  0.02370  1.0000 0.1000036584
H   H22       1.0  0.84050  0.41150  0.52370  1.0000 0.1000036584
H   H23       1.0  0.48230  0.25890  0.87240  1.0000 0.1304024359
H   H24       1.0  0.74110  0.51770  0.37240  1.0000 0.1304024359
H   H25       1.0  0.33040  0.50720  0.57910  1.0000 0.1000036584
H   H26       1.0  0.49280  0.66960  0.07910  1.0000 0.1000036584
H   H27       1.0  0.99800  0.31640  0.96350  1.0000 0.1304024359
H   H28       1.0  0.68360  0.00200  0.46350  1.0000 0.1304024359
H   H29       1.0  0.95360  0.93540  0.85800  1.0000 0.1304024359
H   H30       1.0  0.06460  0.04640  0.35800  1.0000 0.1304024359
H   H31       1.0  0.05120  0.37780  0.55900  1.0000 0.0902049972
H   H32       1.0  0.62220  0.94880  0.05900  1.0000 0.0902049972
H   H33       1.0  0.17730  0.50730  0.83930  1.0000 0.1304024359
H   H34       1.0  0.49270  0.82270  0.33930  1.0000 0.1304024359
H   H35       1.0  0.11210  0.11810  0.66740  1.0000 0.0902049972
H   H36       1.0  0.88190  0.88790  0.16740  1.0000 0.0902049972
H   H37       1.0  0.01280  0.81580  0.00660  1.0000 0.1225206783
H   H38       1.0  0.18420  0.98720  0.50660  1.0000 0.1225206783
H   H39       1.0  0.30330  0.74330  0.10110  1.0000 0.1000036584
H   H40       1.0  0.25670  0.69670  0.60110  1.0000 0.1000036584
H   H41       1.0  0.18010  0.98430  0.80310  1.0000 0.1225206783
H   H42       1.0  0.01570  0.81990  0.30310  1.0000 0.1225206783
H   H43       1.0  0.23640  0.85260  0.90700  1.0000 0.1304024359
H   H44       1.0  0.14740  0.76360  0.40700  1.0000 0.1304024359
H   H45       1.0  0.89400  0.07920  0.76070  1.0000 0.1000036584
H   H46       1.0  0.92080  0.10600  0.26070  1.0000 0.1000036584
H   H47       1.0  0.09540  0.45140  0.71550  1.0000 0.1304024359
H   H48       1.0  0.54860  0.90460  0.21550  1.0000 0.1304024359
C   C1        1.0  0.97870  0.27970  0.80110  1.0000 0.0596137239
C   C2        1.0  0.72030  0.02130  0.30110  1.0000 0.0596137239
C   C3        1.0  0.65680  0.16240  0.77240  1.0000 0.0701898355
C   C4        1.0  0.83760  0.34320  0.27240  1.0000 0.0701898355
C   C5        1.0  0.11610  0.72970  0.11720  1.0000 0.0364150056
C   C6        1.0  0.27030  0.88390  0.61720  1.0000 0.0364150056
C   C7        1.0  0.14880  0.45600  0.16850  1.0000 0.0596137239
C   C8        1.0  0.54400  0.85120  0.66850  1.0000 0.0596137239
C   C9        1.0  0.10390  0.40830  0.09050  1.0000 -0.2211531991
C   C10       1.0  0.59170  0.89610  0.59050  1.0000 -0.2211531991
C   C11       1.0  0.11560  0.86220  0.96020  1.0000 0.1092761034
C   C12       1.0  0.13780  0.88440  0.46020  1.0000 0.1092761034
C   C13       1.0  0.07340  0.94800  0.86580  1.0000 0.1000036584
C   C14       1.0  0.05200  0.92660  0.36580  1.0000 0.1000036584
C   C15       1.0  0.51770  0.26270  0.70660  1.0000 0.1092761034
C   C16       1.0  0.73730  0.48230  0.20660  1.0000 0.1092761034
C   C17       1.0  0.44860  0.32820  0.60870  1.0000 0.0787339539
C   C18       1.0  0.67180  0.55140  0.10870  1.0000 0.0787339539
C   C19       1.0  0.21440  0.52260  0.03060  1.0000 0.1000036584
C   C20       1.0  0.47740  0.78560  0.53060  1.0000 0.1000036584
C   C21       1.0  0.07490  0.37770  0.87080  1.0000 0.0787339539
C   C22       1.0  0.62230  0.92510  0.37080  1.0000 0.0787339539
C   C23       1.0  0.11920  0.42220  0.96810  1.0000 0.1092761034
C   C24       1.0  0.57780  0.88080  0.46810  1.0000 0.1092761034
C   C25       1.0  0.42690  0.32050  0.47980  1.0000 -0.1894319313
C   C26       1.0  0.67950  0.57310  0.97980  1.0000 -0.1894319313
C   C27       1.0  0.59500  0.22040  0.67830  1.0000 -0.2075865263
C   C28       1.0  0.77960  0.40500  0.17830  1.0000 -0.2075865263
C   C29       1.0  0.41230  0.39190  0.64710  1.0000 -0.1624535019
C   C30       1.0  0.60810  0.58770  0.14710  1.0000 -0.1624535019
C   C31       1.0  0.36710  0.39170  0.39680  1.0000 0.0701898355
C   C32       1.0  0.60830  0.63290  0.89680  1.0000 0.0701898355
C   C33       1.0  0.59100  0.17500  0.93620  1.0000 0.0787339539
C   C34       1.0  0.82500  0.40900  0.43620  1.0000 0.0787339539
C   C35       1.0  0.52630  0.23430  0.84210  1.0000 -0.2211531991
C   C36       1.0  0.76570  0.47370  0.34210  1.0000 -0.2211531991
C   C37       1.0  0.35390  0.46070  0.55270  1.0000 0.0902049972
C   C38       1.0  0.53930  0.64610  0.05270  1.0000 0.0902049972
C   C39       1.0  0.01560  0.32400  0.88580  1.0000 -0.1894319313
C   C40       1.0  0.67600  0.98440  0.38580  1.0000 -0.1894319313
C   C41       1.0  0.98990  0.97530  0.83140  1.0000 -0.2075865263
C   C42       1.0  0.02470  0.01010  0.33140  1.0000 -0.2075865263
C   C43       1.0  0.03940  0.36160  0.64090  1.0000 0.0596137239
C   C44       1.0  0.63840  0.96060  0.14090  1.0000 0.0596137239
C   C45       1.0  0.17210  0.48910  0.92520  1.0000 -0.2211531991
C   C46       1.0  0.51090  0.82790  0.42520  1.0000 -0.2211531991
C   C47       1.0  0.07880  0.08140  0.70970  1.0000 0.0596137239
C   C48       1.0  0.91860  0.92120  0.20970  1.0000 0.0596137239
C   C49       1.0  0.07360  0.80440  0.02520  1.0000 -0.1988784963
C   C50       1.0  0.19560  0.92640  0.52520  1.0000 -0.1988784963
C   C51       1.0  0.24240  0.75480  0.07350  1.0000 0.0902049972
C   C52       1.0  0.24520  0.75760  0.57350  1.0000 0.0902049972
C   C53       1.0  0.12090  0.00190  0.79400  1.0000 -0.2310097696
C   C54       1.0  0.99810  0.87910  0.29400  1.0000 -0.2310097696
C   C55       1.0  0.20620  0.82800  0.96730  1.0000 -0.2075865263
C   C56       1.0  0.17200  0.79380  0.46730  1.0000 -0.2075865263
C   C57       1.0  0.95020  0.05820  0.75900  1.0000 0.0701898355
C   C58       1.0  0.94180  0.04980  0.25900  1.0000 0.0701898355
C   C59       1.0  0.07170  0.40050  0.74210  1.0000 -0.2211531991
C   C60       1.0  0.59950  0.92830  0.24210  1.0000 -0.2211531991
N   N1        1.0  0.98830  0.29730  0.67100  1.0000 -0.2774004484
N   N2        1.0  0.70270  0.01170  0.17100  1.0000 -0.2774004484
N   N3        1.0  0.65760  0.14000  0.89910  1.0000 -0.2310097696
N   N4        1.0  0.86000  0.34240  0.39910  1.0000 -0.2310097696
N   N5        1.0  0.20040  0.50940  0.14150  1.0000 -0.2075865263
N   N6        1.0  0.49060  0.79960  0.64150  1.0000 -0.2075865263
N   N7        1.0  0.33130  0.46110  0.42540  1.0000 -0.2381505439
N   N8        1.0  0.53890  0.66870  0.92540  1.0000 -0.2381505439
N   N9        1.0  0.20010  0.70110  0.13800  1.0000 -0.2211531991
N   N10       1.0  0.29890  0.79990  0.63800  1.0000 -0.2211531991
N   N11       1.0  0.99430  0.10830  0.68570  1.0000 -0.2211531991
N   N12       1.0  0.89170  0.00570  0.18570  1.0000 -0.2211531991
N   N13       1.0  0.82810  0.21830  0.02330  1.0000 0.6515510535
N   N14       1.0  0.78170  0.17190  0.52330  1.0000 0.6515510535
N   N15       1.0  0.41050  0.63070  0.30680  1.0000 0.6515510535
N   N16       1.0  0.36930  0.58950  0.80680  1.0000 0.6515510535
O   O1        1.0  0.78330  0.18790  0.10080  1.0000 -0.398524701
O   O2        1.0  0.81210  0.21670  0.60080  1.0000 -0.398524701
O   O3        1.0  0.38440  0.58720  0.22140  1.0000 -0.4318333114
O   O4        1.0  0.41280  0.61560  0.72140  1.0000 -0.4318333114
O   O5        1.0  0.84330  0.16430  0.95020  1.0000 -0.4714537854
O   O6        1.0  0.83570  0.15670  0.45020  1.0000 -0.4714537854
O   O7        1.0  0.35920  0.65220  0.36700  1.0000 -0.392718553
O   O8        1.0  0.34780  0.64080  0.86700  1.0000 -0.392718553
O   O9        1.0  0.85410  0.28810  0.00380  1.0000 -0.3701030904
O   O10       1.0  0.71190  0.14590  0.50380  1.0000 -0.3701030904
O   O11       1.0  0.48460  0.65360  0.31560  1.0000 -0.4064011271
O   O12       1.0  0.34640  0.51540  0.81560  1.0000 -0.4064011271
