# DDEC6 charges by PACMAN v1.1 (https://github.com/mtap-research/PACMAN-charge/)
data_1999[Cd][dia]3[ASR]2
_chemical_formula_sum              "Cd8 H64 C96 N16 O32"
_cell_length_a       12.081
_cell_length_b       15.323
_cell_length_c       19.705
_cell_angle_alpha    90
_cell_angle_beta     90
_cell_angle_gamma    90

_symmetry_space_group_name_H-M    "P 1"
_symmetry_Int_Tables_number       1

loop_
  _symmetry_equiv_pos_as_xyz
  'x, y, z'

loop_
  _atom_site_type_symbol
  _atom_site_label
  _atom_site_symmetry_multiplicity
  _atom_site_fract_x
  _atom_site_fract_y
  _atom_site_fract_z
  _atom_site_occupancy
  _atom_site_charge
Cd  Cd1       1.0  0.68885  0.27225  0.17872  1.0000 0.8146937915
Cd  Cd2       1.0  0.81115  0.72775  0.67872  1.0000 0.8146937915
Cd  Cd3       1.0  0.31115  0.77225  0.32128  1.0000 0.815586073
Cd  Cd4       1.0  0.18885  0.22775  0.82128  1.0000 0.8146937915
Cd  Cd5       1.0  0.31115  0.72775  0.82128  1.0000 0.8146937915
Cd  Cd6       1.0  0.18885  0.27225  0.32128  1.0000 0.8146937915
Cd  Cd7       1.0  0.68885  0.22775  0.67872  1.0000 0.8146937915
Cd  Cd8       1.0  0.81115  0.77225  0.17872  1.0000 0.815586073
H   H1        1.0  0.39306  0.42385  0.31886  1.0000 0.1324705572
H   H2        1.0  0.30153  0.56597  0.35472  1.0000 0.0772328513
H   H3        1.0  0.48037  0.70895  0.20791  1.0000 0.0772328513
H   H4        1.0  0.58181  0.57168  0.16880  1.0000 0.1183186915
H   H5        1.0  0.39730  0.39525  0.98904  1.0000 0.1089276594
H   H6        1.0  0.52379  0.39850  0.09175  1.0000 0.0708883248
H   H7        1.0  0.64873  0.14767  0.04477  1.0000 0.0708883248
H   H8        1.0  0.52368  0.13566  0.94305  1.0000 0.1183186915
H   H9        1.0  0.10694  0.57615  0.81886  1.0000 0.1324705572
H   H10       1.0  0.19847  0.43403  0.85472  1.0000 0.0772328513
H   H11       1.0  0.01963  0.29105  0.70791  1.0000 0.0772328513
H   H12       1.0  0.91819  0.42832  0.66880  1.0000 0.1183186915
H   H13       1.0  0.10270  0.60475  0.48904  1.0000 0.1089276594
H   H14       1.0  0.97621  0.60150  0.59175  1.0000 0.0708883248
H   H15       1.0  0.85127  0.85233  0.54477  1.0000 0.0708883248
H   H16       1.0  0.97632  0.86434  0.44305  1.0000 0.1183186915
H   H17       1.0  0.60694  0.92385  0.18114  1.0000 0.1324705572
H   H18       1.0  0.69847  0.06597  0.14528  1.0000 0.0772328513
H   H19       1.0  0.51963  0.20895  0.29209  1.0000 0.0772328513
H   H20       1.0  0.41819  0.07168  0.33120  1.0000 0.1183186915
H   H21       1.0  0.60270  0.89525  0.51096  1.0000 0.1089276594
H   H22       1.0  0.47621  0.89850  0.40825  1.0000 0.0708883248
H   H23       1.0  0.35127  0.64767  0.45523  1.0000 0.0708883248
H   H24       1.0  0.47632  0.63566  0.55695  1.0000 0.1183186915
H   H25       1.0  0.89306  0.07615  0.68114  1.0000 0.1324705572
H   H26       1.0  0.80153  0.93403  0.64528  1.0000 0.0772328513
H   H27       1.0  0.98037  0.79105  0.79209  1.0000 0.0772328513
H   H28       1.0  0.08181  0.92832  0.83120  1.0000 0.1183186915
H   H29       1.0  0.89730  0.10475  0.01096  1.0000 0.1089276594
H   H30       1.0  0.02379  0.10150  0.90825  1.0000 0.0708883248
H   H31       1.0  0.14873  0.35233  0.95523  1.0000 0.0708883248
H   H32       1.0  0.02368  0.36434  0.05695  1.0000 0.1183186915
H   H33       1.0  0.60694  0.57615  0.68114  1.0000 0.1324705572
H   H34       1.0  0.69847  0.43403  0.64528  1.0000 0.0772328513
H   H35       1.0  0.51963  0.29105  0.79209  1.0000 0.0772328513
H   H36       1.0  0.41819  0.42832  0.83120  1.0000 0.1183186915
H   H37       1.0  0.60270  0.60475  0.01096  1.0000 0.1089276594
H   H38       1.0  0.47621  0.60150  0.90825  1.0000 0.0708883248
H   H39       1.0  0.35127  0.85233  0.95523  1.0000 0.0708883248
H   H40       1.0  0.47632  0.86434  0.05695  1.0000 0.1183186915
H   H41       1.0  0.89306  0.42385  0.18114  1.0000 0.1324705572
H   H42       1.0  0.80153  0.56597  0.14528  1.0000 0.0772328513
H   H43       1.0  0.98037  0.70895  0.29209  1.0000 0.0772328513
H   H44       1.0  0.08181  0.57168  0.33120  1.0000 0.1183186915
H   H45       1.0  0.89730  0.39525  0.51096  1.0000 0.1089276594
H   H46       1.0  0.02379  0.39850  0.40825  1.0000 0.0708883248
H   H47       1.0  0.14873  0.14767  0.45523  1.0000 0.0708883248
H   H48       1.0  0.02368  0.13566  0.55695  1.0000 0.1183186915
H   H49       1.0  0.39306  0.07615  0.81886  1.0000 0.1324705572
H   H50       1.0  0.30153  0.93403  0.85472  1.0000 0.0772328513
H   H51       1.0  0.48037  0.79105  0.70791  1.0000 0.0772328513
H   H52       1.0  0.58181  0.92832  0.66880  1.0000 0.1183186915
H   H53       1.0  0.39730  0.10475  0.48904  1.0000 0.1089276594
H   H54       1.0  0.52379  0.10150  0.59175  1.0000 0.0708883248
H   H55       1.0  0.64873  0.35233  0.54477  1.0000 0.0708883248
H   H56       1.0  0.52368  0.36434  0.44305  1.0000 0.1183186915
H   H57       1.0  0.10694  0.92385  0.31886  1.0000 0.1324705572
H   H58       1.0  0.19847  0.06597  0.35472  1.0000 0.0772328513
H   H59       1.0  0.01963  0.20895  0.20791  1.0000 0.0772328513
H   H60       1.0  0.91819  0.07168  0.16880  1.0000 0.1183186915
H   H61       1.0  0.10270  0.89525  0.98904  1.0000 0.1089276594
H   H62       1.0  0.97621  0.89850  0.09175  1.0000 0.0708883248
H   H63       1.0  0.85127  0.64767  0.04477  1.0000 0.0708883248
H   H64       1.0  0.97632  0.63566  0.94305  1.0000 0.1183186915
C   C1        1.0  0.55500  0.40857  0.22136  1.0000 0.5334434636
C   C2        1.0  0.49370  0.49003  0.24227  1.0000 0.027087117
C   C3        1.0  0.41540  0.48827  0.29337  1.0000 -0.1299401031
C   C4        1.0  0.36580  0.56552  0.31236  1.0000 0.0986563831
C   C5        1.0  0.46290  0.64345  0.23317  1.0000 0.0986563831
C   C6        1.0  0.51790  0.56885  0.21131  1.0000 -0.138822744
C   C7        1.0  0.36500  0.25560  0.90507  1.0000 0.5442131885
C   C8        1.0  0.44990  0.26403  0.96059  1.0000 0.027087117
C   C9        1.0  0.45230  0.33690  0.00135  1.0000 -0.1299401031
C   C10       1.0  0.52200  0.33870  0.05735  1.0000 0.1089276594
C   C11       1.0  0.58900  0.20290  0.03207  1.0000 0.0872178186
C   C12       1.0  0.52120  0.19650  0.97631  1.0000 -0.1245960019
C   C13       1.0  0.94500  0.59143  0.72136  1.0000 0.5334434636
C   C14       1.0  0.00630  0.50997  0.74227  1.0000 0.027087117
C   C15       1.0  0.08460  0.51173  0.79337  1.0000 -0.1299401031
C   C16       1.0  0.13420  0.43448  0.81236  1.0000 0.0986563831
C   C17       1.0  0.03710  0.35655  0.73317  1.0000 0.0986563831
C   C18       1.0  0.98210  0.43115  0.71131  1.0000 -0.138822744
C   C19       1.0  0.13500  0.74440  0.40507  1.0000 0.5442131885
C   C20       1.0  0.05010  0.73597  0.46059  1.0000 0.027087117
C   C21       1.0  0.04770  0.66310  0.50135  1.0000 -0.1299401031
C   C22       1.0  0.97800  0.66130  0.55735  1.0000 0.1089276594
C   C23       1.0  0.91100  0.79710  0.53207  1.0000 0.0872178186
C   C24       1.0  0.97880  0.80350  0.47631  1.0000 -0.1299401031
C   C25       1.0  0.44500  0.90857  0.27864  1.0000 0.5334434636
C   C26       1.0  0.50630  0.99003  0.25773  1.0000 0.027087117
C   C27       1.0  0.58460  0.98827  0.20663  1.0000 -0.1299401031
C   C28       1.0  0.63420  0.06552  0.18764  1.0000 0.0986563831
C   C29       1.0  0.53710  0.14345  0.26683  1.0000 0.0986563831
C   C30       1.0  0.48210  0.06885  0.28869  1.0000 -0.138822744
C   C31       1.0  0.63500  0.75560  0.59493  1.0000 0.5442131885
C   C32       1.0  0.55010  0.76403  0.53941  1.0000 0.027087117
C   C33       1.0  0.54770  0.83690  0.49865  1.0000 -0.1299401031
C   C34       1.0  0.47800  0.83870  0.44265  1.0000 0.1089276594
C   C35       1.0  0.41100  0.70290  0.46793  1.0000 0.0872178186
C   C36       1.0  0.47880  0.69650  0.52369  1.0000 -0.1299401031
C   C37       1.0  0.05500  0.09143  0.77864  1.0000 0.5334434636
C   C38       1.0  0.99370  0.00997  0.75773  1.0000 0.027087117
C   C39       1.0  0.91540  0.01173  0.70663  1.0000 -0.1299401031
C   C40       1.0  0.86580  0.93448  0.68764  1.0000 0.0986563831
C   C41       1.0  0.96290  0.85655  0.76683  1.0000 0.0986563831
C   C42       1.0  0.01790  0.93115  0.78869  1.0000 -0.138822744
C   C43       1.0  0.86500  0.24440  0.09493  1.0000 0.5442131885
C   C44       1.0  0.94990  0.23597  0.03941  1.0000 0.027087117
C   C45       1.0  0.95230  0.16310  0.99865  1.0000 -0.1299401031
C   C46       1.0  0.02200  0.16130  0.94265  1.0000 0.1089276594
C   C47       1.0  0.08900  0.29710  0.96793  1.0000 0.0872178186
C   C48       1.0  0.02120  0.30350  0.02369  1.0000 -0.1299401031
C   C49       1.0  0.44500  0.59143  0.77864  1.0000 0.5334434636
C   C50       1.0  0.50630  0.50997  0.75773  1.0000 0.027087117
C   C51       1.0  0.58460  0.51173  0.70663  1.0000 -0.1299401031
C   C52       1.0  0.63420  0.43448  0.68764  1.0000 0.0986563831
C   C53       1.0  0.53710  0.35655  0.76683  1.0000 0.0986563831
C   C54       1.0  0.48210  0.43115  0.78869  1.0000 -0.138822744
C   C55       1.0  0.63500  0.74440  0.09493  1.0000 0.5442131885
C   C56       1.0  0.55010  0.73597  0.03941  1.0000 0.027087117
C   C57       1.0  0.54770  0.66310  0.99865  1.0000 -0.1299401031
C   C58       1.0  0.47800  0.66130  0.94265  1.0000 0.1089276594
C   C59       1.0  0.41100  0.79710  0.96793  1.0000 0.0872178186
C   C60       1.0  0.47880  0.80350  0.02369  1.0000 -0.1299401031
C   C61       1.0  0.05500  0.40857  0.27864  1.0000 0.5334434636
C   C62       1.0  0.99370  0.49003  0.25773  1.0000 0.027087117
C   C63       1.0  0.91540  0.48827  0.20663  1.0000 -0.1299401031
C   C64       1.0  0.86580  0.56552  0.18764  1.0000 0.0986563831
C   C65       1.0  0.96290  0.64345  0.26683  1.0000 0.0986563831
C   C66       1.0  0.01790  0.56885  0.28869  1.0000 -0.138822744
C   C67       1.0  0.86500  0.25560  0.59493  1.0000 0.5442131885
C   C68       1.0  0.94990  0.26403  0.53941  1.0000 0.027087117
C   C69       1.0  0.95230  0.33690  0.49865  1.0000 -0.1299401031
C   C70       1.0  0.02200  0.33870  0.44265  1.0000 0.1089276594
C   C71       1.0  0.08900  0.20290  0.46793  1.0000 0.0872178186
C   C72       1.0  0.02120  0.19650  0.52369  1.0000 -0.1299401031
C   C73       1.0  0.55500  0.09143  0.72136  1.0000 0.5334434636
C   C74       1.0  0.49370  0.00997  0.74227  1.0000 0.027087117
C   C75       1.0  0.41540  0.01173  0.79337  1.0000 -0.1299401031
C   C76       1.0  0.36580  0.93448  0.81236  1.0000 0.0986563831
C   C77       1.0  0.46290  0.85655  0.73317  1.0000 0.0986563831
C   C78       1.0  0.51790  0.93115  0.71131  1.0000 -0.138822744
C   C79       1.0  0.36500  0.24440  0.40507  1.0000 0.5442131885
C   C80       1.0  0.44990  0.23597  0.46059  1.0000 0.027087117
C   C81       1.0  0.45230  0.16310  0.50135  1.0000 -0.1299401031
C   C82       1.0  0.52200  0.16130  0.55735  1.0000 0.1089276594
C   C83       1.0  0.58900  0.29710  0.53207  1.0000 0.0872178186
C   C84       1.0  0.52120  0.30350  0.47631  1.0000 -0.1299401031
C   C85       1.0  0.94500  0.90857  0.22136  1.0000 0.5334434636
C   C86       1.0  0.00630  0.99003  0.24227  1.0000 0.027087117
C   C87       1.0  0.08460  0.98827  0.29337  1.0000 -0.1299401031
C   C88       1.0  0.13420  0.06552  0.31236  1.0000 0.0986563831
C   C89       1.0  0.03710  0.14345  0.23317  1.0000 0.0986563831
C   C90       1.0  0.98210  0.06885  0.21131  1.0000 -0.138822744
C   C91       1.0  0.13500  0.75560  0.90507  1.0000 0.5442131885
C   C92       1.0  0.05010  0.76403  0.96059  1.0000 0.027087117
C   C93       1.0  0.04770  0.83690  0.00135  1.0000 -0.1299401031
C   C94       1.0  0.97800  0.83870  0.05735  1.0000 0.1089276594
C   C95       1.0  0.91100  0.70290  0.03207  1.0000 0.0872178186
C   C96       1.0  0.97880  0.69650  0.97631  1.0000 -0.1299401031
N   N1        1.0  0.38850  0.64256  0.28364  1.0000 -0.2624115966
N   N2        1.0  0.58900  0.27242  0.07367  1.0000 -0.2340240332
N   N3        1.0  0.11150  0.35744  0.78364  1.0000 -0.2624115966
N   N4        1.0  0.91100  0.72758  0.57367  1.0000 -0.2340240332
N   N5        1.0  0.61150  0.14256  0.21636  1.0000 -0.2624115966
N   N6        1.0  0.41100  0.77242  0.42633  1.0000 -0.2340240332
N   N7        1.0  0.88850  0.85744  0.71636  1.0000 -0.2624115966
N   N8        1.0  0.08900  0.22758  0.92633  1.0000 -0.2340240332
N   N9        1.0  0.61150  0.35744  0.71636  1.0000 -0.2624115966
N   N10       1.0  0.41100  0.72758  0.92633  1.0000 -0.2340240332
N   N11       1.0  0.88850  0.64256  0.21636  1.0000 -0.2624115966
N   N12       1.0  0.08900  0.27242  0.42633  1.0000 -0.2340240332
N   N13       1.0  0.38850  0.85744  0.78364  1.0000 -0.2624115966
N   N14       1.0  0.58900  0.22758  0.57367  1.0000 -0.2340240332
N   N15       1.0  0.11150  0.14256  0.28364  1.0000 -0.2624115966
N   N16       1.0  0.91100  0.77242  0.07367  1.0000 -0.2340240332
O   O1        1.0  0.51090  0.33596  0.23066  1.0000 -0.5328746012
O   O2        1.0  0.64758  0.41786  0.19421  1.0000 -0.5156812541
O   O3        1.0  0.31535  0.32266  0.88600  1.0000 -0.5388131089
O   O4        1.0  0.34470  0.18063  0.88302  1.0000 -0.5027043096
O   O5        1.0  0.98910  0.66404  0.73066  1.0000 -0.5328746012
O   O6        1.0  0.85242  0.58214  0.69421  1.0000 -0.5156812541
O   O7        1.0  0.18465  0.67734  0.38600  1.0000 -0.5388131089
O   O8        1.0  0.15530  0.81937  0.38302  1.0000 -0.5027043096
O   O9        1.0  0.48910  0.83596  0.26934  1.0000 -0.5328746012
O   O10       1.0  0.35242  0.91786  0.30579  1.0000 -0.5156812541
O   O11       1.0  0.68465  0.82266  0.61400  1.0000 -0.5388131089
O   O12       1.0  0.65530  0.68063  0.61698  1.0000 -0.5027043096
O   O13       1.0  0.01090  0.16404  0.76934  1.0000 -0.5328746012
O   O14       1.0  0.14758  0.08214  0.80579  1.0000 -0.5156812541
O   O15       1.0  0.81535  0.17734  0.11400  1.0000 -0.5388131089
O   O16       1.0  0.84470  0.31937  0.11698  1.0000 -0.5027043096
O   O17       1.0  0.48910  0.66404  0.76934  1.0000 -0.5328746012
O   O18       1.0  0.35242  0.58214  0.80579  1.0000 -0.5156812541
O   O19       1.0  0.68465  0.67734  0.11400  1.0000 -0.5388131089
O   O20       1.0  0.65530  0.81937  0.11698  1.0000 -0.5027043096
O   O21       1.0  0.01090  0.33596  0.26934  1.0000 -0.5328746012
O   O22       1.0  0.14758  0.41786  0.30579  1.0000 -0.5156812541
O   O23       1.0  0.81535  0.32266  0.61400  1.0000 -0.5388131089
O   O24       1.0  0.84470  0.18063  0.61698  1.0000 -0.5027043096
O   O25       1.0  0.51090  0.16404  0.73066  1.0000 -0.5328746012
O   O26       1.0  0.64758  0.08214  0.69421  1.0000 -0.5156812541
O   O27       1.0  0.31535  0.17734  0.38600  1.0000 -0.5388131089
O   O28       1.0  0.34470  0.31937  0.38302  1.0000 -0.5027043096
O   O29       1.0  0.98910  0.83596  0.23066  1.0000 -0.5328746012
O   O30       1.0  0.85242  0.91786  0.19421  1.0000 -0.5156812541
O   O31       1.0  0.18465  0.82266  0.88600  1.0000 -0.5388131089
O   O32       1.0  0.15530  0.68063  0.88302  1.0000 -0.5027043096
