# DDEC6 charges by PACMAN v1.1 (https://github.com/mtap-research/PACMAN-charge/)
data_1999[Mn][pcu]3[ASR]1
_chemical_formula_sum              "Mn2 H120 C60 N12 O12"
_cell_length_a       13.4386
_cell_length_b       13.4386
_cell_length_c       21.16
_cell_angle_alpha    78.8164
_cell_angle_beta     101.184
_cell_angle_gamma    130.455

_symmetry_space_group_name_H-M    "P 1"
_symmetry_Int_Tables_number       1

loop_
  _symmetry_equiv_pos_as_xyz
  'x, y, z'

loop_
  _atom_site_type_symbol
  _atom_site_label
  _atom_site_symmetry_multiplicity
  _atom_site_fract_x
  _atom_site_fract_y
  _atom_site_fract_z
  _atom_site_occupancy
  _atom_site_charge
Mn  Mn1       1.0  0.50000  0.00000  0.00000  1.0000 1.0437767782
Mn  Mn2       1.0  0.00000  0.50000  0.50000  1.0000 1.0437767782
H   H1        1.0  0.77330  0.09890  0.85730  1.0000 0.1323040106
H   H2        1.0  0.09890  0.77330  0.64270  1.0000 0.1323040106
H   H3        1.0  0.22670  0.90110  0.14270  1.0000 0.1323040106
H   H4        1.0  0.90110  0.22670  0.35730  1.0000 0.1323040106
H   H5        1.0  0.67150  0.11950  0.85890  1.0000 0.1700013966
H   H6        1.0  0.11950  0.67150  0.64110  1.0000 0.1700013966
H   H7        1.0  0.32850  0.88050  0.14110  1.0000 0.1700013966
H   H8        1.0  0.88050  0.32850  0.35890  1.0000 0.1700013966
H   H9        1.0  0.76610  0.13770  0.92060  1.0000 0.1600201332
H   H10       1.0  0.13770  0.76610  0.57940  1.0000 0.1600201332
H   H11       1.0  0.23390  0.86230  0.07940  1.0000 0.1600201332
H   H12       1.0  0.86230  0.23390  0.42060  1.0000 0.1600201332
H   H13       1.0  0.68660  0.89720  0.86200  1.0000 0.2399952199
H   H14       1.0  0.89720  0.68660  0.63800  1.0000 0.2399952199
H   H15       1.0  0.31340  0.10280  0.13800  1.0000 0.2399952199
H   H16       1.0  0.10280  0.31340  0.36200  1.0000 0.2399952199
H   H17       1.0  0.44790  0.70210  0.90400  1.0000 0.0985167487
H   H18       1.0  0.70210  0.44790  0.59600  1.0000 0.0985167487
H   H19       1.0  0.55210  0.29790  0.09600  1.0000 0.0985167487
H   H20       1.0  0.29790  0.55210  0.40400  1.0000 0.0985167487
H   H21       1.0  0.52080  0.68440  0.86350  1.0000 0.0831067094
H   H22       1.0  0.68440  0.52080  0.63650  1.0000 0.0831067094
H   H23       1.0  0.47920  0.31560  0.13650  1.0000 0.0831067094
H   H24       1.0  0.31560  0.47920  0.36350  1.0000 0.0831067094
H   H25       1.0  0.66130  0.70750  0.95850  1.0000 0.0985167487
H   H26       1.0  0.70750  0.66130  0.54150  1.0000 0.0985167487
H   H27       1.0  0.33870  0.29250  0.04150  1.0000 0.0985167487
H   H28       1.0  0.29250  0.33870  0.45850  1.0000 0.0985167487
H   H29       1.0  0.57780  0.71320  0.99810  1.0000 0.1126831451
H   H30       1.0  0.71320  0.57780  0.50190  1.0000 0.1126831451
H   H31       1.0  0.42220  0.28680  0.00190  1.0000 0.1126831451
H   H32       1.0  0.28680  0.42220  0.49810  1.0000 0.1126831451
H   H33       1.0  0.46840  0.49060  0.93340  1.0000 0.0911614274
H   H34       1.0  0.49060  0.46840  0.56660  1.0000 0.0911614274
H   H35       1.0  0.53160  0.50940  0.06660  1.0000 0.0911614274
H   H36       1.0  0.50940  0.53160  0.43340  1.0000 0.0911614274
H   H37       1.0  0.39300  0.49680  0.97840  1.0000 0.0911614274
H   H38       1.0  0.49680  0.39300  0.52160  1.0000 0.0911614274
H   H39       1.0  0.60700  0.50320  0.02160  1.0000 0.0911614274
H   H40       1.0  0.50320  0.60700  0.47840  1.0000 0.0911614274
H   H41       1.0  0.74390  0.45190  0.95000  1.0000 0.1383528092
H   H42       1.0  0.45190  0.74390  0.55000  1.0000 0.1383528092
H   H43       1.0  0.25610  0.54810  0.05000  1.0000 0.1383528092
H   H44       1.0  0.54810  0.25610  0.45000  1.0000 0.1383528092
H   H45       1.0  0.78630  0.36530  0.95750  1.0000 0.1700013966
H   H46       1.0  0.36530  0.78630  0.54250  1.0000 0.1700013966
H   H47       1.0  0.21370  0.63470  0.04250  1.0000 0.1700013966
H   H48       1.0  0.63470  0.21370  0.45750  1.0000 0.1700013966
H   H49       1.0  0.69800  0.34080  0.00700  1.0000 0.1700013966
H   H50       1.0  0.34080  0.69800  0.49300  1.0000 0.1700013966
H   H51       1.0  0.30200  0.65920  0.99300  1.0000 0.1700013966
H   H52       1.0  0.65920  0.30200  0.50700  1.0000 0.1700013966
H   H53       1.0  0.58500  0.39920  0.87150  1.0000 0.2492572286
H   H54       1.0  0.39920  0.58500  0.62850  1.0000 0.2492572286
H   H55       1.0  0.41500  0.60080  0.12850  1.0000 0.2492572286
H   H56       1.0  0.60080  0.41500  0.37150  1.0000 0.2492572286
H   H57       1.0  0.36650  0.14510  0.85590  1.0000 0.0985167487
H   H58       1.0  0.14510  0.36650  0.64410  1.0000 0.0985167487
H   H59       1.0  0.63350  0.85490  0.14410  1.0000 0.0985167487
H   H60       1.0  0.85490  0.63350  0.35590  1.0000 0.0985167487
H   H61       1.0  0.45340  0.21400  0.79640  1.0000 0.0985167487
H   H62       1.0  0.21400  0.45340  0.70360  1.0000 0.0985167487
H   H63       1.0  0.54660  0.78600  0.20360  1.0000 0.0985167487
H   H64       1.0  0.78600  0.54660  0.29640  1.0000 0.0985167487
H   H65       1.0  0.34220  0.30380  0.84540  1.0000 0.0985167487
H   H66       1.0  0.30380  0.34220  0.65460  1.0000 0.0985167487
H   H67       1.0  0.65780  0.69620  0.15460  1.0000 0.0985167487
H   H68       1.0  0.69620  0.65780  0.34540  1.0000 0.0985167487
H   H69       1.0  0.46200  0.40280  0.80180  1.0000 0.0911614274
H   H70       1.0  0.40280  0.46200  0.69820  1.0000 0.0911614274
H   H71       1.0  0.53800  0.59720  0.19820  1.0000 0.0911614274
H   H72       1.0  0.59720  0.53800  0.30180  1.0000 0.0911614274
H   H73       1.0  0.14430  0.24010  0.73460  1.0000 0.0911614274
H   H74       1.0  0.24010  0.14430  0.76540  1.0000 0.0911614274
H   H75       1.0  0.85570  0.75990  0.26540  1.0000 0.0911614274
H   H76       1.0  0.75990  0.85570  0.23460  1.0000 0.0911614274
H   H77       1.0  0.26000  0.35020  0.78050  1.0000 0.0691256576
H   H78       1.0  0.35020  0.26000  0.71950  1.0000 0.0691256576
H   H79       1.0  0.74000  0.64980  0.21950  1.0000 0.0691256576
H   H80       1.0  0.64980  0.74000  0.28050  1.0000 0.0691256576
H   H81       1.0  0.23070  0.86510  0.81050  1.0000 0.1323040106
H   H82       1.0  0.86510  0.23070  0.68950  1.0000 0.1323040106
H   H83       1.0  0.76930  0.13490  0.18950  1.0000 0.1323040106
H   H84       1.0  0.13490  0.76930  0.31050  1.0000 0.1323040106
H   H85       1.0  0.29750  0.81150  0.85510  1.0000 0.1700013966
H   H86       1.0  0.81150  0.29750  0.64490  1.0000 0.1700013966
H   H87       1.0  0.70250  0.18850  0.14490  1.0000 0.1700013966
H   H88       1.0  0.18850  0.70250  0.35510  1.0000 0.1700013966
H   H89       1.0  0.37480  0.96320  0.84190  1.0000 0.1600201332
H   H90       1.0  0.96320  0.37480  0.65810  1.0000 0.1600201332
H   H91       1.0  0.62520  0.03680  0.15810  1.0000 0.1600201332
H   H92       1.0  0.03680  0.62520  0.34190  1.0000 0.1600201332
H   H93       1.0  0.08550  0.83990  0.85950  1.0000 0.2492572286
H   H94       1.0  0.83990  0.08550  0.64050  1.0000 0.2399952199
H   H95       1.0  0.91450  0.16010  0.14050  1.0000 0.2399952199
H   H96       1.0  0.16010  0.91450  0.35950  1.0000 0.2399952199
H   H97       1.0  0.09620  0.82620  0.99070  1.0000 0.0985167487
H   H98       1.0  0.82620  0.09620  0.50930  1.0000 0.0985167487
H   H99       1.0  0.90380  0.17380  0.00930  1.0000 0.0985167487
H   H100      1.0  0.17380  0.90380  0.49070  1.0000 0.0985167487
H   H101      1.0  0.96710  0.76650  0.94420  1.0000 0.0831067094
H   H102      1.0  0.76650  0.96710  0.55580  1.0000 0.0831067094
H   H103      1.0  0.03290  0.23350  0.05580  1.0000 0.0831067094
H   H104      1.0  0.23350  0.03290  0.44420  1.0000 0.0831067094
H   H105      1.0  0.04290  0.97890  0.90720  1.0000 0.0985167487
H   H106      1.0  0.97890  0.04290  0.59280  1.0000 0.0985167487
H   H107      1.0  0.95710  0.02110  0.09280  1.0000 0.0985167487
H   H108      1.0  0.02110  0.95710  0.40720  1.0000 0.0985167487
H   H109      1.0  0.16790  0.03550  0.95670  1.0000 0.1180322875
H   H110      1.0  0.03550  0.16790  0.54330  1.0000 0.1180322875
H   H111      1.0  0.83210  0.96450  0.04330  1.0000 0.1180322875
H   H112      1.0  0.96450  0.83210  0.45670  1.0000 0.1180322875
H   H113      1.0  0.08920  0.13540  0.00260  1.0000 0.0911614274
H   H114      1.0  0.13540  0.08920  0.49740  1.0000 0.0911614274
H   H115      1.0  0.91080  0.86460  0.99740  1.0000 0.0911614274
H   H116      1.0  0.86460  0.91080  0.50260  1.0000 0.0911614274
H   H117      1.0  0.95940  0.06160  0.95620  1.0000 0.0911614274
H   H118      1.0  0.06160  0.95940  0.54380  1.0000 0.0911614274
H   H119      1.0  0.04060  0.93840  0.04380  1.0000 0.0911614274
H   H120      1.0  0.93840  0.04060  0.45620  1.0000 0.0911614274
C   C1        1.0  0.71570  0.08830  0.88370  1.0000 -0.6172278098
C   C2        1.0  0.08830  0.71570  0.61630  1.0000 -0.6172278098
C   C3        1.0  0.28430  0.91170  0.11630  1.0000 -0.6172278098
C   C4        1.0  0.91170  0.28430  0.38370  1.0000 -0.6172278098
C   C5        1.0  0.62000  0.95100  0.90510  1.0000 0.5028402188
C   C6        1.0  0.95100  0.62000  0.59490  1.0000 0.5028402188
C   C7        1.0  0.38000  0.04900  0.09490  1.0000 0.5028402188
C   C8        1.0  0.04900  0.38000  0.40510  1.0000 0.5028402188
C   C9        1.0  0.53210  0.72690  0.89950  1.0000 -0.0600289109
C   C10       1.0  0.72690  0.53210  0.60050  1.0000 -0.0600289109
C   C11       1.0  0.46790  0.27310  0.10050  1.0000 -0.0600289109
C   C12       1.0  0.27310  0.46790  0.39950  1.0000 -0.0600289109
C   C13       1.0  0.57410  0.67710  0.96130  1.0000 -0.2303489468
C   C14       1.0  0.67710  0.57410  0.53870  1.0000 -0.2303489468
C   C15       1.0  0.42590  0.32290  0.03870  1.0000 -0.2303489468
C   C16       1.0  0.32290  0.42590  0.46130  1.0000 -0.2303489468
C   C17       1.0  0.47830  0.52630  0.97200  1.0000 -0.1901691522
C   C18       1.0  0.52630  0.47830  0.52800  1.0000 -0.1901691522
C   C19       1.0  0.52170  0.47370  0.02800  1.0000 -0.1901691522
C   C20       1.0  0.47370  0.52170  0.47200  1.0000 -0.1901691522
C   C21       1.0  0.71700  0.36560  0.96260  1.0000 -0.6102754793
C   C22       1.0  0.36560  0.71700  0.53740  1.0000 -0.6102754793
C   C23       1.0  0.28300  0.63440  0.03740  1.0000 -0.6102754793
C   C24       1.0  0.63440  0.28300  0.46260  1.0000 -0.6102754793
C   C25       1.0  0.59870  0.27130  0.92150  1.0000 0.5453433671
C   C26       1.0  0.27130  0.59870  0.57850  1.0000 0.5453433671
C   C27       1.0  0.40130  0.72870  0.07850  1.0000 0.5453433671
C   C28       1.0  0.72870  0.40130  0.42150  1.0000 0.5453433671
C   C29       1.0  0.43200  0.22860  0.83300  1.0000 -0.091656158
C   C30       1.0  0.22860  0.43200  0.66700  1.0000 -0.091656158
C   C31       1.0  0.56800  0.77140  0.16700  1.0000 -0.091656158
C   C32       1.0  0.77140  0.56800  0.33300  1.0000 -0.091656158
C   C33       1.0  0.38970  0.31130  0.81320  1.0000 -0.2499573513
C   C34       1.0  0.31130  0.38970  0.68680  1.0000 -0.2499573513
C   C35       1.0  0.61030  0.68870  0.18680  1.0000 -0.2499573513
C   C36       1.0  0.68870  0.61030  0.31320  1.0000 -0.2499573513
C   C37       1.0  0.30190  0.23870  0.75530  1.0000 -0.179951208
C   C38       1.0  0.23870  0.30190  0.74470  1.0000 -0.179951208
C   C39       1.0  0.69810  0.76130  0.24470  1.0000 -0.179951208
C   C40       1.0  0.76130  0.69810  0.25530  1.0000 -0.179951208
C   C41       1.0  0.29000  0.87920  0.84810  1.0000 -0.6015369466
C   C42       1.0  0.87920  0.29000  0.65190  1.0000 -0.6015369466
C   C43       1.0  0.71000  0.12080  0.15190  1.0000 -0.6015369466
C   C44       1.0  0.12080  0.71000  0.34810  1.0000 -0.6015369466
C   C45       1.0  0.23840  0.87620  0.90610  1.0000 0.5302952506
C   C46       1.0  0.87620  0.23840  0.59390  1.0000 0.5302952506
C   C47       1.0  0.76160  0.12380  0.09390  1.0000 0.5302952506
C   C48       1.0  0.12380  0.76160  0.40610  1.0000 0.5302952506
C   C49       1.0  0.05990  0.84130  0.94930  1.0000 -0.0600289109
C   C50       1.0  0.84130  0.05990  0.55070  1.0000 -0.0600289109
C   C51       1.0  0.94010  0.15870  0.05070  1.0000 -0.0600289109
C   C52       1.0  0.15870  0.94010  0.44930  1.0000 -0.0600289109
C   C53       1.0  0.07540  0.96120  0.94930  1.0000 -0.2303489468
C   C54       1.0  0.96120  0.07540  0.55070  1.0000 -0.2303489468
C   C55       1.0  0.92460  0.03880  0.05070  1.0000 -0.2303489468
C   C56       1.0  0.03880  0.92460  0.44930  1.0000 -0.2303489468
C   C57       1.0  0.00070  0.94570  0.00160  1.0000 -0.1901691522
C   C58       1.0  0.94570  0.00070  0.49840  1.0000 -0.1901691522
C   C59       1.0  0.99930  0.05430  0.99840  1.0000 -0.1901691522
C   C60       1.0  0.05430  0.99930  0.50160  1.0000 -0.1901691522
N   N1        1.0  0.62440  0.86640  0.88510  1.0000 -0.3078133113
N   N2        1.0  0.86640  0.62440  0.61490  1.0000 -0.3078133113
N   N3        1.0  0.37560  0.13360  0.11490  1.0000 -0.3078133113
N   N4        1.0  0.13360  0.37560  0.38510  1.0000 -0.3078133113
N   N5        1.0  0.54820  0.31720  0.87560  1.0000 -0.353806632
N   N6        1.0  0.31720  0.54820  0.62440  1.0000 -0.353806632
N   N7        1.0  0.45180  0.68280  0.12440  1.0000 -0.353806632
N   N8        1.0  0.68280  0.45180  0.37560  1.0000 -0.353806632
N   N9        1.0  0.12440  0.85120  0.89800  1.0000 -0.3334140278
N   N10       1.0  0.85120  0.12440  0.60200  1.0000 -0.3334140278
N   N11       1.0  0.87560  0.14880  0.10200  1.0000 -0.3334140278
N   N12       1.0  0.14880  0.87560  0.39800  1.0000 -0.3334140278
O   O1        1.0  0.53300  0.90980  0.94030  1.0000 -0.5507445655
O   O2        1.0  0.90980  0.53300  0.55970  1.0000 -0.5507445655
O   O3        1.0  0.46700  0.09020  0.05970  1.0000 -0.5507445655
O   O4        1.0  0.09020  0.46700  0.44030  1.0000 -0.5507445655
O   O5        1.0  0.54030  0.15270  0.92550  1.0000 -0.5293553195
O   O6        1.0  0.15270  0.54030  0.57450  1.0000 -0.5293553195
O   O7        1.0  0.45970  0.84730  0.07450  1.0000 -0.5293553195
O   O8        1.0  0.84730  0.45970  0.42550  1.0000 -0.5293553195
O   O9        1.0  0.29930  0.89250  0.96050  1.0000 -0.5507445655
O   O10       1.0  0.89250  0.29930  0.53950  1.0000 -0.5507445655
O   O11       1.0  0.70070  0.10750  0.03950  1.0000 -0.5507445655
O   O12       1.0  0.10750  0.70070  0.46050  1.0000 -0.5507445655
