# DDEC6 charges by PACMAN v1.1 (https://github.com/mtap-research/PACMAN-charge/)
data_2000[Eu][nia]3[ASR]1
_chemical_formula_sum              "Eu4 H24 C24 O30"
_cell_length_a       9.04618
_cell_length_b       9.04618
_cell_length_c       16.986
_cell_angle_alpha    90
_cell_angle_beta     90
_cell_angle_gamma    116.369

_symmetry_space_group_name_H-M    "P 1"
_symmetry_Int_Tables_number       1

loop_
  _symmetry_equiv_pos_as_xyz
  'x, y, z'

loop_
  _atom_site_type_symbol
  _atom_site_label
  _atom_site_symmetry_multiplicity
  _atom_site_fract_x
  _atom_site_fract_y
  _atom_site_fract_z
  _atom_site_occupancy
  _atom_site_charge
Eu  Eu1       1.0  0.00001  0.00001  0.00000  1.0000 1.9514379614
Eu  Eu2       1.0  0.00001  0.00001  0.50000  1.0000 1.9514379614
Eu  Eu3       1.0  0.34738  0.64436  0.75000  1.0000 2.1846298092
Eu  Eu4       1.0  0.64436  0.34738  0.25000  1.0000 2.1846298092
H   H1        1.0  0.05310  0.45390  0.92020  1.0000 0.1380522662
H   H2        1.0  0.45390  0.05310  0.07980  1.0000 0.1380522662
H   H3        1.0  0.45390  0.05310  0.42020  1.0000 0.1380522662
H   H4        1.0  0.05310  0.45390  0.57980  1.0000 0.1380522662
H   H5        1.0  0.19430  0.49430  0.98270  1.0000 0.1192919278
H   H6        1.0  0.49430  0.19430  0.01730  1.0000 0.1290627731
H   H7        1.0  0.49430  0.19430  0.48270  1.0000 0.1290627731
H   H8        1.0  0.19430  0.49430  0.51730  1.0000 0.1192919278
H   H9        1.0  0.02160  0.41240  0.09260  1.0000 0.1380522662
H   H10       1.0  0.41240  0.02160  0.90740  1.0000 0.1380522662
H   H11       1.0  0.41240  0.02160  0.59260  1.0000 0.1380522662
H   H12       1.0  0.02160  0.41240  0.40740  1.0000 0.1380522662
H   H13       1.0  0.86930  0.38270  0.03890  1.0000 0.1192919278
H   H14       1.0  0.38270  0.86930  0.96110  1.0000 0.1192919278
H   H15       1.0  0.38270  0.86930  0.53890  1.0000 0.1192919278
H   H16       1.0  0.86930  0.38270  0.46110  1.0000 0.1192919278
H   H17       1.0  0.60250  0.60550  0.91200  1.0000 0.1290627731
H   H18       1.0  0.60550  0.60250  0.08800  1.0000 0.1290627731
H   H19       1.0  0.60550  0.60250  0.41200  1.0000 0.1290627731
H   H20       1.0  0.60250  0.60550  0.58800  1.0000 0.1290627731
H   H21       1.0  0.50950  0.67590  0.96720  1.0000 0.1192919278
H   H22       1.0  0.67590  0.50950  0.03280  1.0000 0.1192919278
H   H23       1.0  0.67590  0.50950  0.46720  1.0000 0.1192919278
H   H24       1.0  0.50950  0.67590  0.53280  1.0000 0.1192919278
C   C1        1.0  0.19930  0.34110  0.89580  1.0000 0.6663822346
C   C2        1.0  0.34110  0.19930  0.10420  1.0000 0.6663822346
C   C3        1.0  0.34110  0.19930  0.39580  1.0000 0.6663822346
C   C4        1.0  0.19930  0.34110  0.60420  1.0000 0.6663822346
C   C5        1.0  0.11390  0.40770  0.95020  1.0000 -0.1989453099
C   C6        1.0  0.40770  0.11390  0.04980  1.0000 -0.1989453099
C   C7        1.0  0.40770  0.11390  0.45020  1.0000 -0.1989453099
C   C8        1.0  0.11390  0.40770  0.54980  1.0000 -0.1989453099
C   C9        1.0  0.93460  0.33140  0.06050  1.0000 -0.1831646449
C   C10       1.0  0.33140  0.93460  0.93950  1.0000 -0.1831646449
C   C11       1.0  0.33140  0.93460  0.56050  1.0000 -0.1831646449
C   C12       1.0  0.93460  0.33140  0.43950  1.0000 -0.1831646449
C   C13       1.0  0.82710  0.18550  0.11030  1.0000 0.6663822346
C   C14       1.0  0.18550  0.82710  0.88970  1.0000 0.6663822346
C   C15       1.0  0.18550  0.82710  0.61030  1.0000 0.6663822346
C   C16       1.0  0.82710  0.18550  0.38970  1.0000 0.6663822346
C   C17       1.0  0.65890  0.84630  0.88720  1.0000 0.6582591646
C   C18       1.0  0.84630  0.65890  0.11280  1.0000 0.6582591646
C   C19       1.0  0.84630  0.65890  0.38720  1.0000 0.6582591646
C   C20       1.0  0.65890  0.84630  0.61280  1.0000 0.6582591646
C   C21       1.0  0.61420  0.70140  0.94190  1.0000 -0.1897617913
C   C22       1.0  0.70140  0.61420  0.05810  1.0000 -0.1897617913
C   C23       1.0  0.70140  0.61420  0.44190  1.0000 -0.1897617913
C   C24       1.0  0.61420  0.70140  0.55810  1.0000 -0.1897617913
O   O1        1.0  0.16910  0.19330  0.90100  1.0000 -0.5855052358
O   O2        1.0  0.19330  0.16910  0.09900  1.0000 -0.5855052358
O   O3        1.0  0.19330  0.16910  0.40100  1.0000 -0.5855052358
O   O4        1.0  0.16910  0.19330  0.59900  1.0000 -0.5855052358
O   O5        1.0  0.29620  0.44160  0.84560  1.0000 -0.753906194
O   O6        1.0  0.44160  0.29620  0.15440  1.0000 -0.753906194
O   O7        1.0  0.44160  0.29620  0.34560  1.0000 -0.753906194
O   O8        1.0  0.29620  0.44160  0.65440  1.0000 -0.753906194
O   O9        1.0  0.00450  0.27750  0.99830  1.0000 -0.2331947621
O   O10       1.0  0.27750  0.00450  0.00170  1.0000 -0.2331947621
O   O11       1.0  0.27750  0.00450  0.49830  1.0000 -0.2331947621
O   O12       1.0  0.00450  0.27750  0.50170  1.0000 -0.2331947621
O   O13       1.0  0.75150  0.21310  0.16410  1.0000 -0.6711824423
O   O14       1.0  0.21310  0.75150  0.83590  1.0000 -0.6711824423
O   O15       1.0  0.21310  0.75150  0.66410  1.0000 -0.6711824423
O   O16       1.0  0.75150  0.21310  0.33590  1.0000 -0.6711824423
O   O17       1.0  0.82490  0.04810  0.09520  1.0000 -0.6220846063
O   O18       1.0  0.04810  0.82490  0.90480  1.0000 -0.6220846063
O   O19       1.0  0.04810  0.82490  0.59520  1.0000 -0.6220846063
O   O20       1.0  0.82490  0.04810  0.40480  1.0000 -0.6220846063
O   O21       1.0  0.79590  0.97290  0.90080  1.0000 -0.6323454863
O   O22       1.0  0.97290  0.79590  0.09920  1.0000 -0.6323454863
O   O23       1.0  0.97290  0.79590  0.40080  1.0000 -0.6323454863
O   O24       1.0  0.79590  0.97290  0.59920  1.0000 -0.6323454863
O   O25       1.0  0.56330  0.83410  0.83390  1.0000 -0.6402981765
O   O26       1.0  0.83410  0.56330  0.16610  1.0000 -0.6402981765
O   O27       1.0  0.83410  0.56330  0.33390  1.0000 -0.6402981765
O   O28       1.0  0.56330  0.83410  0.66610  1.0000 -0.6402981765
O   O29       1.0  0.73970  0.73970  0.00000  1.0000 -0.2331947621
O   O30       1.0  0.73970  0.73970  0.50000  1.0000 -0.2331947621
