# DDEC6 charges by PACMAN v1.1 (https://github.com/mtap-research/PACMAN-charge/)
data_2000[Mn][sxd]3[ASR]1
_chemical_formula_sum              "Mn2 H120 C60 N12 O12"
_cell_length_a       12.856
_cell_length_b       13.097
_cell_length_c       18.002
_cell_angle_alpha    93.609
_cell_angle_beta     99.887
_cell_angle_gamma    91.441

_symmetry_space_group_name_H-M    "P 1"
_symmetry_Int_Tables_number       1

loop_
  _symmetry_equiv_pos_as_xyz
  'x, y, z'

loop_
  _atom_site_type_symbol
  _atom_site_label
  _atom_site_symmetry_multiplicity
  _atom_site_fract_x
  _atom_site_fract_y
  _atom_site_fract_z
  _atom_site_occupancy
  _atom_site_charge
Mn  Mn1       1.0  0.25820  0.21620  0.25185  1.0000 1.0469546349
Mn  Mn2       1.0  0.74180  0.78380  0.74815  1.0000 1.0469546349
H   H1        1.0  0.97280  0.48210  0.25470  1.0000 0.2507906636
H   H2        1.0  0.02720  0.51790  0.74530  1.0000 0.2507906636
H   H3        1.0  0.23100  0.25140  0.97080  1.0000 0.2294284658
H   H4        1.0  0.76900  0.74860  0.02920  1.0000 0.2294284658
H   H5        1.0  0.35250  0.27040  0.54070  1.0000 0.2507906636
H   H6        1.0  0.64750  0.72960  0.45930  1.0000 0.2507906636
H   H7        1.0  0.03880  0.89300  0.25730  1.0000 0.2294284658
H   H8        1.0  0.96120  0.10700  0.74270  1.0000 0.2294284658
H   H9        1.0  0.50090  0.52870  0.24510  1.0000 0.2507906636
H   H10       1.0  0.49910  0.47130  0.75490  1.0000 0.2507906636
H   H11       1.0  0.54180  0.95660  0.22490  1.0000 0.2443968238
H   H12       1.0  0.45820  0.04340  0.77510  1.0000 0.2443968238
H   H13       1.0  0.91620  0.32360  0.21550  1.0000 0.1406263591
H   H14       1.0  0.08380  0.67640  0.78450  1.0000 0.1406263591
H   H15       1.0  0.99270  0.23340  0.23270  1.0000 0.1654275389
H   H16       1.0  0.00730  0.76660  0.76730  1.0000 0.1654275389
H   H17       1.0  0.98970  0.28950  0.15800  1.0000 0.1607860149
H   H18       1.0  0.01030  0.71050  0.84200  1.0000 0.1607860149
H   H19       1.0  0.17140  0.51980  0.33440  1.0000 0.0995523215
H   H20       1.0  0.82860  0.48020  0.66560  1.0000 0.0995523215
H   H21       1.0  0.07940  0.59710  0.32830  1.0000 0.0895206931
H   H22       1.0  0.92060  0.40290  0.67170  1.0000 0.0895206931
H   H23       1.0  0.19960  0.55390  0.21270  1.0000 0.1101501267
H   H24       1.0  0.80040  0.44610  0.78730  1.0000 0.1101501267
H   H25       1.0  0.10530  0.62870  0.20440  1.0000 0.0895206931
H   H26       1.0  0.89470  0.37130  0.79560  1.0000 0.0895206931
H   H27       1.0  0.19970  0.73670  0.30570  1.0000 0.0818318166
H   H28       1.0  0.80030  0.26330  0.69430  1.0000 0.0818318166
H   H29       1.0  0.29480  0.66310  0.31050  1.0000 0.0895206931
H   H30       1.0  0.70520  0.33690  0.68950  1.0000 0.0895206931
H   H31       1.0  0.39250  0.18130  0.08870  1.0000 0.1607860149
H   H32       1.0  0.60750  0.81870  0.91130  1.0000 0.1607860149
H   H33       1.0  0.32940  0.12720  0.01370  1.0000 0.1406263591
H   H34       1.0  0.67060  0.87280  0.98630  1.0000 0.1406263591
H   H35       1.0  0.32010  0.08410  0.09170  1.0000 0.1607860149
H   H36       1.0  0.67990  0.91590  0.90830  1.0000 0.1607860149
H   H37       1.0  0.06460  0.31180  0.95210  1.0000 0.0818318166
H   H38       1.0  0.93540  0.68820  0.04790  1.0000 0.0818318166
H   H39       1.0  0.05130  0.28350  0.03360  1.0000 0.0995523215
H   H40       1.0  0.94870  0.71650  0.96640  1.0000 0.0995523215
H   H41       1.0  0.16710  0.45170  0.00020  1.0000 0.0995523215
H   H42       1.0  0.83290  0.54830  0.99980  1.0000 0.0995523215
H   H43       1.0  0.16680  0.42110  0.08290  1.0000 0.1194768467
H   H44       1.0  0.83320  0.57890  0.91710  1.0000 0.1194768467
H   H45       1.0  0.97590  0.44450  0.05830  1.0000 0.0895206931
H   H46       1.0  0.02410  0.55550  0.94170  1.0000 0.0895206931
H   H47       1.0  0.04710  0.54490  0.06990  1.0000 0.0895206931
H   H48       1.0  0.95290  0.45510  0.93010  1.0000 0.0895206931
H   H49       1.0  0.17790  0.24930  0.49420  1.0000 0.1331546077
H   H50       1.0  0.82210  0.75070  0.50580  1.0000 0.1331546077
H   H51       1.0  0.13940  0.21760  0.40820  1.0000 0.1607860149
H   H52       1.0  0.86060  0.78240  0.59180  1.0000 0.1607860149
H   H53       1.0  0.17140  0.33220  0.43460  1.0000 0.152627054
H   H54       1.0  0.82860  0.66780  0.56540  1.0000 0.152627054
H   H55       1.0  0.52410  0.29860  0.52530  1.0000 0.0818318166
H   H56       1.0  0.47590  0.70140  0.47470  1.0000 0.0818318166
H   H57       1.0  0.49780  0.24000  0.44520  1.0000 0.0995523215
H   H58       1.0  0.50220  0.76000  0.55480  1.0000 0.0995523215
H   H59       1.0  0.49790  0.13990  0.57910  1.0000 0.0895206931
H   H60       1.0  0.50210  0.86010  0.42090  1.0000 0.0895206931
H   H61       1.0  0.59770  0.14460  0.54010  1.0000 0.0995523215
H   H62       1.0  0.40230  0.85540  0.45990  1.0000 0.0995523215
H   H63       1.0  0.50420  0.05070  0.43330  1.0000 0.0995523215
H   H64       1.0  0.49580  0.94930  0.56670  1.0000 0.0995523215
H   H65       1.0  0.40400  0.04630  0.47220  1.0000 0.0995523215
H   H66       1.0  0.59600  0.95370  0.52780  1.0000 0.0995523215
H   H67       1.0  0.15880  0.92040  0.36050  1.0000 0.1331546077
H   H68       1.0  0.84120  0.07960  0.63950  1.0000 0.1331546077
H   H69       1.0  0.14800  0.03170  0.39500  1.0000 0.1607860149
H   H70       1.0  0.85200  0.96830  0.60500  1.0000 0.1607860149
H   H71       1.0  0.24680  0.00460  0.35820  1.0000 0.1607860149
H   H72       1.0  0.75320  0.99540  0.64180  1.0000 0.1607860149
H   H73       1.0  0.96520  0.04970  0.17320  1.0000 0.0995523215
H   H74       1.0  0.03480  0.95030  0.82680  1.0000 0.0995523215
H   H75       1.0  0.92080  0.93640  0.16030  1.0000 0.0818318166
H   H76       1.0  0.07920  0.06360  0.83970  1.0000 0.0818318166
H   H77       1.0  0.05090  0.89070  0.09460  1.0000 0.0895206931
H   H78       1.0  0.94910  0.10930  0.90540  1.0000 0.0895206931
H   H79       1.0  0.10860  0.99860  0.11460  1.0000 0.1194768467
H   H80       1.0  0.89140  0.00140  0.88540  1.0000 0.1194768467
H   H81       1.0  0.90650  0.96600  0.02130  1.0000 0.0895206931
H   H82       1.0  0.09350  0.03400  0.97870  1.0000 0.0895206931
H   H83       1.0  0.95920  0.07530  0.04390  1.0000 0.0995523215
H   H84       1.0  0.04080  0.92470  0.95610  1.0000 0.0995523215
H   H85       1.0  0.42100  0.51790  0.34340  1.0000 0.1331546077
H   H86       1.0  0.57900  0.48210  0.65660  1.0000 0.1331546077
H   H87       1.0  0.47290  0.41730  0.37180  1.0000 0.1607860149
H   H88       1.0  0.52710  0.58270  0.62820  1.0000 0.1607860149
H   H89       1.0  0.34960  0.42200  0.35210  1.0000 0.1607860149
H   H90       1.0  0.65040  0.57800  0.64790  1.0000 0.1607860149
H   H91       1.0  0.56630  0.43220  0.14540  1.0000 0.0895206931
H   H92       1.0  0.43370  0.56780  0.85460  1.0000 0.0895206931
H   H93       1.0  0.45380  0.37780  0.12570  1.0000 0.0995523215
H   H94       1.0  0.54620  0.62220  0.87430  1.0000 0.0995523215
H   H95       1.0  0.50370  0.58120  0.10860  1.0000 0.0995523215
H   H96       1.0  0.49630  0.41880  0.89140  1.0000 0.0995523215
H   H97       1.0  0.38660  0.54250  0.10470  1.0000 0.1101501267
H   H98       1.0  0.61340  0.45750  0.89530  1.0000 0.1101501267
H   H99       1.0  0.42440  0.42050  0.99980  1.0000 0.0895206931
H   H100      1.0  0.57560  0.57950  0.00020  1.0000 0.0895206931
H   H101      1.0  0.39630  0.53330  0.98100  1.0000 0.0895206931
H   H102      1.0  0.60370  0.46670  0.01900  1.0000 0.0895206931
H   H103      1.0  0.60080  0.10110  0.28300  1.0000 0.1331546077
H   H104      1.0  0.39920  0.89890  0.71700  1.0000 0.1331546077
H   H105      1.0  0.52360  0.17210  0.31890  1.0000 0.1607860149
H   H106      1.0  0.47640  0.82790  0.68110  1.0000 0.1607860149
H   H107      1.0  0.54120  0.18540  0.23600  1.0000 0.1607860149
H   H108      1.0  0.45880  0.81460  0.76400  1.0000 0.1607860149
H   H109      1.0  0.42780  0.84190  0.15650  1.0000 0.0818318166
H   H110      1.0  0.57220  0.15810  0.84350  1.0000 0.0818318166
H   H111      1.0  0.33600  0.91780  0.15950  1.0000 0.0995523215
H   H112      1.0  0.66400  0.08220  0.84050  1.0000 0.0995523215
H   H113      1.0  0.32870  0.87630  0.28280  1.0000 0.1101501267
H   H114      1.0  0.67130  0.12370  0.71720  1.0000 0.1101501267
H   H115      1.0  0.41960  0.79940  0.27900  1.0000 0.0995523215
H   H116      1.0  0.58040  0.20060  0.72100  1.0000 0.0995523215
H   H117      1.0  0.31130  0.69830  0.18540  1.0000 0.0818318166
H   H118      1.0  0.68870  0.30170  0.81460  1.0000 0.0818318166
H   H119      1.0  0.22110  0.77660  0.18500  1.0000 0.0895206931
H   H120      1.0  0.77890  0.22340  0.81500  1.0000 0.0895206931
C   C1        1.0  0.06880  0.37280  0.25030  1.0000 0.5247052343
C   C2        1.0  0.93120  0.62720  0.74970  1.0000 0.52751759
C   C3        1.0  0.23960  0.20980  0.07200  1.0000 0.4812463851
C   C4        1.0  0.76040  0.79020  0.92800  1.0000 0.4812463851
C   C5        1.0  0.29790  0.24300  0.43460  1.0000 0.52751759
C   C6        1.0  0.70210  0.75700  0.56540  1.0000 0.52751759
C   C7        1.0  0.11600  0.02000  0.28170  1.0000 0.52751759
C   C8        1.0  0.88400  0.98000  0.71830  1.0000 0.5247052343
C   C9        1.0  0.41830  0.40800  0.26000  1.0000 0.5247052343
C   C10       1.0  0.58170  0.59200  0.74000  1.0000 0.5247052343
C   C11       1.0  0.44590  0.06110  0.24370  1.0000 0.501208517
C   C12       1.0  0.55410  0.93890  0.75630  1.0000 0.501208517
C   C13       1.0  0.98430  0.29810  0.21060  1.0000 -0.5999102264
C   C14       1.0  0.01570  0.70190  0.78940  1.0000 -0.5999102264
C   C15       1.0  0.11500  0.54800  0.29970  1.0000 -0.0437985889
C   C16       1.0  0.88500  0.45200  0.70030  1.0000 -0.0437985889
C   C17       1.0  0.16180  0.60230  0.24010  1.0000 -0.2286034698
C   C18       1.0  0.83820  0.39770  0.75990  1.0000 -0.2286034698
C   C19       1.0  0.23670  0.68990  0.27640  1.0000 -0.1887513815
C   C20       1.0  0.76330  0.31010  0.72360  1.0000 -0.1887513815
C   C21       1.0  0.32780  0.14510  0.06600  1.0000 -0.6077243059
C   C22       1.0  0.67220  0.85490  0.93400  1.0000 -0.6077243059
C   C23       1.0  0.09930  0.31420  0.00450  1.0000 -0.0807628154
C   C24       1.0  0.90070  0.68580  0.99550  1.0000 -0.0807628154
C   C25       1.0  0.12470  0.42010  0.03270  1.0000 -0.2286034698
C   C26       1.0  0.87530  0.57990  0.96730  1.0000 -0.2286034698
C   C27       1.0  0.02620  0.48420  0.03630  1.0000 -0.1815365597
C   C28       1.0  0.97380  0.51580  0.96370  1.0000 -0.1815365597
C   C29       1.0  0.18670  0.26220  0.44370  1.0000 -0.5832773118
C   C30       1.0  0.81330  0.73780  0.55630  1.0000 -0.5832773118
C   C31       1.0  0.48420  0.24090  0.49660  1.0000 -0.0595650524
C   C32       1.0  0.51580  0.75910  0.50340  1.0000 -0.0595650524
C   C33       1.0  0.52110  0.14320  0.53080  1.0000 -0.2211133211
C   C34       1.0  0.47890  0.85680  0.46920  1.0000 -0.2211133211
C   C35       1.0  0.48060  0.04830  0.48160  1.0000 -0.1815365597
C   C36       1.0  0.51940  0.95170  0.51840  1.0000 -0.1815365597
C   C37       1.0  0.17230  0.99170  0.35520  1.0000 -0.6077243059
C   C38       1.0  0.82770  0.00830  0.64480  1.0000 -0.6077243059
C   C39       1.0  0.98520  0.97890  0.16940  1.0000 -0.0595650524
C   C40       1.0  0.01480  0.02110  0.83060  1.0000 -0.0595650524
C   C41       1.0  0.04000  0.96310  0.10380  1.0000 -0.2286034698
C   C42       1.0  0.96000  0.03690  0.89620  1.0000 -0.2286034698
C   C43       1.0  0.97370  0.00410  0.03300  1.0000 -0.1815365597
C   C44       1.0  0.02630  0.99590  0.96700  1.0000 -0.1815365597
C   C45       1.0  0.41510  0.44450  0.33870  1.0000 -0.6262720196
C   C46       1.0  0.58490  0.55550  0.66130  1.0000 -0.6262720196
C   C47       1.0  0.49160  0.44160  0.14480  1.0000 -0.0734494894
C   C48       1.0  0.50840  0.55840  0.85520  1.0000 -0.0734494894
C   C49       1.0  0.45550  0.52220  0.09540  1.0000 -0.2286034698
C   C50       1.0  0.54450  0.47780  0.90460  1.0000 -0.2286034698
C   C51       1.0  0.44750  0.49180  0.01030  1.0000 -0.1815365597
C   C52       1.0  0.55250  0.50820  0.98970  1.0000 -0.1815365597
C   C53       1.0  0.53610  0.13680  0.27300  1.0000 -0.5891281931
C   C54       1.0  0.46390  0.86320  0.72700  1.0000 -0.5891281931
C   C55       1.0  0.39630  0.88840  0.18970  1.0000 -0.0595650524
C   C56       1.0  0.60370  0.11160  0.81030  1.0000 -0.0595650524
C   C57       1.0  0.35930  0.82960  0.24930  1.0000 -0.2358663945
C   C58       1.0  0.64070  0.17040  0.75070  1.0000 -0.2358663945
C   C59       1.0  0.27940  0.74680  0.21690  1.0000 -0.1887513815
C   C60       1.0  0.72060  0.25320  0.78310  1.0000 -0.1887513815
N   N1        1.0  0.04150  0.46750  0.26590  1.0000 -0.3308094312
N   N2        1.0  0.95850  0.53250  0.73410  1.0000 -0.3308094312
N   N3        1.0  0.19770  0.25580  0.01090  1.0000 -0.3308094312
N   N4        1.0  0.80230  0.74420  0.98910  1.0000 -0.3308094312
N   N5        1.0  0.37290  0.25380  0.49620  1.0000 -0.3416514664
N   N6        1.0  0.62710  0.74620  0.50380  1.0000 -0.3416514664
N   N7        1.0  0.04760  0.95550  0.24050  1.0000 -0.3163298934
N   N8        1.0  0.95240  0.04450  0.75950  1.0000 -0.3163298934
N   N9        1.0  0.47360  0.46860  0.22200  1.0000 -0.3518210023
N   N10       1.0  0.52640  0.53140  0.77800  1.0000 -0.3518210023
N   N11       1.0  0.47270  0.96940  0.22090  1.0000 -0.3308094312
N   N12       1.0  0.52730  0.03060  0.77910  1.0000 -0.3308094312
O   O1        1.0  0.16160  0.34670  0.27160  1.0000 -0.5563299476
O   O2        1.0  0.83840  0.65330  0.72840  1.0000 -0.5563299476
O   O3        1.0  0.20120  0.21720  0.13120  1.0000 -0.552888897
O   O4        1.0  0.79880  0.78280  0.86880  1.0000 -0.552888897
O   O5        1.0  0.32150  0.22060  0.37230  1.0000 -0.5415086119
O   O6        1.0  0.67850  0.77940  0.62770  1.0000 -0.5415086119
O   O7        1.0  0.13250  0.10730  0.25970  1.0000 -0.5563299476
O   O8        1.0  0.86750  0.89270  0.74030  1.0000 -0.5563299476
O   O9        1.0  0.37870  0.32540  0.23020  1.0000 -0.5415086119
O   O10       1.0  0.62130  0.67460  0.76980  1.0000 -0.5415086119
O   O11       1.0  0.35340  0.08330  0.23990  1.0000 -0.5415086119
O   O12       1.0  0.64660  0.91670  0.76010  1.0000 -0.5415086119
