# DDEC6 charges by PACMAN v1.1 (https://github.com/mtap-research/PACMAN-charge/)
data_2000[Cd][pcu]3[ASR]1
_chemical_formula_sum              "Cd8 H96 C144 N76 O12"
_cell_length_a       19.46
_cell_length_b       24.2
_cell_length_c       13.81
_cell_angle_alpha    90
_cell_angle_beta     121.17
_cell_angle_gamma    90

_symmetry_space_group_name_H-M    "P 1"
_symmetry_Int_Tables_number       1

loop_
  _symmetry_equiv_pos_as_xyz
  'x, y, z'

loop_
  _atom_site_type_symbol
  _atom_site_label
  _atom_site_symmetry_multiplicity
  _atom_site_fract_x
  _atom_site_fract_y
  _atom_site_fract_z
  _atom_site_occupancy
  _atom_site_charge
Cd  Cd1       1.0  0.83782  0.89019  0.56551  1.0000 0.7105056216
Cd  Cd2       1.0  0.16218  0.10981  0.43449  1.0000 0.7105056216
Cd  Cd3       1.0  0.16218  0.89019  0.93449  1.0000 0.7105056216
Cd  Cd4       1.0  0.83782  0.10981  0.06551  1.0000 0.7105056216
Cd  Cd5       1.0  0.33782  0.39019  0.56551  1.0000 0.7105056216
Cd  Cd6       1.0  0.66218  0.60981  0.43449  1.0000 0.7105056216
Cd  Cd7       1.0  0.66218  0.39019  0.93449  1.0000 0.7105056216
Cd  Cd8       1.0  0.33782  0.60981  0.06551  1.0000 0.7105056216
H   H1        1.0  0.87666  0.90672  0.80973  1.0000 0.0806912962
H   H2        1.0  0.12334  0.09328  0.19027  1.0000 0.0861094568
H   H3        1.0  0.12334  0.90672  0.69027  1.0000 0.0861094568
H   H4        1.0  0.87666  0.09328  0.30973  1.0000 0.0806912962
H   H5        1.0  0.37666  0.40672  0.80973  1.0000 0.0806912962
H   H6        1.0  0.62334  0.59328  0.19027  1.0000 0.0806912962
H   H7        1.0  0.62334  0.40672  0.69027  1.0000 0.0806912962
H   H8        1.0  0.37666  0.59328  0.30973  1.0000 0.0806912962
H   H9        1.0  0.85311  0.86540  0.95606  1.0000 0.1120954658
H   H10       1.0  0.14689  0.13460  0.04394  1.0000 0.1120954658
H   H11       1.0  0.14689  0.86540  0.54394  1.0000 0.1120954658
H   H12       1.0  0.85311  0.13460  0.45606  1.0000 0.1120954658
H   H13       1.0  0.35311  0.36540  0.95606  1.0000 0.1120954658
H   H14       1.0  0.64689  0.63460  0.04394  1.0000 0.1120954658
H   H15       1.0  0.64689  0.36540  0.54394  1.0000 0.1120954658
H   H16       1.0  0.35311  0.63460  0.45606  1.0000 0.1120954658
H   H17       1.0  0.70148  0.74202  0.70702  1.0000 0.1120954658
H   H18       1.0  0.29852  0.25798  0.29298  1.0000 0.1120954658
H   H19       1.0  0.29852  0.74202  0.79298  1.0000 0.1120954658
H   H20       1.0  0.70148  0.25798  0.20702  1.0000 0.1120954658
H   H21       1.0  0.20148  0.24202  0.70702  1.0000 0.1120954658
H   H22       1.0  0.79852  0.75798  0.29298  1.0000 0.1120954658
H   H23       1.0  0.79852  0.24202  0.79298  1.0000 0.1120954658
H   H24       1.0  0.20148  0.75798  0.20702  1.0000 0.1120954658
H   H25       1.0  0.73062  0.78828  0.56977  1.0000 0.0620379119
H   H26       1.0  0.26938  0.21172  0.43023  1.0000 0.0620379119
H   H27       1.0  0.26938  0.78828  0.93023  1.0000 0.0620379119
H   H28       1.0  0.73062  0.21172  0.06977  1.0000 0.0620379119
H   H29       1.0  0.23062  0.28828  0.56977  1.0000 0.0620379119
H   H30       1.0  0.76938  0.71172  0.43023  1.0000 0.0620379119
H   H31       1.0  0.76938  0.28828  0.93023  1.0000 0.0620379119
H   H32       1.0  0.23062  0.71172  0.06977  1.0000 0.0620379119
H   H33       1.0  0.92402  0.86146  0.41550  1.0000 0.0861094568
H   H34       1.0  0.07598  0.13854  0.58450  1.0000 0.0861094568
H   H35       1.0  0.07598  0.86146  0.08450  1.0000 0.0861094568
H   H36       1.0  0.92402  0.13854  0.91550  1.0000 0.0861094568
H   H37       1.0  0.42402  0.36146  0.41550  1.0000 0.0861094568
H   H38       1.0  0.57598  0.63854  0.58450  1.0000 0.0861094568
H   H39       1.0  0.57598  0.36146  0.08450  1.0000 0.0861094568
H   H40       1.0  0.42402  0.63854  0.91550  1.0000 0.0861094568
H   H41       1.0  0.01165  0.78524  0.42013  1.0000 0.1120954658
H   H42       1.0  0.98835  0.21476  0.57987  1.0000 0.1120954658
H   H43       1.0  0.98835  0.78524  0.07987  1.0000 0.1120954658
H   H44       1.0  0.01165  0.21476  0.92013  1.0000 0.1120954658
H   H45       1.0  0.51165  0.28524  0.42013  1.0000 0.1120954658
H   H46       1.0  0.48835  0.71476  0.57987  1.0000 0.1120954658
H   H47       1.0  0.48835  0.28524  0.07987  1.0000 0.1120954658
H   H48       1.0  0.51165  0.71476  0.92013  1.0000 0.1120954658
H   H49       1.0  0.94323  0.69074  0.62550  1.0000 0.1120954658
H   H50       1.0  0.05677  0.30926  0.37450  1.0000 0.1120954658
H   H51       1.0  0.05677  0.69074  0.87450  1.0000 0.1120954658
H   H52       1.0  0.94323  0.30926  0.12550  1.0000 0.1120954658
H   H53       1.0  0.44323  0.19074  0.62550  1.0000 0.1120954658
H   H54       1.0  0.55677  0.80926  0.37450  1.0000 0.1120954658
H   H55       1.0  0.55677  0.19074  0.87450  1.0000 0.1120954658
H   H56       1.0  0.44323  0.80926  0.12550  1.0000 0.1120954658
H   H57       1.0  0.86805  0.77296  0.62751  1.0000 0.0694824594
H   H58       1.0  0.13195  0.22704  0.37249  1.0000 0.0694824594
H   H59       1.0  0.13195  0.77296  0.87249  1.0000 0.0694824594
H   H60       1.0  0.86805  0.22704  0.12751  1.0000 0.0694824594
H   H61       1.0  0.36805  0.27296  0.62751  1.0000 0.0694824594
H   H62       1.0  0.63195  0.72704  0.37249  1.0000 0.0694824594
H   H63       1.0  0.63195  0.27296  0.87249  1.0000 0.0694824594
H   H64       1.0  0.36805  0.72704  0.12751  1.0000 0.0694824594
H   H65       1.0  0.33598  0.51964  0.53826  1.0000 0.0861094568
H   H66       1.0  0.66402  0.48036  0.46174  1.0000 0.0861094568
H   H67       1.0  0.66402  0.51964  0.96174  1.0000 0.0861094568
H   H68       1.0  0.33598  0.48036  0.03826  1.0000 0.0861094568
H   H69       1.0  0.83598  0.01964  0.53826  1.0000 0.0861094568
H   H70       1.0  0.16402  0.98036  0.46174  1.0000 0.0861094568
H   H71       1.0  0.16402  0.01964  0.96174  1.0000 0.0861094568
H   H72       1.0  0.83598  0.98036  0.03826  1.0000 0.0861094568
H   H73       1.0  0.25720  0.60062  0.53904  1.0000 0.1040076732
H   H74       1.0  0.74280  0.39938  0.46096  1.0000 0.1040076732
H   H75       1.0  0.74280  0.60062  0.96096  1.0000 0.1040076732
H   H76       1.0  0.25720  0.39938  0.03904  1.0000 0.1040076732
H   H77       1.0  0.75720  0.10062  0.53904  1.0000 0.1040076732
H   H78       1.0  0.24280  0.89938  0.46096  1.0000 0.1040076732
H   H79       1.0  0.24280  0.10062  0.96096  1.0000 0.1040076732
H   H80       1.0  0.75720  0.89938  0.03904  1.0000 0.1040076732
H   H81       1.0  0.07971  0.48454  0.52218  1.0000 0.1120954658
H   H82       1.0  0.92029  0.51546  0.47782  1.0000 0.1120954658
H   H83       1.0  0.92029  0.48454  0.97782  1.0000 0.1120954658
H   H84       1.0  0.07971  0.51546  0.02218  1.0000 0.1120954658
H   H85       1.0  0.57971  0.98454  0.52218  1.0000 0.1120954658
H   H86       1.0  0.42029  0.01546  0.47782  1.0000 0.1120954658
H   H87       1.0  0.42029  0.98454  0.97782  1.0000 0.1120954658
H   H88       1.0  0.57971  0.01546  0.02218  1.0000 0.1120954658
H   H89       1.0  0.16248  0.40873  0.51748  1.0000 0.0694824594
H   H90       1.0  0.83752  0.59127  0.48252  1.0000 0.0694824594
H   H91       1.0  0.83752  0.40873  0.98252  1.0000 0.0694824594
H   H92       1.0  0.16248  0.59127  0.01748  1.0000 0.0694824594
H   H93       1.0  0.66248  0.90873  0.51748  1.0000 0.0694824594
H   H94       1.0  0.33752  0.09127  0.48252  1.0000 0.0694824594
H   H95       1.0  0.33752  0.90873  0.98252  1.0000 0.0694824594
H   H96       1.0  0.66248  0.09127  0.01748  1.0000 0.0694824594
C   C1        1.0  0.76195  0.77371  0.92581  1.0000 0.219456528
C   C2        1.0  0.23805  0.22629  0.07419  1.0000 0.219456528
C   C3        1.0  0.23805  0.77371  0.57419  1.0000 0.219456528
C   C4        1.0  0.76195  0.22629  0.42581  1.0000 0.219456528
C   C5        1.0  0.26195  0.27371  0.92581  1.0000 0.219456528
C   C6        1.0  0.73805  0.72629  0.07419  1.0000 0.219456528
C   C7        1.0  0.73805  0.27371  0.57419  1.0000 0.219456528
C   C8        1.0  0.26195  0.72629  0.42581  1.0000 0.219456528
C   C9        1.0  0.83852  0.87002  0.79085  1.0000 0.0861094568
C   C10       1.0  0.16148  0.12998  0.20915  1.0000 0.0861094568
C   C11       1.0  0.16148  0.87002  0.70915  1.0000 0.0861094568
C   C12       1.0  0.83852  0.12998  0.29085  1.0000 0.0861094568
C   C13       1.0  0.33852  0.37002  0.79085  1.0000 0.0861094568
C   C14       1.0  0.66148  0.62998  0.20915  1.0000 0.0861094568
C   C15       1.0  0.66148  0.37002  0.70915  1.0000 0.0861094568
C   C16       1.0  0.33852  0.62998  0.29085  1.0000 0.0861094568
C   C17       1.0  0.82522  0.84719  0.87138  1.0000 -0.158462331
C   C18       1.0  0.17478  0.15281  0.12862  1.0000 -0.158462331
C   C19       1.0  0.17478  0.84719  0.62862  1.0000 -0.158462331
C   C20       1.0  0.82522  0.15281  0.37138  1.0000 -0.158462331
C   C21       1.0  0.32522  0.34719  0.87138  1.0000 -0.158462331
C   C22       1.0  0.67478  0.65281  0.12862  1.0000 -0.158462331
C   C23       1.0  0.67478  0.34719  0.62862  1.0000 -0.158462331
C   C24       1.0  0.32522  0.65281  0.37138  1.0000 -0.158462331
C   C25       1.0  0.77584  0.79964  0.84383  1.0000 0.0423171974
C   C26       1.0  0.22416  0.20036  0.15617  1.0000 0.0423171974
C   C27       1.0  0.22416  0.79964  0.65617  1.0000 0.0423171974
C   C28       1.0  0.77584  0.20036  0.34383  1.0000 0.0423171974
C   C29       1.0  0.27584  0.29964  0.84383  1.0000 0.0423171974
C   C30       1.0  0.72416  0.70036  0.15617  1.0000 0.0423171974
C   C31       1.0  0.72416  0.29964  0.65617  1.0000 0.0423171974
C   C32       1.0  0.27584  0.70036  0.34383  1.0000 0.0423171974
C   C33       1.0  0.74088  0.77832  0.73238  1.0000 -0.158462331
C   C34       1.0  0.25912  0.22168  0.26762  1.0000 -0.158462331
C   C35       1.0  0.25912  0.77832  0.76762  1.0000 -0.158462331
C   C36       1.0  0.74088  0.22168  0.23238  1.0000 -0.158462331
C   C37       1.0  0.24088  0.27832  0.73238  1.0000 -0.158462331
C   C38       1.0  0.75912  0.72168  0.26762  1.0000 -0.158462331
C   C39       1.0  0.75912  0.27832  0.76762  1.0000 -0.158462331
C   C40       1.0  0.24088  0.72168  0.23238  1.0000 -0.158462331
C   C41       1.0  0.75721  0.80372  0.65684  1.0000 0.0694824594
C   C42       1.0  0.24279  0.19628  0.34316  1.0000 0.0694824594
C   C43       1.0  0.24279  0.80372  0.84316  1.0000 0.0694824594
C   C44       1.0  0.75721  0.19628  0.15684  1.0000 0.0694824594
C   C45       1.0  0.25721  0.30372  0.65684  1.0000 0.0694824594
C   C46       1.0  0.74279  0.69628  0.34316  1.0000 0.0694824594
C   C47       1.0  0.74279  0.30372  0.84316  1.0000 0.0694824594
C   C48       1.0  0.25721  0.69628  0.15684  1.0000 0.0694824594
C   C49       1.0  0.02793  0.68264  0.51869  1.0000 0.2146103519
C   C50       1.0  0.97207  0.31736  0.48131  1.0000 0.2146103519
C   C51       1.0  0.97207  0.68264  0.98131  1.0000 0.2146103519
C   C52       1.0  0.02793  0.31736  0.01869  1.0000 0.2146103519
C   C53       1.0  0.52793  0.18264  0.51869  1.0000 0.2146103519
C   C54       1.0  0.47207  0.81736  0.48131  1.0000 0.2146103519
C   C55       1.0  0.47207  0.18264  0.98131  1.0000 0.2146103519
C   C56       1.0  0.52793  0.81736  0.01869  1.0000 0.2146103519
C   C57       1.0  0.11138  0.59656  0.52317  1.0000 0.219456528
C   C58       1.0  0.88862  0.40344  0.47683  1.0000 0.219456528
C   C59       1.0  0.88862  0.59656  0.97683  1.0000 0.219456528
C   C60       1.0  0.11138  0.40344  0.02317  1.0000 0.219456528
C   C61       1.0  0.61138  0.09656  0.52317  1.0000 0.219456528
C   C62       1.0  0.38862  0.90344  0.47683  1.0000 0.219456528
C   C63       1.0  0.38862  0.09656  0.97683  1.0000 0.219456528
C   C64       1.0  0.61138  0.90344  0.02317  1.0000 0.219456528
C   C65       1.0  0.93142  0.82350  0.46354  1.0000 0.0806912962
C   C66       1.0  0.06858  0.17650  0.53646  1.0000 0.0806912962
C   C67       1.0  0.06858  0.82350  0.03646  1.0000 0.0806912962
C   C68       1.0  0.93142  0.17650  0.96354  1.0000 0.0806912962
C   C69       1.0  0.43142  0.32350  0.46354  1.0000 0.0806912962
C   C70       1.0  0.56858  0.67650  0.53646  1.0000 0.0806912962
C   C71       1.0  0.56858  0.32350  0.03646  1.0000 0.0806912962
C   C72       1.0  0.43142  0.67650  0.96354  1.0000 0.0806912962
C   C73       1.0  0.97923  0.78068  0.46502  1.0000 -0.158462331
C   C74       1.0  0.02077  0.21932  0.53498  1.0000 -0.158462331
C   C75       1.0  0.02077  0.78068  0.03498  1.0000 -0.158462331
C   C76       1.0  0.97923  0.21932  0.96502  1.0000 -0.158462331
C   C77       1.0  0.47923  0.28068  0.46502  1.0000 -0.158462331
C   C78       1.0  0.52077  0.71932  0.53498  1.0000 -0.158462331
C   C79       1.0  0.52077  0.28068  0.03498  1.0000 -0.158462331
C   C80       1.0  0.47923  0.71932  0.96502  1.0000 -0.158462331
C   C81       1.0  0.98413  0.72999  0.52122  1.0000 0.0423171974
C   C82       1.0  0.01587  0.27001  0.47878  1.0000 0.0423171974
C   C83       1.0  0.01587  0.72999  0.97878  1.0000 0.0423171974
C   C84       1.0  0.98413  0.27001  0.02122  1.0000 0.0423171974
C   C85       1.0  0.48413  0.22999  0.52122  1.0000 0.0423171974
C   C86       1.0  0.51587  0.77001  0.47878  1.0000 0.0423171974
C   C87       1.0  0.51587  0.22999  0.97878  1.0000 0.0423171974
C   C88       1.0  0.48413  0.77001  0.02122  1.0000 0.0423171974
C   C89       1.0  0.94117  0.72799  0.57901  1.0000 -0.1710246962
C   C90       1.0  0.05883  0.27201  0.42099  1.0000 -0.1710246962
C   C91       1.0  0.05883  0.72799  0.92099  1.0000 -0.1710246962
C   C92       1.0  0.94117  0.27201  0.07901  1.0000 -0.1710246962
C   C93       1.0  0.44117  0.22799  0.57901  1.0000 -0.1710246962
C   C94       1.0  0.55883  0.77201  0.42099  1.0000 -0.1710246962
C   C95       1.0  0.55883  0.22799  0.92099  1.0000 -0.1710246962
C   C96       1.0  0.44117  0.77201  0.07901  1.0000 -0.1710246962
C   C97       1.0  0.89773  0.77326  0.57831  1.0000 0.0694824594
C   C98       1.0  0.10227  0.22674  0.42169  1.0000 0.0694824594
C   C99       1.0  0.10227  0.77326  0.92169  1.0000 0.0694824594
C   C100      1.0  0.89773  0.22674  0.07831  1.0000 0.0694824594
C   C101      1.0  0.39773  0.27326  0.57831  1.0000 0.0694824594
C   C102      1.0  0.60227  0.72674  0.42169  1.0000 0.0694824594
C   C103      1.0  0.60227  0.27326  0.92169  1.0000 0.0694824594
C   C104      1.0  0.39773  0.72674  0.07831  1.0000 0.0694824594
C   C105      1.0  0.27764  0.51380  0.53129  1.0000 0.0861094568
C   C106      1.0  0.72236  0.48620  0.46871  1.0000 0.0861094568
C   C107      1.0  0.72236  0.51380  0.96871  1.0000 0.0861094568
C   C108      1.0  0.27764  0.48620  0.03129  1.0000 0.0861094568
C   C109      1.0  0.77764  0.01380  0.53129  1.0000 0.0861094568
C   C110      1.0  0.22236  0.98620  0.46871  1.0000 0.0861094568
C   C111      1.0  0.22236  0.01380  0.96871  1.0000 0.0861094568
C   C112      1.0  0.77764  0.98620  0.03129  1.0000 0.0861094568
C   C113      1.0  0.23407  0.55865  0.53306  1.0000 -0.158462331
C   C114      1.0  0.76593  0.44135  0.46694  1.0000 -0.158462331
C   C115      1.0  0.76593  0.55865  0.96694  1.0000 -0.158462331
C   C116      1.0  0.23407  0.44135  0.03306  1.0000 -0.158462331
C   C117      1.0  0.73407  0.05865  0.53306  1.0000 -0.158462331
C   C118      1.0  0.26593  0.94135  0.46694  1.0000 -0.158462331
C   C119      1.0  0.26593  0.05865  0.96694  1.0000 -0.158462331
C   C120      1.0  0.73407  0.94135  0.03306  1.0000 -0.158462331
C   C121      1.0  0.16008  0.55013  0.52839  1.0000 0.0480876981
C   C122      1.0  0.83992  0.44987  0.47161  1.0000 0.0480876981
C   C123      1.0  0.83992  0.55013  0.97161  1.0000 0.0480876981
C   C124      1.0  0.16008  0.44987  0.02839  1.0000 0.0480876981
C   C125      1.0  0.66008  0.05013  0.52839  1.0000 0.0480876981
C   C126      1.0  0.33992  0.94987  0.47161  1.0000 0.0480876981
C   C127      1.0  0.33992  0.05013  0.97161  1.0000 0.0480876981
C   C128      1.0  0.66008  0.94987  0.02839  1.0000 0.0480876981
C   C129      1.0  0.13581  0.49444  0.52530  1.0000 -0.1501621942
C   C130      1.0  0.86419  0.50556  0.47470  1.0000 -0.1501621942
C   C131      1.0  0.86419  0.49444  0.97470  1.0000 -0.1501621942
C   C132      1.0  0.13581  0.50556  0.02530  1.0000 -0.1501621942
C   C133      1.0  0.63581  0.99444  0.52530  1.0000 -0.1501621942
C   C134      1.0  0.36419  0.00556  0.47470  1.0000 -0.1501621942
C   C135      1.0  0.36419  0.99444  0.97470  1.0000 -0.1501621942
C   C136      1.0  0.63581  0.00556  0.02530  1.0000 -0.1501621942
C   C137      1.0  0.18204  0.45175  0.52203  1.0000 0.0861094568
C   C138      1.0  0.81796  0.54825  0.47797  1.0000 0.0861094568
C   C139      1.0  0.81796  0.45175  0.97797  1.0000 0.0861094568
C   C140      1.0  0.18204  0.54825  0.02203  1.0000 0.0861094568
C   C141      1.0  0.68204  0.95175  0.52203  1.0000 0.0861094568
C   C142      1.0  0.31796  0.04825  0.47797  1.0000 0.0861094568
C   C143      1.0  0.31796  0.95175  0.97797  1.0000 0.0861094568
C   C144      1.0  0.68204  0.04825  0.02203  1.0000 0.0861094568
N   N1        1.0  0.79906  0.79647  0.03276  1.0000 -0.1428548346
N   N2        1.0  0.20094  0.20353  0.96724  1.0000 -0.1428548346
N   N3        1.0  0.20094  0.79647  0.46724  1.0000 -0.1428548346
N   N4        1.0  0.79906  0.20353  0.53276  1.0000 -0.1428548346
N   N5        1.0  0.29906  0.29647  0.03276  1.0000 -0.1428548346
N   N6        1.0  0.70094  0.70353  0.96724  1.0000 -0.1428548346
N   N7        1.0  0.70094  0.29647  0.46724  1.0000 -0.1428548346
N   N8        1.0  0.29906  0.70353  0.53276  1.0000 -0.1428548346
N   N9        1.0  0.78699  0.77238  0.10838  1.0000 -0.1428548346
N   N10       1.0  0.21301  0.22762  0.89162  1.0000 -0.1428548346
N   N11       1.0  0.21301  0.77238  0.39162  1.0000 -0.1428548346
N   N12       1.0  0.78699  0.22762  0.60838  1.0000 -0.1428548346
N   N13       1.0  0.28699  0.27238  0.10838  1.0000 -0.1428548346
N   N14       1.0  0.71301  0.72762  0.89162  1.0000 -0.1428548346
N   N15       1.0  0.71301  0.27238  0.39162  1.0000 -0.1428548346
N   N16       1.0  0.28699  0.72762  0.60838  1.0000 -0.1428548346
N   N17       1.0  0.80611  0.84899  0.68403  1.0000 -0.2907234424
N   N18       1.0  0.19389  0.15101  0.31597  1.0000 -0.2907234424
N   N19       1.0  0.19389  0.84899  0.81597  1.0000 -0.2907234424
N   N20       1.0  0.80611  0.15101  0.18403  1.0000 -0.2907234424
N   N21       1.0  0.30611  0.34899  0.68403  1.0000 -0.2907234424
N   N22       1.0  0.69389  0.65101  0.31597  1.0000 -0.2907234424
N   N23       1.0  0.69389  0.34899  0.81597  1.0000 -0.2907234424
N   N24       1.0  0.30611  0.65101  0.18403  1.0000 -0.2907234424
N   N25       1.0  0.04832  0.58753  0.54039  1.0000 -0.1501621942
N   N26       1.0  0.95168  0.41247  0.45961  1.0000 -0.1501621942
N   N27       1.0  0.95168  0.58753  0.95961  1.0000 -0.1501621942
N   N28       1.0  0.04832  0.41247  0.04039  1.0000 -0.1501621942
N   N29       1.0  0.54832  0.08753  0.54039  1.0000 -0.1501621942
N   N30       1.0  0.45168  0.91247  0.45961  1.0000 -0.1501621942
N   N31       1.0  0.45168  0.08753  0.95961  1.0000 -0.1501621942
N   N32       1.0  0.54832  0.91247  0.04039  1.0000 -0.1501621942
N   N33       1.0  0.00695  0.63117  0.54001  1.0000 -0.158462331
N   N34       1.0  0.99305  0.36883  0.45999  1.0000 -0.158462331
N   N35       1.0  0.99305  0.63117  0.95999  1.0000 -0.158462331
N   N36       1.0  0.00695  0.36883  0.04001  1.0000 -0.158462331
N   N37       1.0  0.50695  0.13117  0.54001  1.0000 -0.158462331
N   N38       1.0  0.49305  0.86883  0.45999  1.0000 -0.158462331
N   N39       1.0  0.49305  0.13117  0.95999  1.0000 -0.158462331
N   N40       1.0  0.50695  0.86883  0.04001  1.0000 -0.158462331
N   N41       1.0  0.08304  0.69009  0.48478  1.0000 -0.158462331
N   N42       1.0  0.91696  0.30991  0.51522  1.0000 -0.158462331
N   N43       1.0  0.91696  0.69009  0.01522  1.0000 -0.158462331
N   N44       1.0  0.08304  0.30991  0.98478  1.0000 -0.158462331
N   N45       1.0  0.58304  0.19009  0.48478  1.0000 -0.158462331
N   N46       1.0  0.41696  0.80991  0.51522  1.0000 -0.158462331
N   N47       1.0  0.41696  0.19009  0.01522  1.0000 -0.158462331
N   N48       1.0  0.58304  0.80991  0.98478  1.0000 -0.158462331
N   N49       1.0  0.12600  0.64696  0.48895  1.0000 -0.1428548346
N   N50       1.0  0.87400  0.35304  0.51105  1.0000 -0.1428548346
N   N51       1.0  0.87400  0.64696  0.01105  1.0000 -0.1428548346
N   N52       1.0  0.12600  0.35304  0.98895  1.0000 -0.1428548346
N   N53       1.0  0.62600  0.14696  0.48895  1.0000 -0.1428548346
N   N54       1.0  0.37400  0.85304  0.51105  1.0000 -0.1428548346
N   N55       1.0  0.37400  0.14696  0.01105  1.0000 -0.1428548346
N   N56       1.0  0.62600  0.85304  0.98895  1.0000 -0.1428548346
N   N57       1.0  0.88936  0.82111  0.51892  1.0000 -0.3033258685
N   N58       1.0  0.11064  0.17889  0.48108  1.0000 -0.3033258685
N   N59       1.0  0.11064  0.82111  0.98108  1.0000 -0.3033258685
N   N60       1.0  0.88936  0.17889  0.01892  1.0000 -0.3033258685
N   N61       1.0  0.38936  0.32111  0.51892  1.0000 -0.3033258685
N   N62       1.0  0.61064  0.67889  0.48108  1.0000 -0.3033258685
N   N63       1.0  0.61064  0.32111  0.98108  1.0000 -0.3033258685
N   N64       1.0  0.38936  0.67889  0.01892  1.0000 -0.3033258685
N   N65       1.0  0.25260  0.46007  0.52375  1.0000 -0.2907234424
N   N66       1.0  0.74740  0.53993  0.47625  1.0000 -0.2907234424
N   N67       1.0  0.74740  0.46007  0.97625  1.0000 -0.2907234424
N   N68       1.0  0.25260  0.53993  0.02375  1.0000 -0.2907234424
N   N69       1.0  0.75260  0.96007  0.52375  1.0000 -0.2907234424
N   N70       1.0  0.24740  0.03993  0.47625  1.0000 -0.2907234424
N   N71       1.0  0.24740  0.96007  0.97625  1.0000 -0.2907234424
N   N72       1.0  0.75260  0.03993  0.02375  1.0000 -0.2907234424
N   N73       1.0  0.00000  0.93260  0.75000  1.0000 0.7105056216
N   N74       1.0  0.00000  0.06740  0.25000  1.0000 0.7105056216
N   N75       1.0  0.50000  0.43260  0.75000  1.0000 0.7105056216
N   N76       1.0  0.50000  0.56740  0.25000  1.0000 0.7105056216
O   O1        1.0  0.94074  0.95970  0.67009  1.0000 -0.4761871826
O   O2        1.0  0.05926  0.04030  0.32991  1.0000 -0.4761871826
O   O3        1.0  0.05926  0.95970  0.82991  1.0000 -0.4761871826
O   O4        1.0  0.94074  0.04030  0.17009  1.0000 -0.4761871826
O   O5        1.0  0.44074  0.45970  0.67009  1.0000 -0.4761871826
O   O6        1.0  0.55926  0.54030  0.32991  1.0000 -0.4761871826
O   O7        1.0  0.55926  0.45970  0.82991  1.0000 -0.4761871826
O   O8        1.0  0.44074  0.54030  0.17009  1.0000 -0.4761871826
O   O9        1.0  0.00000  0.88007  0.75000  1.0000 -0.4761871826
O   O10       1.0  0.00000  0.11993  0.25000  1.0000 -0.4761871826
O   O11       1.0  0.50000  0.38007  0.75000  1.0000 -0.4761871826
O   O12       1.0  0.50000  0.61993  0.25000  1.0000 -0.4761871826
