# DDEC6 charges by PACMAN v1.1 (https://github.com/mtap-research/PACMAN-charge/)
data_2000[Pr][nia]3[ASR]1
_chemical_formula_sum              "Pr4 H24 C24 O30"
_cell_length_a       9.4003
_cell_length_b       9.4003
_cell_length_c       17.35
_cell_angle_alpha    90
_cell_angle_beta     90
_cell_angle_gamma    120

_symmetry_space_group_name_H-M    "P 1"
_symmetry_Int_Tables_number       1

loop_
  _symmetry_equiv_pos_as_xyz
  'x, y, z'

loop_
  _atom_site_type_symbol
  _atom_site_label
  _atom_site_symmetry_multiplicity
  _atom_site_fract_x
  _atom_site_fract_y
  _atom_site_fract_z
  _atom_site_occupancy
  _atom_site_charge
Pr  Pr1       1.0  0.66667  0.33333  0.25000  1.0000 2.1969598971
Pr  Pr2       1.0  0.33333  0.66667  0.75000  1.0000 2.1969598971
Pr  Pr3       1.0  0.00000  0.00000  0.00000  1.0000 1.9332355701
Pr  Pr4       1.0  0.00000  0.00000  0.50000  1.0000 1.9332355701
H   H1        1.0  0.49850  0.17030  0.02590  1.0000 0.1248549067
H   H2        1.0  0.82970  0.32820  0.02590  1.0000 0.1248549067
H   H3        1.0  0.67180  0.50150  0.02590  1.0000 0.1248549067
H   H4        1.0  0.49850  0.17030  0.47410  1.0000 0.1248549067
H   H5        1.0  0.82970  0.32820  0.47410  1.0000 0.1248549067
H   H6        1.0  0.67180  0.50150  0.47410  1.0000 0.1248549067
H   H7        1.0  0.17030  0.49850  0.97410  1.0000 0.1248549067
H   H8        1.0  0.32820  0.82970  0.97410  1.0000 0.1248549067
H   H9        1.0  0.50150  0.67180  0.97410  1.0000 0.1248549067
H   H10       1.0  0.17030  0.49850  0.52590  1.0000 0.1248549067
H   H11       1.0  0.32820  0.82970  0.52590  1.0000 0.1248549067
H   H12       1.0  0.50150  0.67180  0.52590  1.0000 0.1248549067
H   H13       1.0  0.42460  0.02010  0.08280  1.0000 0.1401064078
H   H14       1.0  0.97990  0.40450  0.08280  1.0000 0.1401064078
H   H15       1.0  0.59550  0.57540  0.08280  1.0000 0.1401064078
H   H16       1.0  0.42460  0.02010  0.41720  1.0000 0.1401064078
H   H17       1.0  0.97990  0.40450  0.41720  1.0000 0.1401064078
H   H18       1.0  0.59550  0.57540  0.41720  1.0000 0.1401064078
H   H19       1.0  0.02010  0.42460  0.91720  1.0000 0.1401064078
H   H20       1.0  0.40450  0.97990  0.91720  1.0000 0.1401064078
H   H21       1.0  0.57540  0.59550  0.91720  1.0000 0.1401064078
H   H22       1.0  0.02010  0.42460  0.58280  1.0000 0.1401064078
H   H23       1.0  0.40450  0.97990  0.58280  1.0000 0.1401064078
H   H24       1.0  0.57540  0.59550  0.58280  1.0000 0.1401064078
C   C1        1.0  0.34840  0.18250  0.10610  1.0000 0.6598974906
C   C2        1.0  0.81750  0.16590  0.10610  1.0000 0.6598974906
C   C3        1.0  0.83410  0.65160  0.10610  1.0000 0.6598974906
C   C4        1.0  0.34840  0.18250  0.39390  1.0000 0.6598974906
C   C5        1.0  0.81750  0.16590  0.39390  1.0000 0.6598974906
C   C6        1.0  0.83410  0.65160  0.39390  1.0000 0.6598974906
C   C7        1.0  0.18250  0.34840  0.89390  1.0000 0.6598974906
C   C8        1.0  0.16590  0.81750  0.89390  1.0000 0.6598974906
C   C9        1.0  0.65160  0.83410  0.89390  1.0000 0.6598974906
C   C10       1.0  0.18250  0.34840  0.60610  1.0000 0.6598974906
C   C11       1.0  0.16590  0.81750  0.60610  1.0000 0.6598974906
C   C12       1.0  0.65160  0.83410  0.60610  1.0000 0.6598974906
C   C13       1.0  0.40000  0.09290  0.05340  1.0000 -0.202750311
C   C14       1.0  0.90710  0.30710  0.05340  1.0000 -0.202750311
C   C15       1.0  0.69290  0.60000  0.05340  1.0000 -0.202750311
C   C16       1.0  0.40000  0.09290  0.44660  1.0000 -0.202750311
C   C17       1.0  0.90710  0.30710  0.44660  1.0000 -0.202750311
C   C18       1.0  0.69290  0.60000  0.44660  1.0000 -0.202750311
C   C19       1.0  0.09290  0.40000  0.94660  1.0000 -0.202750311
C   C20       1.0  0.30710  0.90710  0.94660  1.0000 -0.202750311
C   C21       1.0  0.60000  0.69290  0.94660  1.0000 -0.202750311
C   C22       1.0  0.09290  0.40000  0.55340  1.0000 -0.202750311
C   C23       1.0  0.30710  0.90710  0.55340  1.0000 -0.202750311
C   C24       1.0  0.60000  0.69290  0.55340  1.0000 -0.202750311
O   O1        1.0  0.21080  0.17220  0.09650  1.0000 -0.6013382631
O   O2        1.0  0.82780  0.03860  0.09650  1.0000 -0.6013382631
O   O3        1.0  0.96140  0.78920  0.09650  1.0000 -0.6013382631
O   O4        1.0  0.21080  0.17220  0.40350  1.0000 -0.6013382631
O   O5        1.0  0.82780  0.03860  0.40350  1.0000 -0.6013382631
O   O6        1.0  0.96140  0.78920  0.40350  1.0000 -0.6013382631
O   O7        1.0  0.17220  0.21080  0.90350  1.0000 -0.6013382631
O   O8        1.0  0.03860  0.82780  0.90350  1.0000 -0.6013382631
O   O9        1.0  0.78920  0.96140  0.90350  1.0000 -0.6013382631
O   O10       1.0  0.17220  0.21080  0.59650  1.0000 -0.6013382631
O   O11       1.0  0.03860  0.82780  0.59650  1.0000 -0.6013382631
O   O12       1.0  0.78920  0.96140  0.59650  1.0000 -0.6013382631
O   O13       1.0  0.44730  0.27040  0.15720  1.0000 -0.6939529933
O   O14       1.0  0.72960  0.17690  0.15720  1.0000 -0.6939529933
O   O15       1.0  0.82310  0.55270  0.15720  1.0000 -0.6939529933
O   O16       1.0  0.44730  0.27040  0.34280  1.0000 -0.6939529933
O   O17       1.0  0.72960  0.17690  0.34280  1.0000 -0.6939529933
O   O18       1.0  0.82310  0.55270  0.34280  1.0000 -0.6939529933
O   O19       1.0  0.27040  0.44730  0.84280  1.0000 -0.6939529933
O   O20       1.0  0.17690  0.72960  0.84280  1.0000 -0.6939529933
O   O21       1.0  0.55270  0.82310  0.84280  1.0000 -0.6939529933
O   O22       1.0  0.27040  0.44730  0.65720  1.0000 -0.6939529933
O   O23       1.0  0.17690  0.72960  0.65720  1.0000 -0.6939529933
O   O24       1.0  0.55270  0.82310  0.65720  1.0000 -0.6939529933
O   O25       1.0  0.27150  0.00000  0.00000  1.0000 -0.2303662978
O   O26       1.0  0.00000  0.27150  0.00000  1.0000 -0.2303662978
O   O27       1.0  0.72850  0.72850  0.00000  1.0000 -0.2303662978
O   O28       1.0  0.27150  0.00000  0.50000  1.0000 -0.2303662978
O   O29       1.0  0.00000  0.27150  0.50000  1.0000 -0.2303662978
O   O30       1.0  0.72850  0.72850  0.50000  1.0000 -0.2303662978
