# DDEC6 charges by PACMAN v1.1 (https://github.com/mtap-research/PACMAN-charge/)
data_2000[Cu][pts]3[ASR]2
_chemical_formula_sum              "Cu4 H28 C40 I4 N8"
_cell_length_a       10.0748
_cell_length_b       10.0748
_cell_length_c       16.42
_cell_angle_alpha    84.5481
_cell_angle_beta     95.4519
_cell_angle_gamma    88.6649

_symmetry_space_group_name_H-M    "P 1"
_symmetry_Int_Tables_number       1

loop_
  _symmetry_equiv_pos_as_xyz
  'x, y, z'

loop_
  _atom_site_type_symbol
  _atom_site_label
  _atom_site_symmetry_multiplicity
  _atom_site_fract_x
  _atom_site_fract_y
  _atom_site_fract_z
  _atom_site_occupancy
  _atom_site_charge
Cu  Cu1       1.0  0.59114  0.08656  0.51931  1.0000 0.197508506
Cu  Cu2       1.0  0.91344  0.40886  0.01931  1.0000 0.197508506
Cu  Cu3       1.0  0.40886  0.91344  0.48069  1.0000 0.197508506
Cu  Cu4       1.0  0.08656  0.59114  0.98069  1.0000 0.197508506
H   H1        1.0  0.59230  0.21610  0.67340  1.0000 0.1002076216
H   H2        1.0  0.78390  0.40770  0.17340  1.0000 0.1002076216
H   H3        1.0  0.40770  0.78390  0.32660  1.0000 0.1002076216
H   H4        1.0  0.21610  0.59230  0.82660  1.0000 0.1002076216
H   H5        1.0  0.84930  0.02090  0.85100  1.0000 0.1203401494
H   H6        1.0  0.97910  0.15070  0.35100  1.0000 0.1203401494
H   H7        1.0  0.15070  0.97910  0.14900  1.0000 0.1203401494
H   H8        1.0  0.02090  0.84930  0.64900  1.0000 0.1203401494
H   H9        1.0  0.80470  0.91110  0.62120  1.0000 0.1002076216
H   H10       1.0  0.08890  0.19530  0.12120  1.0000 0.1002076216
H   H11       1.0  0.19530  0.08890  0.37880  1.0000 0.1002076216
H   H12       1.0  0.91110  0.80470  0.87880  1.0000 0.1002076216
H   H13       1.0  0.86230  0.23030  0.88900  1.0000 0.1002076216
H   H14       1.0  0.76970  0.13770  0.38900  1.0000 0.1002076216
H   H15       1.0  0.13770  0.76970  0.11100  1.0000 0.1002076216
H   H16       1.0  0.23030  0.86230  0.61100  1.0000 0.1002076216
H   H17       1.0  0.48110  0.26950  0.78930  1.0000 0.1203401494
H   H18       1.0  0.73050  0.51890  0.28930  1.0000 0.1203401494
H   H19       1.0  0.51890  0.73050  0.21070  1.0000 0.1203401494
H   H20       1.0  0.26950  0.48110  0.71070  1.0000 0.1203401494
H   H21       1.0  0.44500  0.42680  0.88180  1.0000 0.1280760052
H   H22       1.0  0.57320  0.55500  0.38180  1.0000 0.1280760052
H   H23       1.0  0.55500  0.57320  0.11820  1.0000 0.1280760052
H   H24       1.0  0.42680  0.44500  0.61820  1.0000 0.1280760052
H   H25       1.0  0.61880  0.48340  0.97200  1.0000 0.1002076216
H   H26       1.0  0.51660  0.38120  0.47200  1.0000 0.1002076216
H   H27       1.0  0.38120  0.51660  0.02800  1.0000 0.1002076216
H   H28       1.0  0.48340  0.61880  0.52800  1.0000 0.1002076216
C   C1        1.0  0.65790  0.14730  0.69040  1.0000 0.01960656
C   C2        1.0  0.85270  0.34210  0.19040  1.0000 0.01960656
C   C3        1.0  0.34210  0.85270  0.30960  1.0000 0.01960656
C   C4        1.0  0.14730  0.65790  0.80960  1.0000 0.01960656
C   C5        1.0  0.71320  0.13660  0.77150  1.0000 0.0482114446
C   C6        1.0  0.86340  0.28680  0.27150  1.0000 0.0482114446
C   C7        1.0  0.28680  0.86340  0.22850  1.0000 0.0482114446
C   C8        1.0  0.13660  0.71320  0.72850  1.0000 0.0482114446
C   C9        1.0  0.80950  0.03390  0.79590  1.0000 -0.1586701465
C   C10       1.0  0.96610  0.19050  0.29590  1.0000 -0.1586701465
C   C11       1.0  0.19050  0.96610  0.20410  1.0000 -0.1586701465
C   C12       1.0  0.03390  0.80950  0.70410  1.0000 -0.1586701465
C   C13       1.0  0.84500  0.95220  0.73840  1.0000 0.0482114446
C   C14       1.0  0.04780  0.15500  0.23840  1.0000 0.0482114446
C   C15       1.0  0.15500  0.04780  0.26160  1.0000 0.0482114446
C   C16       1.0  0.95220  0.84500  0.76160  1.0000 0.0482114446
C   C17       1.0  0.78190  0.97050  0.65970  1.0000 0.0112945702
C   C18       1.0  0.02950  0.21810  0.15970  1.0000 0.0112945702
C   C19       1.0  0.21810  0.02950  0.34030  1.0000 0.0112945702
C   C20       1.0  0.97050  0.78190  0.84030  1.0000 0.0112945702
C   C21       1.0  0.77620  0.27140  0.88700  1.0000 0.0025567768
C   C22       1.0  0.72860  0.22380  0.38700  1.0000 0.0025567768
C   C23       1.0  0.22380  0.72860  0.11300  1.0000 0.0025567768
C   C24       1.0  0.27140  0.77620  0.61300  1.0000 0.0025567768
C   C25       1.0  0.67670  0.23450  0.82960  1.0000 0.0395259833
C   C26       1.0  0.76550  0.32330  0.32960  1.0000 0.0395259833
C   C27       1.0  0.32330  0.76550  0.17040  1.0000 0.0395259833
C   C28       1.0  0.23450  0.67670  0.67040  1.0000 0.0395259833
C   C29       1.0  0.55160  0.29260  0.82740  1.0000 -0.1033715946
C   C30       1.0  0.70740  0.44840  0.32740  1.0000 -0.1033715946
C   C31       1.0  0.44840  0.70740  0.17260  1.0000 -0.1033715946
C   C32       1.0  0.29260  0.55160  0.67260  1.0000 -0.1033715946
C   C33       1.0  0.53070  0.38550  0.88170  1.0000 -0.1524180402
C   C34       1.0  0.61450  0.46930  0.38170  1.0000 -0.1524180402
C   C35       1.0  0.46930  0.61450  0.11830  1.0000 -0.1524180402
C   C36       1.0  0.38550  0.53070  0.61830  1.0000 -0.1524180402
C   C37       1.0  0.63500  0.41780  0.93580  1.0000 0.0743488962
C   C38       1.0  0.58220  0.36500  0.43580  1.0000 0.0743488962
C   C39       1.0  0.36500  0.58220  0.06420  1.0000 0.0743488962
C   C40       1.0  0.41780  0.63500  0.56420  1.0000 0.0743488962
I   I1        1.0  0.65788  0.86514  0.45136  1.0000 -0.4790508976
I   I2        1.0  0.13486  0.34212  0.95136  1.0000 -0.4790508976
I   I3        1.0  0.34212  0.13486  0.54864  1.0000 -0.4790508976
I   I4        1.0  0.86514  0.65788  0.04864  1.0000 -0.4790508976
N   N1        1.0  0.69060  0.06760  0.63490  1.0000 -0.1586701465
N   N2        1.0  0.93240  0.30940  0.13490  1.0000 -0.1586701465
N   N3        1.0  0.30940  0.93240  0.36510  1.0000 -0.1586701465
N   N4        1.0  0.06760  0.69060  0.86510  1.0000 -0.1586701465
N   N5        1.0  0.75650  0.36330  0.94050  1.0000 -0.1586701465
N   N6        1.0  0.63670  0.24350  0.44050  1.0000 -0.1586701465
N   N7        1.0  0.24350  0.63670  0.05950  1.0000 -0.1586701465
N   N8        1.0  0.36330  0.75650  0.55950  1.0000 -0.1586701465
