# DDEC6 charges by PACMAN v1.1 (https://github.com/mtap-research/PACMAN-charge/)
data_2001[Zn][sit]3[ASR]1
_chemical_formula_sum              "Zn12 H128 C216 O52"
_cell_length_a       17.158
_cell_length_b       21.591
_cell_length_c       25.308
_cell_angle_alpha    90
_cell_angle_beta     90
_cell_angle_gamma    90

_symmetry_space_group_name_H-M    "P 1"
_symmetry_Int_Tables_number       1

loop_
  _symmetry_equiv_pos_as_xyz
  'x, y, z'

loop_
  _atom_site_type_symbol
  _atom_site_label
  _atom_site_symmetry_multiplicity
  _atom_site_fract_x
  _atom_site_fract_y
  _atom_site_fract_z
  _atom_site_occupancy
  _atom_site_charge
Zn  Zn1       1.0  0.00500  0.16500  0.11310  1.0000 0.9271731734
Zn  Zn2       1.0  0.49500  0.83500  0.61310  1.0000 0.9271731734
Zn  Zn3       1.0  0.49500  0.66500  0.61310  1.0000 0.9271731734
Zn  Zn4       1.0  0.00500  0.33500  0.11310  1.0000 0.9271731734
Zn  Zn5       1.0  0.11680  0.25000  0.18290  1.0000 1.0195548594
Zn  Zn6       1.0  0.38320  0.75000  0.68290  1.0000 1.0195548594
Zn  Zn7       1.0  0.50500  0.33500  0.38690  1.0000 0.9271731734
Zn  Zn8       1.0  0.99500  0.66500  0.88690  1.0000 0.9271731734
Zn  Zn9       1.0  0.99500  0.83500  0.88690  1.0000 0.9271731734
Zn  Zn10      1.0  0.50500  0.16500  0.38690  1.0000 0.9271731734
Zn  Zn11      1.0  0.61680  0.25000  0.31710  1.0000 1.0195548594
Zn  Zn12      1.0  0.88320  0.75000  0.81710  1.0000 1.0195548594
H   H1        1.0  0.53420  0.93490  0.53330  1.0000 0.3322411537
H   H2        1.0  0.96580  0.06510  0.03330  1.0000 0.3322411537
H   H3        1.0  0.96580  0.43490  0.03330  1.0000 0.3322411537
H   H4        1.0  0.53420  0.56510  0.53330  1.0000 0.3322411537
H   H5        1.0  0.10950  0.12860  0.31220  1.0000 0.1199090147
H   H6        1.0  0.39050  0.87140  0.81220  1.0000 0.1199090147
H   H7        1.0  0.39050  0.62860  0.81220  1.0000 0.1199090147
H   H8        1.0  0.10950  0.37140  0.31220  1.0000 0.1199090147
H   H9        1.0  0.09870  0.06230  0.38370  1.0000 0.1097161835
H   H10       1.0  0.40130  0.93770  0.88370  1.0000 0.1097161835
H   H11       1.0  0.40130  0.56230  0.88370  1.0000 0.1097161835
H   H12       1.0  0.09870  0.43770  0.38370  1.0000 0.1097161835
H   H13       1.0  0.92800  0.96810  0.30850  1.0000 0.1097161835
H   H14       1.0  0.57200  0.03190  0.80850  1.0000 0.1097161835
H   H15       1.0  0.57200  0.46810  0.80850  1.0000 0.1097161835
H   H16       1.0  0.92800  0.53190  0.30850  1.0000 0.1097161835
H   H17       1.0  0.94400  0.03220  0.23550  1.0000 0.1199090147
H   H18       1.0  0.55600  0.96780  0.73550  1.0000 0.1199090147
H   H19       1.0  0.55600  0.53220  0.73550  1.0000 0.1199090147
H   H20       1.0  0.94400  0.46780  0.23550  1.0000 0.1199090147
H   H21       1.0  0.11760  0.95920  0.41790  1.0000 0.1097161835
H   H22       1.0  0.38240  0.04080  0.91790  1.0000 0.1097161835
H   H23       1.0  0.38240  0.45920  0.91790  1.0000 0.1097161835
H   H24       1.0  0.11760  0.54080  0.41790  1.0000 0.1097161835
H   H25       1.0  0.97950  0.87410  0.52510  1.0000 0.1097161835
H   H26       1.0  0.52050  0.12590  0.02510  1.0000 0.1097161835
H   H27       1.0  0.52050  0.37410  0.02510  1.0000 0.1097161835
H   H28       1.0  0.97950  0.62590  0.52510  1.0000 0.1097161835
H   H29       1.0  0.88360  0.96400  0.40110  1.0000 0.1097161835
H   H30       1.0  0.61640  0.03600  0.90110  1.0000 0.1097161835
H   H31       1.0  0.61640  0.46400  0.90110  1.0000 0.1097161835
H   H32       1.0  0.88360  0.53600  0.40110  1.0000 0.1097161835
H   H33       1.0  0.20360  0.89340  0.44490  1.0000 0.1097161835
H   H34       1.0  0.29640  0.10660  0.94490  1.0000 0.1097161835
H   H35       1.0  0.29640  0.39340  0.94490  1.0000 0.1097161835
H   H36       1.0  0.20360  0.60660  0.44490  1.0000 0.1097161835
H   H37       1.0  0.31540  0.86320  0.48890  1.0000 0.1199090147
H   H38       1.0  0.18460  0.13680  0.98890  1.0000 0.1199090147
H   H39       1.0  0.18460  0.36320  0.98890  1.0000 0.1199090147
H   H40       1.0  0.31540  0.63680  0.48890  1.0000 0.1199090147
H   H41       1.0  0.19320  0.86180  0.62540  1.0000 0.1199090147
H   H42       1.0  0.30680  0.13820  0.12540  1.0000 0.1199090147
H   H43       1.0  0.30680  0.36180  0.12540  1.0000 0.1199090147
H   H44       1.0  0.19320  0.63820  0.62540  1.0000 0.1199090147
H   H45       1.0  0.08230  0.89450  0.57970  1.0000 0.1097161835
H   H46       1.0  0.41770  0.10550  0.07970  1.0000 0.1097161835
H   H47       1.0  0.41770  0.39450  0.07970  1.0000 0.1097161835
H   H48       1.0  0.08230  0.60550  0.57970  1.0000 0.1097161835
H   H49       1.0  0.85810  0.82670  0.52210  1.0000 0.1097161835
H   H50       1.0  0.64190  0.17330  0.02210  1.0000 0.1097161835
H   H51       1.0  0.64190  0.32670  0.02210  1.0000 0.1097161835
H   H52       1.0  0.85810  0.67330  0.52210  1.0000 0.1097161835
H   H53       1.0  0.72590  0.81550  0.56070  1.0000 0.1253946632
H   H54       1.0  0.77410  0.18450  0.06070  1.0000 0.1253946632
H   H55       1.0  0.77410  0.31550  0.06070  1.0000 0.1253946632
H   H56       1.0  0.72590  0.68450  0.56070  1.0000 0.1253946632
H   H57       1.0  0.67400  0.98350  0.50800  1.0000 0.1097161835
H   H58       1.0  0.82600  0.01650  0.00800  1.0000 0.1097161835
H   H59       1.0  0.82600  0.48350  0.00800  1.0000 0.1097161835
H   H60       1.0  0.67400  0.51650  0.50800  1.0000 0.1097161835
H   H61       1.0  0.79580  0.99400  0.47080  1.0000 0.1097161835
H   H62       1.0  0.70420  0.00600  0.97080  1.0000 0.1097161835
H   H63       1.0  0.70420  0.49400  0.97080  1.0000 0.1097161835
H   H64       1.0  0.79580  0.50600  0.47080  1.0000 0.1097161835
H   H65       1.0  0.03420  0.56510  0.96670  1.0000 0.3322411537
H   H66       1.0  0.46580  0.43490  0.46670  1.0000 0.3322411537
H   H67       1.0  0.46580  0.06510  0.46670  1.0000 0.3322411537
H   H68       1.0  0.03420  0.93490  0.96670  1.0000 0.3322411537
H   H69       1.0  0.60950  0.37140  0.18780  1.0000 0.1199090147
H   H70       1.0  0.89050  0.62860  0.68780  1.0000 0.1199090147
H   H71       1.0  0.89050  0.87140  0.68780  1.0000 0.1199090147
H   H72       1.0  0.60950  0.12860  0.18780  1.0000 0.1199090147
H   H73       1.0  0.59870  0.43770  0.11630  1.0000 0.1097161835
H   H74       1.0  0.90130  0.56230  0.61630  1.0000 0.1097161835
H   H75       1.0  0.90130  0.93770  0.61630  1.0000 0.1097161835
H   H76       1.0  0.59870  0.06230  0.11630  1.0000 0.1097161835
H   H77       1.0  0.42800  0.53190  0.19150  1.0000 0.1097161835
H   H78       1.0  0.07200  0.46810  0.69150  1.0000 0.1097161835
H   H79       1.0  0.07200  0.03190  0.69150  1.0000 0.1097161835
H   H80       1.0  0.42800  0.96810  0.19150  1.0000 0.1097161835
H   H81       1.0  0.44400  0.46780  0.26450  1.0000 0.1199090147
H   H82       1.0  0.05600  0.53220  0.76450  1.0000 0.1199090147
H   H83       1.0  0.05600  0.96780  0.76450  1.0000 0.1199090147
H   H84       1.0  0.44400  0.03220  0.26450  1.0000 0.1199090147
H   H85       1.0  0.61760  0.54080  0.08210  1.0000 0.1097161835
H   H86       1.0  0.88240  0.45920  0.58210  1.0000 0.1097161835
H   H87       1.0  0.88240  0.04080  0.58210  1.0000 0.1097161835
H   H88       1.0  0.61760  0.95920  0.08210  1.0000 0.1097161835
H   H89       1.0  0.47950  0.62590  0.97490  1.0000 0.1097161835
H   H90       1.0  0.02050  0.37410  0.47490  1.0000 0.1097161835
H   H91       1.0  0.02050  0.12590  0.47490  1.0000 0.1097161835
H   H92       1.0  0.47950  0.87410  0.97490  1.0000 0.1097161835
H   H93       1.0  0.38360  0.53600  0.09890  1.0000 0.1097161835
H   H94       1.0  0.11640  0.46400  0.59890  1.0000 0.1097161835
H   H95       1.0  0.11640  0.03600  0.59890  1.0000 0.1097161835
H   H96       1.0  0.38360  0.96400  0.09890  1.0000 0.1097161835
H   H97       1.0  0.70360  0.60660  0.05510  1.0000 0.1097161835
H   H98       1.0  0.79640  0.39340  0.55510  1.0000 0.1097161835
H   H99       1.0  0.79640  0.10660  0.55510  1.0000 0.1097161835
H   H100      1.0  0.70360  0.89340  0.05510  1.0000 0.1097161835
H   H101      1.0  0.81540  0.63680  0.01110  1.0000 0.1199090147
H   H102      1.0  0.68460  0.36320  0.51110  1.0000 0.1199090147
H   H103      1.0  0.68460  0.13680  0.51110  1.0000 0.1199090147
H   H104      1.0  0.81540  0.86320  0.01110  1.0000 0.1199090147
H   H105      1.0  0.69320  0.63820  0.87460  1.0000 0.1199090147
H   H106      1.0  0.80680  0.36180  0.37460  1.0000 0.1199090147
H   H107      1.0  0.80680  0.13820  0.37460  1.0000 0.1199090147
H   H108      1.0  0.69320  0.86180  0.87460  1.0000 0.1199090147
H   H109      1.0  0.58230  0.60550  0.92030  1.0000 0.1097161835
H   H110      1.0  0.91770  0.39450  0.42030  1.0000 0.1097161835
H   H111      1.0  0.91770  0.10550  0.42030  1.0000 0.1097161835
H   H112      1.0  0.58230  0.89450  0.92030  1.0000 0.1097161835
H   H113      1.0  0.35810  0.67330  0.97790  1.0000 0.1097161835
H   H114      1.0  0.14190  0.32670  0.47790  1.0000 0.1097161835
H   H115      1.0  0.14190  0.17330  0.47790  1.0000 0.1097161835
H   H116      1.0  0.35810  0.82670  0.97790  1.0000 0.1097161835
H   H117      1.0  0.22590  0.68450  0.93930  1.0000 0.1253946632
H   H118      1.0  0.27410  0.31550  0.43930  1.0000 0.1253946632
H   H119      1.0  0.27410  0.18450  0.43930  1.0000 0.1253946632
H   H120      1.0  0.22590  0.81550  0.93930  1.0000 0.1253946632
H   H121      1.0  0.17400  0.51650  0.99200  1.0000 0.1097161835
H   H122      1.0  0.32600  0.48350  0.49200  1.0000 0.1097161835
H   H123      1.0  0.32600  0.01650  0.49200  1.0000 0.1097161835
H   H124      1.0  0.17400  0.98350  0.99200  1.0000 0.1097161835
H   H125      1.0  0.29580  0.50600  0.02920  1.0000 0.1097161835
H   H126      1.0  0.20420  0.49400  0.52920  1.0000 0.1097161835
H   H127      1.0  0.20420  0.00600  0.52920  1.0000 0.1097161835
H   H128      1.0  0.29580  0.99400  0.02920  1.0000 0.1097161835
C   C1        1.0  0.03720  0.13160  0.22180  1.0000 0.5911709875
C   C2        1.0  0.46280  0.86840  0.72180  1.0000 0.5911709875
C   C3        1.0  0.46280  0.63160  0.72180  1.0000 0.5911709875
C   C4        1.0  0.03720  0.36840  0.22180  1.0000 0.5911709875
C   C5        1.0  0.02720  0.08720  0.26810  1.0000 -0.0229858369
C   C6        1.0  0.47280  0.91280  0.76810  1.0000 -0.0229858369
C   C7        1.0  0.47280  0.58720  0.76810  1.0000 -0.0229858369
C   C8        1.0  0.02720  0.41280  0.26810  1.0000 -0.0229858369
C   C9        1.0  0.07270  0.09580  0.31140  1.0000 -0.0941961231
C   C10       1.0  0.42730  0.90420  0.81140  1.0000 -0.0941961231
C   C11       1.0  0.42730  0.59580  0.81140  1.0000 -0.0941961231
C   C12       1.0  0.07270  0.40420  0.31140  1.0000 -0.0941961231
C   C13       1.0  0.06530  0.05670  0.35420  1.0000 -0.16721608
C   C14       1.0  0.43470  0.94330  0.85420  1.0000 -0.1589773171
C   C15       1.0  0.43470  0.55670  0.85420  1.0000 -0.1589773171
C   C16       1.0  0.06530  0.44330  0.35420  1.0000 -0.16721608
C   C17       1.0  0.01180  0.01050  0.35550  1.0000 0.0714638582
C   C18       1.0  0.48820  0.98950  0.85550  1.0000 0.0714638582
C   C19       1.0  0.48820  0.51050  0.85550  1.0000 0.0714638582
C   C20       1.0  0.01180  0.48950  0.35550  1.0000 0.0714638582
C   C21       1.0  0.96510  0.00080  0.30940  1.0000 -0.1589773171
C   C22       1.0  0.53490  0.99920  0.80940  1.0000 -0.1589773171
C   C23       1.0  0.53490  0.50080  0.80940  1.0000 -0.1589773171
C   C24       1.0  0.96510  0.49920  0.30940  1.0000 -0.1589773171
C   C25       1.0  0.97420  0.03890  0.26650  1.0000 -0.0941961231
C   C26       1.0  0.52580  0.96110  0.76650  1.0000 -0.0941961231
C   C27       1.0  0.52580  0.53890  0.76650  1.0000 -0.0941961231
C   C28       1.0  0.97420  0.46110  0.26650  1.0000 -0.0941961231
C   C29       1.0  0.00110  0.97010  0.40320  1.0000 0.0798102211
C   C30       1.0  0.49890  0.02990  0.90320  1.0000 0.0798102211
C   C31       1.0  0.49890  0.47010  0.90320  1.0000 0.0798102211
C   C32       1.0  0.00110  0.52990  0.40320  1.0000 0.0798102211
C   C33       1.0  0.06730  0.94910  0.43090  1.0000 -0.2077134838
C   C34       1.0  0.43270  0.05090  0.93090  1.0000 -0.2077134838
C   C35       1.0  0.43270  0.44910  0.93090  1.0000 -0.2077134838
C   C36       1.0  0.06730  0.55090  0.43090  1.0000 -0.2077134838
C   C37       1.0  0.06060  0.91390  0.47680  1.0000 0.0858651208
C   C38       1.0  0.43940  0.08610  0.97680  1.0000 0.0858651208
C   C39       1.0  0.43940  0.41390  0.97680  1.0000 0.0858651208
C   C40       1.0  0.06060  0.58610  0.47680  1.0000 0.0858651208
C   C41       1.0  0.98540  0.89920  0.49450  1.0000 -0.2077134838
C   C42       1.0  0.51460  0.10080  0.99450  1.0000 -0.2077134838
C   C43       1.0  0.51460  0.39920  0.99450  1.0000 -0.2077134838
C   C44       1.0  0.98540  0.60080  0.49450  1.0000 -0.2077134838
C   C45       1.0  0.91940  0.92020  0.46850  1.0000 0.0858651208
C   C46       1.0  0.58060  0.07980  0.96850  1.0000 0.0858651208
C   C47       1.0  0.58060  0.42020  0.96850  1.0000 0.0858651208
C   C48       1.0  0.91940  0.57980  0.46850  1.0000 0.0858651208
C   C49       1.0  0.92840  0.95320  0.42120  1.0000 -0.2077134838
C   C50       1.0  0.57160  0.04680  0.92120  1.0000 -0.2077134838
C   C51       1.0  0.57160  0.45320  0.92120  1.0000 -0.2077134838
C   C52       1.0  0.92840  0.54680  0.42120  1.0000 -0.2077134838
C   C53       1.0  0.13270  0.89300  0.50610  1.0000 0.0714638582
C   C54       1.0  0.36730  0.10700  0.00610  1.0000 0.0714638582
C   C55       1.0  0.36730  0.39300  0.00610  1.0000 0.0714638582
C   C56       1.0  0.13270  0.60700  0.50610  1.0000 0.0714638582
C   C57       1.0  0.20090  0.88600  0.48190  1.0000 -0.1493259348
C   C58       1.0  0.29910  0.11400  0.98190  1.0000 -0.1493259348
C   C59       1.0  0.29910  0.38600  0.98190  1.0000 -0.1493259348
C   C60       1.0  0.20090  0.61400  0.48190  1.0000 -0.1493259348
C   C61       1.0  0.26810  0.86840  0.50800  1.0000 -0.0986006745
C   C62       1.0  0.23190  0.13160  0.00800  1.0000 -0.0986006745
C   C63       1.0  0.23190  0.36840  0.00800  1.0000 -0.0986006745
C   C64       1.0  0.26810  0.63160  0.50800  1.0000 -0.0986006745
C   C65       1.0  0.26660  0.85850  0.56100  1.0000 -0.0259905826
C   C66       1.0  0.23340  0.14150  0.06100  1.0000 -0.0259905826
C   C67       1.0  0.23340  0.35850  0.06100  1.0000 -0.0259905826
C   C68       1.0  0.26660  0.64150  0.56100  1.0000 -0.0259905826
C   C69       1.0  0.19550  0.86800  0.58830  1.0000 -0.0986006745
C   C70       1.0  0.30450  0.13200  0.08830  1.0000 -0.0986006745
C   C71       1.0  0.30450  0.36800  0.08830  1.0000 -0.0986006745
C   C72       1.0  0.19550  0.63200  0.58830  1.0000 -0.0986006745
C   C73       1.0  0.12930  0.88640  0.56120  1.0000 -0.16721608
C   C74       1.0  0.37070  0.11360  0.06120  1.0000 -0.16721608
C   C75       1.0  0.37070  0.38640  0.06120  1.0000 -0.16721608
C   C76       1.0  0.12930  0.61360  0.56120  1.0000 -0.16721608
C   C77       1.0  0.33790  0.83830  0.59160  1.0000 0.5834664166
C   C78       1.0  0.16210  0.16170  0.09160  1.0000 0.5834664166
C   C79       1.0  0.16210  0.33830  0.09160  1.0000 0.5834664166
C   C80       1.0  0.33790  0.66170  0.59160  1.0000 0.5834664166
C   C81       1.0  0.83840  0.90770  0.48890  1.0000 0.0798102211
C   C82       1.0  0.66160  0.09230  0.98890  1.0000 0.0798102211
C   C83       1.0  0.66160  0.40770  0.98890  1.0000 0.0798102211
C   C84       1.0  0.83840  0.59230  0.48890  1.0000 0.0798102211
C   C85       1.0  0.82040  0.85830  0.51700  1.0000 -0.1493259348
C   C86       1.0  0.67960  0.14170  0.01700  1.0000 -0.1493259348
C   C87       1.0  0.67960  0.35830  0.01700  1.0000 -0.1493259348
C   C88       1.0  0.82040  0.64170  0.51700  1.0000 -0.1493259348
C   C89       1.0  0.73980  0.85150  0.54130  1.0000 -0.0986006745
C   C90       1.0  0.76020  0.14850  0.04130  1.0000 -0.0986006745
C   C91       1.0  0.76020  0.35150  0.04130  1.0000 -0.0986006745
C   C92       1.0  0.73980  0.64850  0.54130  1.0000 -0.0986006745
C   C93       1.0  0.68920  0.89790  0.53450  1.0000 -0.0229858369
C   C94       1.0  0.81080  0.10210  0.03450  1.0000 -0.0229858369
C   C95       1.0  0.81080  0.39790  0.03450  1.0000 -0.0229858369
C   C96       1.0  0.68920  0.60210  0.53450  1.0000 -0.0229858369
C   C97       1.0  0.70990  0.95010  0.51000  1.0000 -0.1303793505
C   C98       1.0  0.79010  0.04990  0.01000  1.0000 -0.1303793505
C   C99       1.0  0.79010  0.45010  0.01000  1.0000 -0.1303793505
C   C100      1.0  0.70990  0.54990  0.51000  1.0000 -0.1303793505
C   C101      1.0  0.78260  0.95610  0.48770  1.0000 -0.1589773171
C   C102      1.0  0.71740  0.04390  0.98770  1.0000 -0.1589773171
C   C103      1.0  0.71740  0.45610  0.98770  1.0000 -0.1589773171
C   C104      1.0  0.78260  0.54390  0.48770  1.0000 -0.1589773171
C   C105      1.0  0.60620  0.89380  0.56120  1.0000 0.5252531827
C   C106      1.0  0.89380  0.10620  0.06120  1.0000 0.5229048988
C   C107      1.0  0.89380  0.39380  0.06120  1.0000 0.5229048988
C   C108      1.0  0.60620  0.60620  0.56120  1.0000 0.5252531827
C   C109      1.0  0.53720  0.36840  0.27820  1.0000 0.5911709875
C   C110      1.0  0.96280  0.63160  0.77820  1.0000 0.5911709875
C   C111      1.0  0.96280  0.86840  0.77820  1.0000 0.5911709875
C   C112      1.0  0.53720  0.13160  0.27820  1.0000 0.5911709875
C   C113      1.0  0.52720  0.41280  0.23190  1.0000 -0.0229858369
C   C114      1.0  0.97280  0.58720  0.73190  1.0000 -0.0229858369
C   C115      1.0  0.97280  0.91280  0.73190  1.0000 -0.0229858369
C   C116      1.0  0.52720  0.08720  0.23190  1.0000 -0.0229858369
C   C117      1.0  0.57270  0.40420  0.18860  1.0000 -0.0941961231
C   C118      1.0  0.92730  0.59580  0.68860  1.0000 -0.0941961231
C   C119      1.0  0.92730  0.90420  0.68860  1.0000 -0.0941961231
C   C120      1.0  0.57270  0.09580  0.18860  1.0000 -0.0941961231
C   C121      1.0  0.56530  0.44330  0.14580  1.0000 -0.16721608
C   C122      1.0  0.93470  0.55670  0.64580  1.0000 -0.16721608
C   C123      1.0  0.93470  0.94330  0.64580  1.0000 -0.16721608
C   C124      1.0  0.56530  0.05670  0.14580  1.0000 -0.16721608
C   C125      1.0  0.51180  0.48950  0.14450  1.0000 0.0714638582
C   C126      1.0  0.98820  0.51050  0.64450  1.0000 0.0714638582
C   C127      1.0  0.98820  0.98950  0.64450  1.0000 0.0714638582
C   C128      1.0  0.51180  0.01050  0.14450  1.0000 0.0714638582
C   C129      1.0  0.46510  0.49920  0.19060  1.0000 -0.1589773171
C   C130      1.0  0.03490  0.50080  0.69060  1.0000 -0.1589773171
C   C131      1.0  0.03490  0.99920  0.69060  1.0000 -0.1589773171
C   C132      1.0  0.46510  0.00080  0.19060  1.0000 -0.1589773171
C   C133      1.0  0.47420  0.46110  0.23350  1.0000 -0.0941961231
C   C134      1.0  0.02580  0.53890  0.73350  1.0000 -0.0986006745
C   C135      1.0  0.02580  0.96110  0.73350  1.0000 -0.0986006745
C   C136      1.0  0.47420  0.03890  0.23350  1.0000 -0.0941961231
C   C137      1.0  0.50110  0.52990  0.09680  1.0000 0.0798102211
C   C138      1.0  0.99890  0.47010  0.59680  1.0000 0.0798102211
C   C139      1.0  0.99890  0.02990  0.59680  1.0000 0.0798102211
C   C140      1.0  0.50110  0.97010  0.09680  1.0000 0.0798102211
C   C141      1.0  0.56730  0.55090  0.06910  1.0000 -0.2077134838
C   C142      1.0  0.93270  0.44910  0.56910  1.0000 -0.2077134838
C   C143      1.0  0.93270  0.05090  0.56910  1.0000 -0.2077134838
C   C144      1.0  0.56730  0.94910  0.06910  1.0000 -0.2077134838
C   C145      1.0  0.56060  0.58610  0.02320  1.0000 0.0858651208
C   C146      1.0  0.93940  0.41390  0.52320  1.0000 0.0858651208
C   C147      1.0  0.93940  0.08610  0.52320  1.0000 0.0858651208
C   C148      1.0  0.56060  0.91390  0.02320  1.0000 0.0858651208
C   C149      1.0  0.48540  0.60080  0.00550  1.0000 -0.2077134838
C   C150      1.0  0.01460  0.39920  0.50550  1.0000 -0.2077134838
C   C151      1.0  0.01460  0.10080  0.50550  1.0000 -0.2077134838
C   C152      1.0  0.48540  0.89920  0.00550  1.0000 -0.2077134838
C   C153      1.0  0.41940  0.57980  0.03150  1.0000 0.0858651208
C   C154      1.0  0.08060  0.42020  0.53150  1.0000 0.0858651208
C   C155      1.0  0.08060  0.07980  0.53150  1.0000 0.0858651208
C   C156      1.0  0.41940  0.92020  0.03150  1.0000 0.0858651208
C   C157      1.0  0.42840  0.54680  0.07880  1.0000 -0.2077134838
C   C158      1.0  0.07160  0.45320  0.57880  1.0000 -0.2077134838
C   C159      1.0  0.07160  0.04680  0.57880  1.0000 -0.2077134838
C   C160      1.0  0.42840  0.95320  0.07880  1.0000 -0.2077134838
C   C161      1.0  0.63270  0.60700  0.99390  1.0000 0.0714638582
C   C162      1.0  0.86730  0.39300  0.49390  1.0000 0.0714638582
C   C163      1.0  0.86730  0.10700  0.49390  1.0000 0.0714638582
C   C164      1.0  0.63270  0.89300  0.99390  1.0000 0.0714638582
C   C165      1.0  0.70090  0.61400  0.01810  1.0000 -0.1493259348
C   C166      1.0  0.79910  0.38600  0.51810  1.0000 -0.1493259348
C   C167      1.0  0.79910  0.11400  0.51810  1.0000 -0.1493259348
C   C168      1.0  0.70090  0.88600  0.01810  1.0000 -0.1493259348
C   C169      1.0  0.76810  0.63160  0.99200  1.0000 -0.0986006745
C   C170      1.0  0.73190  0.36840  0.49200  1.0000 -0.0986006745
C   C171      1.0  0.73190  0.13160  0.49200  1.0000 -0.0986006745
C   C172      1.0  0.76810  0.86840  0.99200  1.0000 -0.0986006745
C   C173      1.0  0.76660  0.64150  0.93900  1.0000 -0.0259905826
C   C174      1.0  0.73340  0.35850  0.43900  1.0000 -0.0259905826
C   C175      1.0  0.73340  0.14150  0.43900  1.0000 -0.0259905826
C   C176      1.0  0.76660  0.85850  0.93900  1.0000 -0.0259905826
C   C177      1.0  0.69550  0.63200  0.91170  1.0000 -0.0986006745
C   C178      1.0  0.80450  0.36800  0.41170  1.0000 -0.0986006745
C   C179      1.0  0.80450  0.13200  0.41170  1.0000 -0.0986006745
C   C180      1.0  0.69550  0.86800  0.91170  1.0000 -0.0986006745
C   C181      1.0  0.62930  0.61360  0.93880  1.0000 -0.16721608
C   C182      1.0  0.87070  0.38640  0.43880  1.0000 -0.16721608
C   C183      1.0  0.87070  0.11360  0.43880  1.0000 -0.16721608
C   C184      1.0  0.62930  0.88640  0.93880  1.0000 -0.16721608
C   C185      1.0  0.83790  0.66170  0.90840  1.0000 0.5834664166
C   C186      1.0  0.66210  0.33830  0.40840  1.0000 0.5834664166
C   C187      1.0  0.66210  0.16170  0.40840  1.0000 0.5834664166
C   C188      1.0  0.83790  0.83830  0.90840  1.0000 0.5834664166
C   C189      1.0  0.33840  0.59230  0.01110  1.0000 0.0798102211
C   C190      1.0  0.16160  0.40770  0.51110  1.0000 0.0798102211
C   C191      1.0  0.16160  0.09230  0.51110  1.0000 0.0798102211
C   C192      1.0  0.33840  0.90770  0.01110  1.0000 0.0798102211
C   C193      1.0  0.32040  0.64170  0.98300  1.0000 -0.1493259348
C   C194      1.0  0.17960  0.35830  0.48300  1.0000 -0.1493259348
C   C195      1.0  0.17960  0.14170  0.48300  1.0000 -0.1493259348
C   C196      1.0  0.32040  0.85830  0.98300  1.0000 -0.1493259348
C   C197      1.0  0.23980  0.64850  0.95870  1.0000 -0.0986006745
C   C198      1.0  0.26020  0.35150  0.45870  1.0000 -0.0986006745
C   C199      1.0  0.26020  0.14850  0.45870  1.0000 -0.0986006745
C   C200      1.0  0.23980  0.85150  0.95870  1.0000 -0.0986006745
C   C201      1.0  0.18920  0.60210  0.96550  1.0000 -0.0229858369
C   C202      1.0  0.31080  0.39790  0.46550  1.0000 -0.0229858369
C   C203      1.0  0.31080  0.10210  0.46550  1.0000 -0.0229858369
C   C204      1.0  0.18920  0.89790  0.96550  1.0000 -0.0229858369
C   C205      1.0  0.20990  0.54990  0.99000  1.0000 -0.1303793505
C   C206      1.0  0.29010  0.45010  0.49000  1.0000 -0.1303793505
C   C207      1.0  0.29010  0.04990  0.49000  1.0000 -0.1303793505
C   C208      1.0  0.20990  0.95010  0.99000  1.0000 -0.1303793505
C   C209      1.0  0.28260  0.54390  0.01230  1.0000 -0.1589773171
C   C210      1.0  0.21740  0.45610  0.51230  1.0000 -0.1589773171
C   C211      1.0  0.21740  0.04390  0.51230  1.0000 -0.1589773171
C   C212      1.0  0.28260  0.95610  0.01230  1.0000 -0.1589773171
C   C213      1.0  0.10620  0.60620  0.93880  1.0000 0.5229048988
C   C214      1.0  0.39380  0.39380  0.43880  1.0000 0.5229048988
C   C215      1.0  0.39380  0.10620  0.43880  1.0000 0.5229048988
C   C216      1.0  0.10620  0.89380  0.93880  1.0000 0.5229048988
O   O1        1.0  0.07240  0.18120  0.23000  1.0000 -0.5308967546
O   O2        1.0  0.42760  0.81880  0.73000  1.0000 -0.5308967546
O   O3        1.0  0.42760  0.68120  0.73000  1.0000 -0.5308967546
O   O4        1.0  0.07240  0.31880  0.23000  1.0000 -0.5308967546
O   O5        1.0  0.00570  0.11460  0.17810  1.0000 -0.5682760418
O   O6        1.0  0.49430  0.88540  0.67810  1.0000 -0.5682760418
O   O7        1.0  0.49430  0.61460  0.67810  1.0000 -0.5682760418
O   O8        1.0  0.00570  0.38540  0.17810  1.0000 -0.5682760418
O   O9        1.0  0.40290  0.84750  0.56910  1.0000 -0.5577584669
O   O10       1.0  0.09710  0.15250  0.06910  1.0000 -0.5577584669
O   O11       1.0  0.09710  0.34750  0.06910  1.0000 -0.5577584669
O   O12       1.0  0.40290  0.65250  0.56910  1.0000 -0.5577584669
O   O13       1.0  0.32910  0.81760  0.63640  1.0000 -0.535701865
O   O14       1.0  0.17090  0.18240  0.13640  1.0000 -0.535701865
O   O15       1.0  0.17090  0.31760  0.13640  1.0000 -0.535701865
O   O16       1.0  0.32910  0.68240  0.63640  1.0000 -0.535701865
O   O17       1.0  0.59320  0.84440  0.57820  1.0000 -0.4020278804
O   O18       1.0  0.90680  0.15560  0.07820  1.0000 -0.4020278804
O   O19       1.0  0.90680  0.34440  0.07820  1.0000 -0.4020278804
O   O20       1.0  0.59320  0.65560  0.57820  1.0000 -0.4020278804
O   O21       1.0  0.56110  0.93610  0.56100  1.0000 -0.3392773509
O   O22       1.0  0.93890  0.06390  0.06100  1.0000 -0.3392773509
O   O23       1.0  0.93890  0.43610  0.06100  1.0000 -0.3392773509
O   O24       1.0  0.56110  0.56390  0.56100  1.0000 -0.3392773509
O   O25       1.0  0.01320  0.25000  0.14150  1.0000 -0.9001945794
O   O26       1.0  0.48680  0.75000  0.64150  1.0000 -0.9001945794
O   O27       1.0  0.57240  0.31880  0.27000  1.0000 -0.5308967546
O   O28       1.0  0.92760  0.68120  0.77000  1.0000 -0.5308967546
O   O29       1.0  0.92760  0.81880  0.77000  1.0000 -0.5308967546
O   O30       1.0  0.57240  0.18120  0.27000  1.0000 -0.5308967546
O   O31       1.0  0.50570  0.38540  0.32190  1.0000 -0.5682760418
O   O32       1.0  0.99430  0.61460  0.82190  1.0000 -0.5682760418
O   O33       1.0  0.99430  0.88540  0.82190  1.0000 -0.5682760418
O   O34       1.0  0.50570  0.11460  0.32190  1.0000 -0.5682760418
O   O35       1.0  0.90290  0.65250  0.93090  1.0000 -0.5577584669
O   O36       1.0  0.59710  0.34750  0.43090  1.0000 -0.5577584669
O   O37       1.0  0.59710  0.15250  0.43090  1.0000 -0.5577584669
O   O38       1.0  0.90290  0.84750  0.93090  1.0000 -0.5577584669
O   O39       1.0  0.82910  0.68240  0.86360  1.0000 -0.535701865
O   O40       1.0  0.67090  0.31760  0.36360  1.0000 -0.535701865
O   O41       1.0  0.67090  0.18240  0.36360  1.0000 -0.535701865
O   O42       1.0  0.82910  0.81760  0.86360  1.0000 -0.535701865
O   O43       1.0  0.09320  0.65560  0.92180  1.0000 -0.4020278804
O   O44       1.0  0.40680  0.34440  0.42180  1.0000 -0.4020278804
O   O45       1.0  0.40680  0.15560  0.42180  1.0000 -0.4020278804
O   O46       1.0  0.09320  0.84440  0.92180  1.0000 -0.4020278804
O   O47       1.0  0.06110  0.56390  0.93900  1.0000 -0.3392773509
O   O48       1.0  0.43890  0.43610  0.43900  1.0000 -0.3392773509
O   O49       1.0  0.43890  0.06390  0.43900  1.0000 -0.3392773509
O   O50       1.0  0.06110  0.93610  0.93900  1.0000 -0.3392773509
O   O51       1.0  0.51320  0.25000  0.35850  1.0000 -0.9001945794
O   O52       1.0  0.98680  0.75000  0.85850  1.0000 -0.9001945794
