# DDEC6 charges by PACMAN v1.1 (https://github.com/mtap-research/PACMAN-charge/)
data_2001[Cu][nan]3[ASR]4
_chemical_formula_sum              "Cu12 H160 C180 N36 O32"
_cell_length_a       22.6601
_cell_length_b       22.6601
_cell_length_c       16.642
_cell_angle_alpha    89.3531
_cell_angle_beta     90.6469
_cell_angle_gamma    128.904

_symmetry_space_group_name_H-M    "P 1"
_symmetry_Int_Tables_number       1

loop_
  _symmetry_equiv_pos_as_xyz
  'x, y, z'

loop_
  _atom_site_type_symbol
  _atom_site_label
  _atom_site_symmetry_multiplicity
  _atom_site_fract_x
  _atom_site_fract_y
  _atom_site_fract_z
  _atom_site_occupancy
  _atom_site_charge
Cu  Cu1       1.0  0.67655  0.90183  0.14236  1.0000 0.3221075041
Cu  Cu2       1.0  0.09817  0.32345  0.64236  1.0000 0.3221075041
Cu  Cu3       1.0  0.32345  0.09817  0.85764  1.0000 0.3221075041
Cu  Cu4       1.0  0.90183  0.67655  0.35764  1.0000 0.3262788258
Cu  Cu5       1.0  0.63986  0.90990  0.62019  1.0000 0.6586165406
Cu  Cu6       1.0  0.09010  0.36014  0.12019  1.0000 0.6586165406
Cu  Cu7       1.0  0.36014  0.09010  0.37981  1.0000 0.6586165406
Cu  Cu8       1.0  0.90990  0.63986  0.87981  1.0000 0.6586165406
Cu  Cu9       1.0  0.83672  0.09518  0.40258  1.0000 0.6586165406
Cu  Cu10      1.0  0.90482  0.16328  0.90258  1.0000 0.6586165406
Cu  Cu11      1.0  0.16328  0.90482  0.59742  1.0000 0.6586165406
Cu  Cu12      1.0  0.09518  0.83672  0.09742  1.0000 0.6586165406
H   H1        1.0  0.51080  0.15800  0.29840  1.0000 0.0999666891
H   H2        1.0  0.84200  0.48920  0.79840  1.0000 0.0999666891
H   H3        1.0  0.48920  0.84200  0.70160  1.0000 0.0999666891
H   H4        1.0  0.15800  0.51080  0.20160  1.0000 0.0999666891
H   H5        1.0  0.57590  0.11990  0.25020  1.0000 0.1303664181
H   H6        1.0  0.88010  0.42410  0.75020  1.0000 0.1303664181
H   H7        1.0  0.42410  0.88010  0.74980  1.0000 0.1303664181
H   H8        1.0  0.11990  0.57590  0.24980  1.0000 0.1303664181
H   H9        1.0  0.40260  0.90720  0.31390  1.0000 0.1303664181
H   H10       1.0  0.09280  0.59740  0.81390  1.0000 0.1303664181
H   H11       1.0  0.59740  0.09280  0.68610  1.0000 0.1303664181
H   H12       1.0  0.90720  0.40260  0.18610  1.0000 0.1303664181
H   H13       1.0  0.34180  0.95240  0.35970  1.0000 0.1196114041
H   H14       1.0  0.04760  0.65820  0.85970  1.0000 0.1196114041
H   H15       1.0  0.65820  0.04760  0.64030  1.0000 0.1196114041
H   H16       1.0  0.95240  0.34180  0.14030  1.0000 0.1196114041
H   H17       1.0  0.67470  0.03010  0.12740  1.0000 0.1196114041
H   H18       1.0  0.96990  0.32530  0.62740  1.0000 0.1196114041
H   H19       1.0  0.32530  0.96990  0.87260  1.0000 0.1196114041
H   H20       1.0  0.03010  0.67470  0.37260  1.0000 0.1196114041
H   H21       1.0  0.61090  0.07170  0.17050  1.0000 0.1373991888
H   H22       1.0  0.92830  0.38910  0.67050  1.0000 0.1373991888
H   H23       1.0  0.38910  0.92830  0.82950  1.0000 0.1373991888
H   H24       1.0  0.07170  0.61090  0.32950  1.0000 0.1373991888
H   H25       1.0  0.48470  0.88490  0.30980  1.0000 0.1303664181
H   H26       1.0  0.11510  0.51530  0.80980  1.0000 0.1303664181
H   H27       1.0  0.51530  0.11510  0.69020  1.0000 0.1303664181
H   H28       1.0  0.88490  0.48470  0.19020  1.0000 0.1303664181
H   H29       1.0  0.55060  0.84880  0.25930  1.0000 0.0999666891
H   H30       1.0  0.15120  0.44940  0.75930  1.0000 0.0999666891
H   H31       1.0  0.44940  0.15120  0.74070  1.0000 0.0999666891
H   H32       1.0  0.84880  0.55060  0.24070  1.0000 0.0999666891
H   H33       1.0  0.23092  0.43572  0.20670  1.0000 0.1102156814
H   H34       1.0  0.56428  0.76908  0.70670  1.0000 0.1102156814
H   H35       1.0  0.76908  0.56428  0.79330  1.0000 0.1102156814
H   H36       1.0  0.43572  0.23092  0.29330  1.0000 0.1102156814
H   H37       1.0  0.35470  0.54410  0.21010  1.0000 0.1373991888
H   H38       1.0  0.45590  0.64530  0.71010  1.0000 0.1373991888
H   H39       1.0  0.64530  0.45590  0.78990  1.0000 0.1373991888
H   H40       1.0  0.54410  0.35470  0.28990  1.0000 0.1373991888
H   H41       1.0  0.31470  0.60750  0.00420  1.0000 0.1303664181
H   H42       1.0  0.39250  0.68530  0.50420  1.0000 0.1303664181
H   H43       1.0  0.68530  0.39250  0.99580  1.0000 0.1303664181
H   H44       1.0  0.60750  0.31470  0.49580  1.0000 0.1303664181
H   H45       1.0  0.19240  0.49840  0.00770  1.0000 0.1102156814
H   H46       1.0  0.50160  0.80760  0.50770  1.0000 0.1102156814
H   H47       1.0  0.80760  0.50160  0.99230  1.0000 0.1102156814
H   H48       1.0  0.49840  0.19240  0.49230  1.0000 0.1102156814
H   H49       1.0  0.59800  0.73760  0.17370  1.0000 0.0999666891
H   H50       1.0  0.26240  0.40200  0.67370  1.0000 0.0999666891
H   H51       1.0  0.40200  0.26240  0.82630  1.0000 0.0999666891
H   H52       1.0  0.73760  0.59800  0.32630  1.0000 0.0999666891
H   H53       1.0  0.47600  0.62380  0.16880  1.0000 0.1303664181
H   H54       1.0  0.37620  0.52400  0.66880  1.0000 0.1303664181
H   H55       1.0  0.52400  0.37620  0.83120  1.0000 0.1303664181
H   H56       1.0  0.62380  0.47600  0.33120  1.0000 0.1303664181
H   H57       1.0  0.40980  0.72720  0.04770  1.0000 0.1303664181
H   H58       1.0  0.27280  0.59020  0.54770  1.0000 0.1303664181
H   H59       1.0  0.59020  0.27280  0.95230  1.0000 0.1303664181
H   H60       1.0  0.72720  0.40980  0.45230  1.0000 0.1303664181
H   H61       1.0  0.53020  0.83740  0.05650  1.0000 0.0999666891
H   H62       1.0  0.16260  0.46980  0.55650  1.0000 0.0999666891
H   H63       1.0  0.46980  0.16260  0.94350  1.0000 0.0999666891
H   H64       1.0  0.83740  0.53020  0.44350  1.0000 0.0999666891
H   H65       1.0  0.84080  0.63880  0.02470  1.0000 0.0999666891
H   H66       1.0  0.36120  0.15920  0.52470  1.0000 0.0999666891
H   H67       1.0  0.15920  0.36120  0.97530  1.0000 0.0999666891
H   H68       1.0  0.63880  0.84080  0.47530  1.0000 0.0999666891
H   H69       1.0  0.79700  0.69800  0.08390  1.0000 0.1303664181
H   H70       1.0  0.30200  0.20300  0.58390  1.0000 0.1303664181
H   H71       1.0  0.20300  0.30200  0.91610  1.0000 0.1303664181
H   H72       1.0  0.69800  0.79700  0.41610  1.0000 0.1303664181
H   H73       1.0  0.87350  0.83570  0.89200  1.0000 0.1303664181
H   H74       1.0  0.16430  0.12650  0.39200  1.0000 0.1303664181
H   H75       1.0  0.12650  0.16430  0.10800  1.0000 0.1303664181
H   H76       1.0  0.83570  0.87350  0.60800  1.0000 0.1303664181
H   H77       1.0  0.91560  0.77400  0.84160  1.0000 0.1102156814
H   H78       1.0  0.22600  0.08440  0.34160  1.0000 0.1102156814
H   H79       1.0  0.08440  0.22600  0.15840  1.0000 0.1102156814
H   H80       1.0  0.77400  0.91560  0.65840  1.0000 0.1102156814
H   H81       1.0  0.92970  0.11390  0.53800  1.0000 0.1196114041
H   H82       1.0  0.88610  0.07030  0.03800  1.0000 0.1196114041
H   H83       1.0  0.07030  0.88610  0.46200  1.0000 0.1196114041
H   H84       1.0  0.11390  0.92970  0.96200  1.0000 0.1196114041
H   H85       1.0  0.99090  0.07030  0.58610  1.0000 0.1303664181
H   H86       1.0  0.92970  0.00910  0.08610  1.0000 0.1303664181
H   H87       1.0  0.00910  0.92970  0.41390  1.0000 0.1303664181
H   H88       1.0  0.07030  0.99090  0.91390  1.0000 0.1303664181
H   H89       1.0  0.95190  0.97030  0.37540  1.0000 0.1196114041
H   H90       1.0  0.02970  0.04810  0.87540  1.0000 0.1196114041
H   H91       1.0  0.04810  0.02970  0.62460  1.0000 0.1196114041
H   H92       1.0  0.97030  0.95190  0.12460  1.0000 0.1196114041
H   H93       1.0  0.88780  0.01080  0.33770  1.0000 0.0999666891
H   H94       1.0  0.98920  0.11220  0.83770  1.0000 0.0999666891
H   H95       1.0  0.11220  0.98920  0.66230  1.0000 0.0999666891
H   H96       1.0  0.01080  0.88780  0.16230  1.0000 0.0999666891
H   H97       1.0  0.75990  0.84590  0.19800  1.0000 0.0999666891
H   H98       1.0  0.15410  0.24010  0.69800  1.0000 0.0999666891
H   H99       1.0  0.24010  0.15410  0.80200  1.0000 0.0999666891
H   H100      1.0  0.84590  0.75990  0.30200  1.0000 0.0999666891
H   H101      1.0  0.81510  0.79790  0.14690  1.0000 0.1196114041
H   H102      1.0  0.20210  0.18490  0.64690  1.0000 0.1196114041
H   H103      1.0  0.18490  0.20210  0.85310  1.0000 0.1196114041
H   H104      1.0  0.79790  0.81510  0.35310  1.0000 0.1196114041
H   H105      1.0  0.77070  0.83250  0.92670  1.0000 0.1373991888
H   H106      1.0  0.16750  0.22930  0.42670  1.0000 0.1373991888
H   H107      1.0  0.22930  0.16750  0.07330  1.0000 0.1373991888
H   H108      1.0  0.83250  0.77070  0.57330  1.0000 0.1373991888
H   H109      1.0  0.71470  0.87590  0.98380  1.0000 0.1102156814
H   H110      1.0  0.12410  0.28530  0.48380  1.0000 0.1102156814
H   H111      1.0  0.28530  0.12410  0.01620  1.0000 0.1102156814
H   H112      1.0  0.87590  0.71470  0.51620  1.0000 0.1102156814
H   H113      1.0  0.87520  0.22680  0.23520  1.0000 0.1196114041
H   H114      1.0  0.77320  0.12480  0.73520  1.0000 0.1196114041
H   H115      1.0  0.12480  0.77320  0.76480  1.0000 0.1196114041
H   H116      1.0  0.22680  0.87520  0.26480  1.0000 0.1196114041
H   H117      1.0  0.89200  0.24800  0.32670  1.0000 0.1102156814
H   H118      1.0  0.75200  0.10800  0.82670  1.0000 0.1102156814
H   H119      1.0  0.10800  0.75200  0.67330  1.0000 0.1102156814
H   H120      1.0  0.24800  0.89200  0.17330  1.0000 0.1102156814
H   H121      1.0  0.75560  0.11500  0.26580  1.0000 0.1102156814
H   H122      1.0  0.88500  0.24440  0.76580  1.0000 0.1102156814
H   H123      1.0  0.24440  0.88500  0.73420  1.0000 0.1102156814
H   H124      1.0  0.11500  0.75560  0.23420  1.0000 0.1102156814
H   H125      1.0  0.76390  0.18390  0.30110  1.0000 0.1196114041
H   H126      1.0  0.81610  0.23610  0.80110  1.0000 0.1196114041
H   H127      1.0  0.23610  0.81610  0.69890  1.0000 0.1196114041
H   H128      1.0  0.18390  0.76390  0.19890  1.0000 0.1196114041
H   H129      1.0  0.65510  0.05930  0.41040  1.0000 0.1303664181
H   H130      1.0  0.94070  0.34490  0.91040  1.0000 0.1303664181
H   H131      1.0  0.34490  0.94070  0.58960  1.0000 0.1303664181
H   H132      1.0  0.05930  0.65510  0.08960  1.0000 0.1303664181
H   H133      1.0  0.67290  0.02010  0.34880  1.0000 0.1303664181
H   H134      1.0  0.97990  0.32710  0.84880  1.0000 0.1303664181
H   H135      1.0  0.32710  0.97990  0.65120  1.0000 0.1303664181
H   H136      1.0  0.02010  0.67290  0.15120  1.0000 0.1303664181
H   H137      1.0  0.73820  0.15180  0.48540  1.0000 0.1303664181
H   H138      1.0  0.84820  0.26180  0.98540  1.0000 0.1303664181
H   H139      1.0  0.26180  0.84820  0.51460  1.0000 0.1303664181
H   H140      1.0  0.15180  0.73820  0.01460  1.0000 0.1303664181
H   H141      1.0  0.79100  0.22000  0.42650  1.0000 0.1196114041
H   H142      1.0  0.78000  0.20900  0.92650  1.0000 0.1196114041
H   H143      1.0  0.20900  0.78000  0.57350  1.0000 0.1196114041
H   H144      1.0  0.22000  0.79100  0.07350  1.0000 0.1196114041
H   H145      1.0  0.98530  0.24130  0.36330  1.0000 0.1373991888
H   H146      1.0  0.75870  0.01470  0.86330  1.0000 0.1373991888
H   H147      1.0  0.01470  0.75870  0.63670  1.0000 0.1373991888
H   H148      1.0  0.24130  0.98530  0.13670  1.0000 0.1373991888
H   H149      1.0  0.99350  0.18510  0.32300  1.0000 0.1196114041
H   H150      1.0  0.81490  0.00650  0.82300  1.0000 0.1196114041
H   H151      1.0  0.00650  0.81490  0.67700  1.0000 0.1196114041
H   H152      1.0  0.18510  0.99350  0.17700  1.0000 0.1196114041
H   H153      1.0  0.87390  0.13990  0.17860  1.0000 0.1472331487
H   H154      1.0  0.86010  0.12610  0.67860  1.0000 0.1472331487
H   H155      1.0  0.12610  0.86010  0.82140  1.0000 0.1472331487
H   H156      1.0  0.13990  0.87390  0.32140  1.0000 0.1472331487
H   H157      1.0  0.91710  0.11290  0.21610  1.0000 0.1196114041
H   H158      1.0  0.88710  0.08290  0.71610  1.0000 0.1196114041
H   H159      1.0  0.08290  0.88710  0.78390  1.0000 0.1196114041
H   H160      1.0  0.11290  0.91710  0.28390  1.0000 0.1196114041
C   C1        1.0  0.48870  0.10690  0.30150  1.0000 0.0697748657
C   C2        1.0  0.89310  0.51130  0.80150  1.0000 0.0697748657
C   C3        1.0  0.51130  0.89310  0.69850  1.0000 0.0697748657
C   C4        1.0  0.10690  0.48870  0.19850  1.0000 0.0697748657
C   C5        1.0  0.52810  0.08430  0.27230  1.0000 -0.2089058495
C   C6        1.0  0.91570  0.47190  0.77230  1.0000 -0.2089058495
C   C7        1.0  0.47190  0.91570  0.72770  1.0000 -0.2089058495
C   C8        1.0  0.08430  0.52810  0.22770  1.0000 -0.2089058495
C   C9        1.0  0.49719  0.00921  0.27570  1.0000 0.0999666891
C   C10       1.0  0.99079  0.50281  0.77570  1.0000 0.0999666891
C   C11       1.0  0.50281  0.99079  0.72430  1.0000 0.0999666891
C   C12       1.0  0.00921  0.49719  0.22430  1.0000 0.0999666891
C   C13       1.0  0.42586  0.95854  0.30980  1.0000 -0.2009795275
C   C14       1.0  0.04146  0.57414  0.80980  1.0000 -0.2009795275
C   C15       1.0  0.57414  0.04146  0.69020  1.0000 -0.2009795275
C   C16       1.0  0.95854  0.42586  0.19020  1.0000 -0.2009795275
C   C17       1.0  0.38990  0.98650  0.33750  1.0000 0.0918781903
C   C18       1.0  0.01350  0.61010  0.83750  1.0000 0.0918781903
C   C19       1.0  0.61010  0.01350  0.66250  1.0000 0.0918781903
C   C20       1.0  0.98650  0.38990  0.16250  1.0000 0.0918781903
C   C21       1.0  0.63539  0.00041  0.16400  1.0000 0.0918781903
C   C22       1.0  0.99959  0.36461  0.66400  1.0000 0.0918781903
C   C23       1.0  0.36461  0.99959  0.83600  1.0000 0.0918781903
C   C24       1.0  0.00041  0.63539  0.33600  1.0000 0.0918781903
C   C25       1.0  0.59736  0.02584  0.18950  1.0000 -0.1901685531
C   C26       1.0  0.97416  0.40264  0.68950  1.0000 -0.1901685531
C   C27       1.0  0.40264  0.97416  0.81050  1.0000 -0.1901685531
C   C28       1.0  0.02584  0.59736  0.31050  1.0000 -0.1901685531
C   C29       1.0  0.53790  0.98190  0.24440  1.0000 0.1102156814
C   C30       1.0  0.01810  0.46210  0.74440  1.0000 0.1102156814
C   C31       1.0  0.46210  0.01810  0.75560  1.0000 0.1102156814
C   C32       1.0  0.98190  0.53790  0.25560  1.0000 0.1102156814
C   C33       1.0  0.52230  0.91510  0.27170  1.0000 -0.2009795275
C   C34       1.0  0.08490  0.47770  0.77170  1.0000 -0.2009795275
C   C35       1.0  0.47770  0.08490  0.72830  1.0000 -0.2009795275
C   C36       1.0  0.91510  0.52230  0.22830  1.0000 -0.2009795275
C   C37       1.0  0.56277  0.89443  0.24190  1.0000 0.0499394074
C   C38       1.0  0.10557  0.43723  0.74190  1.0000 0.0499394074
C   C39       1.0  0.43723  0.10557  0.75810  1.0000 0.0499394074
C   C40       1.0  0.89443  0.56277  0.25810  1.0000 0.0499394074
C   C41       1.0  0.24830  0.47110  0.16560  1.0000 0.0775415987
C   C42       1.0  0.52890  0.75170  0.66560  1.0000 0.0775415987
C   C43       1.0  0.75170  0.52890  0.83440  1.0000 0.0775415987
C   C44       1.0  0.47110  0.24830  0.33440  1.0000 0.0775415987
C   C45       1.0  0.32290  0.53610  0.16830  1.0000 -0.2009795275
C   C46       1.0  0.46390  0.67710  0.66830  1.0000 -0.2009795275
C   C47       1.0  0.67710  0.46390  0.83170  1.0000 -0.2009795275
C   C48       1.0  0.53610  0.32290  0.33170  1.0000 -0.2009795275
C   C49       1.0  0.34971  0.58969  0.10730  1.0000 0.0999666891
C   C50       1.0  0.41031  0.65029  0.60730  1.0000 0.0999666891
C   C51       1.0  0.65029  0.41031  0.89270  1.0000 0.0999666891
C   C52       1.0  0.58969  0.34971  0.39270  1.0000 0.0999666891
C   C53       1.0  0.29880  0.57340  0.04650  1.0000 -0.1901685531
C   C54       1.0  0.42660  0.70120  0.54650  1.0000 -0.1901685531
C   C55       1.0  0.70120  0.42660  0.95350  1.0000 -0.1901685531
C   C56       1.0  0.57340  0.29880  0.45350  1.0000 -0.1901685531
C   C57       1.0  0.22580  0.50800  0.04850  1.0000 0.0328727868
C   C58       1.0  0.49200  0.77420  0.54850  1.0000 0.0328727868
C   C59       1.0  0.77420  0.49200  0.95150  1.0000 0.0328727868
C   C60       1.0  0.50800  0.22580  0.45150  1.0000 0.0328727868
C   C61       1.0  0.55950  0.73550  0.14960  1.0000 0.0415155115
C   C62       1.0  0.26450  0.44050  0.64960  1.0000 0.0415155115
C   C63       1.0  0.44050  0.26450  0.85040  1.0000 0.0499394074
C   C64       1.0  0.73550  0.55950  0.35040  1.0000 0.0415155115
C   C65       1.0  0.48590  0.66667  0.14580  1.0000 -0.1901685531
C   C66       1.0  0.33333  0.51410  0.64580  1.0000 -0.1901685531
C   C67       1.0  0.51410  0.33333  0.85420  1.0000 -0.1901685531
C   C68       1.0  0.66667  0.48590  0.35420  1.0000 -0.1901685531
C   C69       1.0  0.42804  0.66076  0.10920  1.0000 0.0918781903
C   C70       1.0  0.33924  0.57196  0.60920  1.0000 0.0918781903
C   C71       1.0  0.57196  0.33924  0.89080  1.0000 0.0918781903
C   C72       1.0  0.66076  0.42804  0.39080  1.0000 0.0918781903
C   C73       1.0  0.44670  0.72810  0.07420  1.0000 -0.2009795275
C   C74       1.0  0.27190  0.55330  0.57420  1.0000 -0.2009795275
C   C75       1.0  0.55330  0.27190  0.92580  1.0000 -0.2009795275
C   C76       1.0  0.72810  0.44670  0.42580  1.0000 -0.2009795275
C   C77       1.0  0.51880  0.79380  0.08000  1.0000 0.0499394074
C   C78       1.0  0.20620  0.48120  0.58000  1.0000 0.055217465
C   C79       1.0  0.48120  0.20620  0.92000  1.0000 0.055217465
C   C80       1.0  0.79380  0.51880  0.42000  1.0000 0.0499394074
C   C81       1.0  0.84705  0.67855  0.99780  1.0000 0.0999666891
C   C82       1.0  0.32145  0.15295  0.49780  1.0000 0.0999666891
C   C83       1.0  0.15295  0.32145  0.00220  1.0000 0.0999666891
C   C84       1.0  0.67855  0.84705  0.50220  1.0000 0.0999666891
C   C85       1.0  0.82060  0.71460  0.03410  1.0000 -0.2009795275
C   C86       1.0  0.28540  0.17940  0.53410  1.0000 -0.2009795275
C   C87       1.0  0.17940  0.28540  0.96590  1.0000 -0.2009795275
C   C88       1.0  0.71460  0.82060  0.46590  1.0000 -0.2009795275
C   C89       1.0  0.82980  0.77280  0.99600  1.0000 0.0999666891
C   C90       1.0  0.22720  0.17020  0.49600  1.0000 0.0999666891
C   C91       1.0  0.17020  0.22720  0.00400  1.0000 0.0999666891
C   C92       1.0  0.77280  0.82980  0.50400  1.0000 0.0999666891
C   C93       1.0  0.86610  0.79610  0.92060  1.0000 -0.2089058495
C   C94       1.0  0.20390  0.13390  0.42060  1.0000 -0.2089058495
C   C95       1.0  0.13390  0.20390  0.07940  1.0000 -0.2089058495
C   C96       1.0  0.79610  0.86610  0.57940  1.0000 -0.2089058495
C   C97       1.0  0.89050  0.75790  0.89060  1.0000 0.0918781903
C   C98       1.0  0.24210  0.10950  0.39060  1.0000 0.0918781903
C   C99       1.0  0.10950  0.24210  0.10940  1.0000 0.0918781903
C   C100      1.0  0.75790  0.89050  0.60940  1.0000 0.0918781903
C   C101      1.0  0.93250  0.08270  0.50540  1.0000 0.0775415987
C   C102      1.0  0.91730  0.06750  0.00540  1.0000 0.0775415987
C   C103      1.0  0.06750  0.91730  0.49460  1.0000 0.0775415987
C   C104      1.0  0.08270  0.93250  0.99460  1.0000 0.0775415987
C   C105      1.0  0.97060  0.05760  0.53430  1.0000 -0.2089058495
C   C106      1.0  0.94240  0.02940  0.03430  1.0000 -0.2089058495
C   C107      1.0  0.02940  0.94240  0.46570  1.0000 -0.2089058495
C   C108      1.0  0.05760  0.97060  0.96570  1.0000 -0.2089058495
C   C109      1.0  0.97890  0.01370  0.48650  1.0000 0.0918781903
C   C110      1.0  0.98630  0.02110  0.98650  1.0000 0.0918781903
C   C111      1.0  0.02110  0.98630  0.51350  1.0000 0.0918781903
C   C112      1.0  0.01370  0.97890  0.01350  1.0000 0.0918781903
C   C113      1.0  0.94710  0.99830  0.41120  1.0000 -0.2089058495
C   C114      1.0  0.00170  0.05290  0.91120  1.0000 -0.2089058495
C   C115      1.0  0.05290  0.00170  0.58880  1.0000 -0.2089058495
C   C116      1.0  0.99830  0.94710  0.08880  1.0000 -0.2089058495
C   C117      1.0  0.90930  0.02350  0.38890  1.0000 0.0415155115
C   C118      1.0  0.97650  0.09070  0.88890  1.0000 0.0415155115
C   C119      1.0  0.09070  0.97650  0.61110  1.0000 0.0415155115
C   C120      1.0  0.02350  0.90930  0.11110  1.0000 0.0415155115
C   C121      1.0  0.76180  0.84260  0.14260  1.0000 0.0328727868
C   C122      1.0  0.15740  0.23820  0.64260  1.0000 0.0328727868
C   C123      1.0  0.23820  0.15740  0.85740  1.0000 0.0328727868
C   C124      1.0  0.84260  0.76180  0.35740  1.0000 0.0328727868
C   C125      1.0  0.79510  0.81370  0.11190  1.0000 -0.2089058495
C   C126      1.0  0.18630  0.20490  0.61190  1.0000 -0.2089058495
C   C127      1.0  0.20490  0.18630  0.88810  1.0000 -0.2089058495
C   C128      1.0  0.81370  0.79510  0.38810  1.0000 -0.2089058495
C   C129      1.0  0.79910  0.80770  0.03090  1.0000 0.0999666891
C   C130      1.0  0.19230  0.20090  0.53090  1.0000 0.0999666891
C   C131      1.0  0.20090  0.19230  0.96910  1.0000 0.0999666891
C   C132      1.0  0.80770  0.79910  0.46910  1.0000 0.0999666891
C   C133      1.0  0.76860  0.83360  0.98240  1.0000 -0.2009795275
C   C134      1.0  0.16640  0.23140  0.48240  1.0000 -0.2009795275
C   C135      1.0  0.23140  0.16640  0.01760  1.0000 -0.2009795275
C   C136      1.0  0.83360  0.76860  0.51760  1.0000 -0.2009795275
C   C137      1.0  0.73590  0.86050  0.01740  1.0000 0.0499394074
C   C138      1.0  0.13950  0.26410  0.51740  1.0000 0.0499394074
C   C139      1.0  0.26410  0.13950  0.98260  1.0000 0.055217465
C   C140      1.0  0.86050  0.73590  0.48260  1.0000 0.0499394074
C   C141      1.0  0.86572  0.20608  0.28910  1.0000 -0.1311961956
C   C142      1.0  0.79392  0.13428  0.78910  1.0000 -0.1311961956
C   C143      1.0  0.13428  0.79392  0.71090  1.0000 -0.1311961956
C   C144      1.0  0.20608  0.86572  0.21090  1.0000 -0.1311961956
C   C145      1.0  0.78229  0.15511  0.30540  1.0000 -0.146572499
C   C146      1.0  0.84489  0.21771  0.80540  1.0000 -0.146572499
C   C147      1.0  0.21771  0.84489  0.69460  1.0000 -0.146572499
C   C148      1.0  0.15511  0.78229  0.19460  1.0000 -0.146572499
C   C149      1.0  0.69012  0.04968  0.39770  1.0000 -0.2982934364
C   C150      1.0  0.95032  0.30988  0.89770  1.0000 -0.2982934364
C   C151      1.0  0.30988  0.95032  0.60230  1.0000 -0.2982934364
C   C152      1.0  0.04968  0.69012  0.10230  1.0000 -0.2982934364
C   C153      1.0  0.69289  0.00651  0.46630  1.0000 0.5910170875
C   C154      1.0  0.99349  0.30711  0.96630  1.0000 0.5910170875
C   C155      1.0  0.30711  0.99349  0.53370  1.0000 0.5910170875
C   C156      1.0  0.00651  0.69289  0.03370  1.0000 0.5910170875
C   C157      1.0  0.78280  0.17660  0.45180  1.0000 -0.2982934364
C   C158      1.0  0.82340  0.21720  0.95180  1.0000 -0.2982934364
C   C159      1.0  0.21720  0.82340  0.54820  1.0000 -0.2982934364
C   C160      1.0  0.17660  0.78280  0.04820  1.0000 -0.2982934364
C   C161      1.0  0.85000  0.20440  0.50440  1.0000 0.5910170875
C   C162      1.0  0.79560  0.15000  0.00440  1.0000 0.5910170875
C   C163      1.0  0.15000  0.79560  0.49560  1.0000 0.5910170875
C   C164      1.0  0.20440  0.85000  0.99560  1.0000 0.5910170875
C   C165      1.0  0.97743  0.21537  0.31350  1.0000 -0.2802087762
C   C166      1.0  0.78463  0.02257  0.81350  1.0000 -0.2802087762
C   C167      1.0  0.02257  0.78463  0.68650  1.0000 -0.2802087762
C   C168      1.0  0.21537  0.97743  0.18650  1.0000 -0.2802087762
C   C169      1.0  0.03063  0.27557  0.25150  1.0000 0.5589634828
C   C170      1.0  0.72443  0.96937  0.75150  1.0000 0.5589634828
C   C171      1.0  0.96937  0.72443  0.74850  1.0000 0.5589634828
C   C172      1.0  0.27557  0.03063  0.24850  1.0000 0.5589634828
C   C173      1.0  0.87640  0.11540  0.22510  1.0000 -0.2802087762
C   C174      1.0  0.88460  0.12360  0.72510  1.0000 -0.2802087762
C   C175      1.0  0.12360  0.88460  0.77490  1.0000 -0.2802087762
C   C176      1.0  0.11540  0.87640  0.27490  1.0000 -0.2802087762
C   C177      1.0  0.80186  0.03494  0.23170  1.0000 0.5821912042
C   C178      1.0  0.96506  0.19814  0.73170  1.0000 0.5821912042
C   C179      1.0  0.19814  0.96506  0.76830  1.0000 0.5821912042
C   C180      1.0  0.03494  0.80186  0.26830  1.0000 0.5821912042
N   N1        1.0  0.42027  0.05873  0.33400  1.0000 -0.2089058495
N   N2        1.0  0.94127  0.57973  0.83400  1.0000 -0.2089058495
N   N3        1.0  0.57973  0.94127  0.66600  1.0000 -0.2089058495
N   N4        1.0  0.05873  0.42027  0.16600  1.0000 -0.2089058495
N   N5        1.0  0.61900  0.93640  0.18880  1.0000 -0.2089058495
N   N6        1.0  0.06360  0.38100  0.68880  1.0000 -0.2089058495
N   N7        1.0  0.38100  0.06360  0.81120  1.0000 -0.2089058495
N   N8        1.0  0.93640  0.61900  0.31120  1.0000 -0.2089058495
N   N9        1.0  0.20051  0.45629  0.10860  1.0000 -0.2354177184
N   N10       1.0  0.54371  0.79949  0.60860  1.0000 -0.2306132414
N   N11       1.0  0.79949  0.54371  0.89140  1.0000 -0.2306132414
N   N12       1.0  0.45629  0.20051  0.39140  1.0000 -0.2354177184
N   N13       1.0  0.57471  0.79929  0.11780  1.0000 -0.2241800674
N   N14       1.0  0.20071  0.42529  0.61780  1.0000 -0.2241800674
N   N15       1.0  0.42529  0.20071  0.88220  1.0000 -0.2306132414
N   N16       1.0  0.79929  0.57471  0.38220  1.0000 -0.2306132414
N   N17       1.0  0.88018  0.70022  0.92710  1.0000 -0.2089058495
N   N18       1.0  0.29978  0.11982  0.42710  1.0000 -0.2089058495
N   N19       1.0  0.11982  0.29978  0.07290  1.0000 -0.2089058495
N   N20       1.0  0.70022  0.88018  0.57290  1.0000 -0.2089058495
N   N21       1.0  0.89996  0.06484  0.43400  1.0000 -0.2009795275
N   N22       1.0  0.93516  0.10004  0.93400  1.0000 -0.2009795275
N   N23       1.0  0.10004  0.93516  0.56600  1.0000 -0.2009795275
N   N24       1.0  0.06484  0.89996  0.06600  1.0000 -0.2009795275
N   N25       1.0  0.73206  0.86634  0.09580  1.0000 -0.2009795275
N   N26       1.0  0.13366  0.26794  0.59580  1.0000 -0.2009795275
N   N27       1.0  0.26794  0.13366  0.90420  1.0000 -0.2009795275
N   N28       1.0  0.86634  0.73206  0.40420  1.0000 -0.2009795275
N   N29       1.0  0.76697  0.12183  0.38670  1.0000 -0.0231205778
N   N30       1.0  0.87817  0.23303  0.88670  1.0000 -0.0231205778
N   N31       1.0  0.23303  0.87817  0.61330  1.0000 -0.0231205778
N   N32       1.0  0.12183  0.76697  0.11330  1.0000 -0.0231205778
N   N33       1.0  0.89536  0.16284  0.29740  1.0000 -0.0588043876
N   N34       1.0  0.83716  0.10464  0.79740  1.0000 -0.0588043876
N   N35       1.0  0.10464  0.83716  0.70260  1.0000 -0.0588043876
N   N36       1.0  0.16284  0.89536  0.20260  1.0000 -0.0588043876
O   O1        1.0  0.75641  0.02299  0.48150  1.0000 -0.5176198877
O   O2        1.0  0.97701  0.24359  0.98150  1.0000 -0.5176198877
O   O3        1.0  0.24359  0.97701  0.51850  1.0000 -0.5176198877
O   O4        1.0  0.02299  0.75641  0.01850  1.0000 -0.5176198877
O   O5        1.0  0.63286  0.95594  0.50300  1.0000 -0.5994803009
O   O6        1.0  0.04406  0.36714  0.00300  1.0000 -0.5994803009
O   O7        1.0  0.36714  0.04406  0.49700  1.0000 -0.5994803009
O   O8        1.0  0.95594  0.63286  0.99700  1.0000 -0.5994803009
O   O9        1.0  0.89599  0.19421  0.48400  1.0000 -0.5804844968
O   O10       1.0  0.80579  0.10401  0.98400  1.0000 -0.5804844968
O   O11       1.0  0.10401  0.80579  0.51600  1.0000 -0.5804844968
O   O12       1.0  0.19421  0.89599  0.01600  1.0000 -0.5804844968
O   O13       1.0  0.85340  0.23340  0.56880  1.0000 -0.5804844968
O   O14       1.0  0.76660  0.14660  0.06880  1.0000 -0.5804844968
O   O15       1.0  0.14660  0.76660  0.43120  1.0000 -0.5804844968
O   O16       1.0  0.23340  0.85340  0.93120  1.0000 -0.5804844968
O   O17       1.0  0.00483  0.27057  0.18170  1.0000 -0.5386014752
O   O18       1.0  0.72943  0.99517  0.68170  1.0000 -0.5386014752
O   O19       1.0  0.99517  0.72943  0.81830  1.0000 -0.5386014752
O   O20       1.0  0.27057  0.00483  0.31830  1.0000 -0.5386014752
O   O21       1.0  0.09714  0.32526  0.27050  1.0000 -0.5994803009
O   O22       1.0  0.67474  0.90286  0.77050  1.0000 -0.5994803009
O   O23       1.0  0.90286  0.67474  0.72950  1.0000 -0.5994803009
O   O24       1.0  0.32526  0.09714  0.22950  1.0000 -0.5994803009
O   O25       1.0  0.77306  0.00794  0.29940  1.0000 -0.5994803009
O   O26       1.0  0.99206  0.22694  0.79940  1.0000 -0.5994803009
O   O27       1.0  0.22694  0.99206  0.70060  1.0000 -0.5994803009
O   O28       1.0  0.00794  0.77306  0.20060  1.0000 -0.5994803009
O   O29       1.0  0.77660  0.00100  0.16570  1.0000 -0.5386014752
O   O30       1.0  0.99900  0.22340  0.66570  1.0000 -0.5386014752
O   O31       1.0  0.22340  0.99900  0.83430  1.0000 -0.5386014752
O   O32       1.0  0.00100  0.77660  0.33430  1.0000 -0.5386014752
