# DDEC6 charges by PACMAN v1.1 (https://github.com/mtap-research/PACMAN-charge/)
data_2001[Cd][lvt]3[ASR]1
_chemical_formula_sum              "Cd8 H32 C64 Cl8 O32"
_cell_length_a       18.6679
_cell_length_b       18.6679
_cell_length_c       17.8347
_cell_angle_alpha    90
_cell_angle_beta     90
_cell_angle_gamma    90

_symmetry_space_group_name_H-M    "P 1"
_symmetry_Int_Tables_number       1

loop_
  _symmetry_equiv_pos_as_xyz
  'x, y, z'

loop_
  _atom_site_type_symbol
  _atom_site_label
  _atom_site_symmetry_multiplicity
  _atom_site_fract_x
  _atom_site_fract_y
  _atom_site_fract_z
  _atom_site_occupancy
  _atom_site_charge
Cd  Cd1       1.0  0.18288  0.32283  0.75611  1.0000 0.9930605678
Cd  Cd2       1.0  0.82283  0.31712  0.25611  1.0000 0.9930605678
Cd  Cd3       1.0  0.17717  0.68288  0.25611  1.0000 0.9930605678
Cd  Cd4       1.0  0.81712  0.67717  0.75611  1.0000 0.9930605678
Cd  Cd5       1.0  0.31712  0.17717  0.74389  1.0000 0.9930605678
Cd  Cd6       1.0  0.67717  0.18288  0.24389  1.0000 0.9930605678
Cd  Cd7       1.0  0.32283  0.81712  0.24389  1.0000 0.9930605678
Cd  Cd8       1.0  0.68288  0.82283  0.74389  1.0000 0.9930605678
H   H1        1.0  0.27520  0.45470  0.54920  1.0000 0.1414962538
H   H2        1.0  0.95470  0.22480  0.04920  1.0000 0.1414962538
H   H3        1.0  0.04530  0.77520  0.04920  1.0000 0.1414962538
H   H4        1.0  0.72480  0.54530  0.54920  1.0000 0.1414962538
H   H5        1.0  0.22480  0.04530  0.95080  1.0000 0.1414962538
H   H6        1.0  0.54530  0.27520  0.45080  1.0000 0.1414962538
H   H7        1.0  0.45470  0.72480  0.45080  1.0000 0.1414962538
H   H8        1.0  0.77520  0.95470  0.95080  1.0000 0.1414962538
H   H9        1.0  0.06390  0.47730  0.56540  1.0000 0.1323671541
H   H10       1.0  0.97730  0.43610  0.06540  1.0000 0.1323671541
H   H11       1.0  0.02270  0.56390  0.06540  1.0000 0.1323671541
H   H12       1.0  0.93610  0.52270  0.56540  1.0000 0.1323671541
H   H13       1.0  0.43610  0.02270  0.93460  1.0000 0.1323671541
H   H14       1.0  0.52270  0.06390  0.43460  1.0000 0.1323671541
H   H15       1.0  0.47730  0.93610  0.43460  1.0000 0.1323671541
H   H16       1.0  0.56390  0.97730  0.93460  1.0000 0.1323671541
H   H17       1.0  0.06430  0.55050  0.46140  1.0000 0.1414962538
H   H18       1.0  0.05050  0.43570  0.96140  1.0000 0.1414962538
H   H19       1.0  0.94950  0.56430  0.96140  1.0000 0.1414962538
H   H20       1.0  0.93570  0.44950  0.46140  1.0000 0.1414962538
H   H21       1.0  0.43570  0.94950  0.03860  1.0000 0.1414962538
H   H22       1.0  0.44950  0.06430  0.53860  1.0000 0.1414962538
H   H23       1.0  0.55050  0.93570  0.53860  1.0000 0.1414962538
H   H24       1.0  0.56430  0.05050  0.03860  1.0000 0.1414962538
H   H25       1.0  0.27540  0.52240  0.44120  1.0000 0.1462024836
H   H26       1.0  0.02240  0.22460  0.94120  1.0000 0.1414962538
H   H27       1.0  0.97760  0.77540  0.94120  1.0000 0.1414962538
H   H28       1.0  0.72460  0.47760  0.44120  1.0000 0.1414962538
H   H29       1.0  0.22460  0.97760  0.05880  1.0000 0.1414962538
H   H30       1.0  0.47760  0.27540  0.55880  1.0000 0.1414962538
H   H31       1.0  0.52240  0.72460  0.55880  1.0000 0.1414962538
H   H32       1.0  0.77540  0.02240  0.05880  1.0000 0.1414962538
C   C1        1.0  0.16950  0.45950  0.56920  1.0000 0.0019370718
C   C2        1.0  0.95950  0.33050  0.06920  1.0000 0.0019370718
C   C3        1.0  0.04050  0.66950  0.06920  1.0000 0.0019370718
C   C4        1.0  0.83050  0.54050  0.56920  1.0000 0.0019370718
C   C5        1.0  0.33050  0.04050  0.93080  1.0000 0.0019370718
C   C6        1.0  0.54050  0.16950  0.43080  1.0000 0.0019370718
C   C7        1.0  0.45950  0.83050  0.43080  1.0000 0.0019370718
C   C8        1.0  0.66950  0.95950  0.93080  1.0000 0.010223382
C   C9        1.0  0.16980  0.41390  0.63870  1.0000 0.556859748
C   C10       1.0  0.91390  0.33020  0.13870  1.0000 0.556859748
C   C11       1.0  0.08610  0.66980  0.13870  1.0000 0.556859748
C   C12       1.0  0.83020  0.58610  0.63870  1.0000 0.556859748
C   C13       1.0  0.33020  0.08610  0.86130  1.0000 0.556859748
C   C14       1.0  0.58610  0.16980  0.36130  1.0000 0.556859748
C   C15       1.0  0.41390  0.83020  0.36130  1.0000 0.556859748
C   C16       1.0  0.66980  0.91390  0.86130  1.0000 0.556859748
C   C17       1.0  0.23240  0.47330  0.53110  1.0000 -0.0606947053
C   C18       1.0  0.97330  0.26760  0.03110  1.0000 -0.0606947053
C   C19       1.0  0.02670  0.73240  0.03110  1.0000 -0.0606947053
C   C20       1.0  0.76760  0.52670  0.53110  1.0000 -0.0606947053
C   C21       1.0  0.26760  0.02670  0.96890  1.0000 -0.0606947053
C   C22       1.0  0.52670  0.23240  0.46890  1.0000 -0.0606947053
C   C23       1.0  0.47330  0.76760  0.46890  1.0000 -0.0606947053
C   C24       1.0  0.73240  0.97330  0.96890  1.0000 -0.0606947053
C   C25       1.0  0.10690  0.48740  0.54140  1.0000 -0.0808262685
C   C26       1.0  0.98740  0.39310  0.04140  1.0000 -0.0808262685
C   C27       1.0  0.01260  0.60690  0.04140  1.0000 -0.0808262685
C   C28       1.0  0.89310  0.51260  0.54140  1.0000 -0.0808262685
C   C29       1.0  0.39310  0.01260  0.95860  1.0000 -0.0808262685
C   C30       1.0  0.51260  0.10690  0.45860  1.0000 -0.0808262685
C   C31       1.0  0.48740  0.89310  0.45860  1.0000 -0.0808262685
C   C32       1.0  0.60690  0.98740  0.95860  1.0000 -0.0808262685
C   C33       1.0  0.10700  0.53030  0.47820  1.0000 -0.0808262685
C   C34       1.0  0.03030  0.39300  0.97820  1.0000 -0.0808262685
C   C35       1.0  0.96970  0.60700  0.97820  1.0000 -0.0808262685
C   C36       1.0  0.89300  0.46970  0.47820  1.0000 -0.0808262685
C   C37       1.0  0.39300  0.96970  0.02180  1.0000 -0.0808262685
C   C38       1.0  0.46970  0.10700  0.52180  1.0000 -0.0808262685
C   C39       1.0  0.53030  0.89300  0.52180  1.0000 -0.0808262685
C   C40       1.0  0.60700  0.03030  0.02180  1.0000 -0.0808262685
C   C41       1.0  0.16970  0.54330  0.44000  1.0000 0.010223382
C   C42       1.0  0.04330  0.33030  0.94000  1.0000 0.010223382
C   C43       1.0  0.95670  0.66970  0.94000  1.0000 0.010223382
C   C44       1.0  0.83030  0.45670  0.44000  1.0000 0.010223382
C   C45       1.0  0.33030  0.95670  0.06000  1.0000 0.010223382
C   C46       1.0  0.45670  0.16970  0.56000  1.0000 0.010223382
C   C47       1.0  0.54330  0.83030  0.56000  1.0000 0.010223382
C   C48       1.0  0.66970  0.04330  0.06000  1.0000 0.010223382
C   C49       1.0  0.16990  0.59110  0.37160  1.0000 0.5533015667
C   C50       1.0  0.09110  0.33010  0.87160  1.0000 0.5533015667
C   C51       1.0  0.90890  0.66990  0.87160  1.0000 0.5533015667
C   C52       1.0  0.83010  0.40890  0.37160  1.0000 0.5533015667
C   C53       1.0  0.33010  0.90890  0.12840  1.0000 0.5533015667
C   C54       1.0  0.40890  0.16990  0.62840  1.0000 0.5533015667
C   C55       1.0  0.59110  0.83010  0.62840  1.0000 0.5533015667
C   C56       1.0  0.66990  0.09110  0.12840  1.0000 0.5533015667
C   C57       1.0  0.23270  0.51430  0.46670  1.0000 -0.068618191
C   C58       1.0  0.01430  0.26730  0.96670  1.0000 -0.068618191
C   C59       1.0  0.98570  0.73270  0.96670  1.0000 -0.068618191
C   C60       1.0  0.76730  0.48570  0.46670  1.0000 -0.068618191
C   C61       1.0  0.26730  0.98570  0.03330  1.0000 -0.068618191
C   C62       1.0  0.48570  0.23270  0.53330  1.0000 -0.068618191
C   C63       1.0  0.51430  0.76730  0.53330  1.0000 -0.068618191
C   C64       1.0  0.73270  0.01430  0.03330  1.0000 -0.068618191
Cl  Cl1       1.0  0.30606  0.29698  0.81451  1.0000 -0.5367061557
Cl  Cl2       1.0  0.79698  0.19394  0.31451  1.0000 -0.5367061557
Cl  Cl3       1.0  0.20302  0.80606  0.31451  1.0000 -0.5367061557
Cl  Cl4       1.0  0.69394  0.70302  0.81451  1.0000 -0.5367061557
Cl  Cl5       1.0  0.19394  0.20302  0.68549  1.0000 -0.5367061557
Cl  Cl6       1.0  0.70302  0.30606  0.18549  1.0000 -0.5367061557
Cl  Cl7       1.0  0.29698  0.69394  0.18549  1.0000 -0.5367061557
Cl  Cl8       1.0  0.80606  0.79698  0.68549  1.0000 -0.5367061557
O   O1        1.0  0.22857  0.40260  0.67151  1.0000 -0.4721619808
O   O2        1.0  0.90260  0.27143  0.17151  1.0000 -0.4721619808
O   O3        1.0  0.09740  0.72857  0.17151  1.0000 -0.4721619808
O   O4        1.0  0.77143  0.59740  0.67151  1.0000 -0.4721619808
O   O5        1.0  0.27143  0.09740  0.82849  1.0000 -0.4721619808
O   O6        1.0  0.59740  0.22857  0.32849  1.0000 -0.4721619808
O   O7        1.0  0.40260  0.77143  0.32849  1.0000 -0.4721619808
O   O8        1.0  0.72857  0.90260  0.82849  1.0000 -0.4721619808
O   O9        1.0  0.11253  0.38837  0.66257  1.0000 -0.451383105
O   O10       1.0  0.88837  0.38747  0.16257  1.0000 -0.451383105
O   O11       1.0  0.11163  0.61253  0.16257  1.0000 -0.451383105
O   O12       1.0  0.88747  0.61163  0.66257  1.0000 -0.451383105
O   O13       1.0  0.38747  0.11163  0.83743  1.0000 -0.451383105
O   O14       1.0  0.61163  0.11253  0.33743  1.0000 -0.451383105
O   O15       1.0  0.38837  0.88747  0.33743  1.0000 -0.451383105
O   O16       1.0  0.61253  0.88837  0.83743  1.0000 -0.451383105
O   O17       1.0  0.11682  0.62909  0.35783  1.0000 -0.4613228222
O   O18       1.0  0.12909  0.38318  0.85783  1.0000 -0.4613228222
O   O19       1.0  0.87091  0.61682  0.85783  1.0000 -0.4613228222
O   O20       1.0  0.88318  0.37091  0.35783  1.0000 -0.4613228222
O   O21       1.0  0.38318  0.87091  0.14217  1.0000 -0.4613228222
O   O22       1.0  0.37091  0.11682  0.64217  1.0000 -0.4613228222
O   O23       1.0  0.62909  0.88318  0.64217  1.0000 -0.4613228222
O   O24       1.0  0.61682  0.12909  0.14217  1.0000 -0.4613228222
O   O25       1.0  0.22506  0.59190  0.33071  1.0000 -0.4613228222
O   O26       1.0  0.09190  0.27494  0.83071  1.0000 -0.4613228222
O   O27       1.0  0.90810  0.72506  0.83071  1.0000 -0.4613228222
O   O28       1.0  0.77494  0.40810  0.33071  1.0000 -0.4613228222
O   O29       1.0  0.27494  0.90810  0.16929  1.0000 -0.4613228222
O   O30       1.0  0.40810  0.22506  0.66929  1.0000 -0.4613228222
O   O31       1.0  0.59190  0.77494  0.66929  1.0000 -0.4613228222
O   O32       1.0  0.72506  0.09190  0.16929  1.0000 -0.4613228222
