# DDEC6 charges by PACMAN v1.1 (https://github.com/mtap-research/PACMAN-charge/)
data_2002[Cr][bpq]3[ASR]1
_chemical_formula_sum              "Cr4 H20 C32 O20"
_cell_length_a       6.812
_cell_length_b       16.7331
_cell_length_c       13.038
_cell_angle_alpha    90
_cell_angle_beta     90
_cell_angle_gamma    90

_symmetry_space_group_name_H-M    "P 1"
_symmetry_Int_Tables_number       1

loop_
  _symmetry_equiv_pos_as_xyz
  'x, y, z'

loop_
  _atom_site_type_symbol
  _atom_site_label
  _atom_site_symmetry_multiplicity
  _atom_site_fract_x
  _atom_site_fract_y
  _atom_site_fract_z
  _atom_site_occupancy
  _atom_site_charge
Cr  Cr1       1.0  0.25000  0.75000  0.75000  1.0000 1.6265153019
Cr  Cr2       1.0  0.75000  0.75000  0.75000  1.0000 1.6265153019
Cr  Cr3       1.0  0.75000  0.25000  0.25000  1.0000 1.6265153019
Cr  Cr4       1.0  0.25000  0.25000  0.25000  1.0000 1.6265153019
H   H1        1.0  0.83962  0.42524  0.47713  1.0000 0.1086579036
H   H2        1.0  0.33962  0.92524  0.97713  1.0000 0.1086579036
H   H3        1.0  0.16038  0.07476  0.47713  1.0000 0.1086579036
H   H4        1.0  0.66038  0.57476  0.97713  1.0000 0.1086579036
H   H5        1.0  0.16038  0.92524  0.52287  1.0000 0.1086579036
H   H6        1.0  0.66038  0.42524  0.02287  1.0000 0.1086579036
H   H7        1.0  0.83962  0.57476  0.52287  1.0000 0.1086579036
H   H8        1.0  0.33962  0.07476  0.02287  1.0000 0.1086579036
H   H9        1.0  0.16038  0.57476  0.52287  1.0000 0.1086579036
H   H10       1.0  0.66038  0.07476  0.02287  1.0000 0.1086579036
H   H11       1.0  0.83962  0.92524  0.52287  1.0000 0.1086579036
H   H12       1.0  0.33962  0.42524  0.02287  1.0000 0.1086579036
H   H13       1.0  0.83962  0.07476  0.47713  1.0000 0.1086579036
H   H14       1.0  0.33962  0.57476  0.97713  1.0000 0.1086579036
H   H15       1.0  0.16038  0.42524  0.47713  1.0000 0.1086579036
H   H16       1.0  0.66038  0.92524  0.97713  1.0000 0.1086579036
H   H17       1.0  0.50000  0.75000  0.89070  1.0000 0.4689805536
H   H18       1.0  0.00000  0.25000  0.39070  1.0000 0.4689805536
H   H19       1.0  0.50000  0.25000  0.10930  1.0000 0.4689805536
H   H20       1.0  0.00000  0.75000  0.60930  1.0000 0.4689805536
C   C1        1.0  0.30400  0.04000  0.48200  1.0000 -0.1412569843
C   C2        1.0  0.80400  0.54000  0.98200  1.0000 -0.1412569843
C   C3        1.0  0.69600  0.46000  0.48200  1.0000 -0.1412569843
C   C4        1.0  0.19600  0.96000  0.98200  1.0000 -0.1412569843
C   C5        1.0  0.69600  0.54000  0.51800  1.0000 -0.1412569843
C   C6        1.0  0.19600  0.04000  0.01800  1.0000 -0.1412569843
C   C7        1.0  0.30400  0.96000  0.51800  1.0000 -0.1412569843
C   C8        1.0  0.80400  0.46000  0.01800  1.0000 -0.1412569843
C   C9        1.0  0.69600  0.96000  0.51800  1.0000 -0.1412569843
C   C10       1.0  0.19600  0.46000  0.01800  1.0000 -0.1412569843
C   C11       1.0  0.30400  0.54000  0.51800  1.0000 -0.1412569843
C   C12       1.0  0.80400  0.04000  0.01800  1.0000 -0.1412569843
C   C13       1.0  0.30400  0.46000  0.48200  1.0000 -0.1412569843
C   C14       1.0  0.80400  0.96000  0.98200  1.0000 -0.1412569843
C   C15       1.0  0.69600  0.04000  0.48200  1.0000 -0.1412569843
C   C16       1.0  0.19600  0.54000  0.98200  1.0000 -0.1412569843
C   C17       1.0  0.50000  0.05400  0.46100  1.0000 -0.0797747643
C   C18       1.0  0.50000  0.12500  0.38800  1.0000 0.6371062054
C   C19       1.0  0.00000  0.55400  0.96100  1.0000 -0.0797747643
C   C20       1.0  0.00000  0.62500  0.88800  1.0000 0.6371062054
C   C21       1.0  0.50000  0.44600  0.46100  1.0000 -0.0797747643
C   C22       1.0  0.50000  0.37500  0.38800  1.0000 0.6371062054
C   C23       1.0  0.00000  0.94600  0.96100  1.0000 -0.0797747643
C   C24       1.0  0.00000  0.87500  0.88800  1.0000 0.6371062054
C   C25       1.0  0.50000  0.55400  0.53900  1.0000 -0.0797747643
C   C26       1.0  0.50000  0.62500  0.61200  1.0000 0.6371062054
C   C27       1.0  0.00000  0.05400  0.03900  1.0000 -0.0797747643
C   C28       1.0  0.00000  0.12500  0.11200  1.0000 0.6371062054
C   C29       1.0  0.50000  0.94600  0.53900  1.0000 -0.0797747643
C   C30       1.0  0.50000  0.87500  0.61200  1.0000 0.6371062054
C   C31       1.0  0.00000  0.44600  0.03900  1.0000 -0.0797747643
C   C32       1.0  0.00000  0.37500  0.11200  1.0000 0.6371062054
O   O1        1.0  0.65000  0.16600  0.34300  1.0000 -0.5465428503
O   O2        1.0  0.15000  0.66600  0.84300  1.0000 -0.5449282797
O   O3        1.0  0.35000  0.33400  0.34300  1.0000 -0.5465428503
O   O4        1.0  0.85000  0.83400  0.84300  1.0000 -0.5465428503
O   O5        1.0  0.35000  0.66600  0.65700  1.0000 -0.5465428503
O   O6        1.0  0.85000  0.16600  0.15700  1.0000 -0.5449282797
O   O7        1.0  0.65000  0.83400  0.65700  1.0000 -0.5465428503
O   O8        1.0  0.15000  0.33400  0.15700  1.0000 -0.5465428503
O   O9        1.0  0.35000  0.83400  0.65700  1.0000 -0.5465428503
O   O10       1.0  0.85000  0.33400  0.15700  1.0000 -0.5465428503
O   O11       1.0  0.65000  0.66600  0.65700  1.0000 -0.5465428503
O   O12       1.0  0.15000  0.16600  0.15700  1.0000 -0.5449282797
O   O13       1.0  0.65000  0.33400  0.34300  1.0000 -0.5465428503
O   O14       1.0  0.15000  0.83400  0.84300  1.0000 -0.5465428503
O   O15       1.0  0.35000  0.16600  0.34300  1.0000 -0.5465428503
O   O16       1.0  0.85000  0.66600  0.84300  1.0000 -0.5449282797
O   O17       1.0  0.00000  0.75000  0.68600  1.0000 -0.8967021377
O   O18       1.0  0.50000  0.25000  0.18600  1.0000 -0.8937090309
O   O19       1.0  0.00000  0.25000  0.31400  1.0000 -0.8967021377
O   O20       1.0  0.50000  0.75000  0.81400  1.0000 -0.8937090309
