# DDEC6 charges by PACMAN v1.1 (https://github.com/mtap-research/PACMAN-charge/)
data_2002[Zn][pcu]3[ASR]2
_chemical_formula_sum              "Zn8 H48 C72 O26"
_cell_length_a       18.2731
_cell_length_b       18.2731
_cell_length_c       18.2731
_cell_angle_alpha    60
_cell_angle_beta     60
_cell_angle_gamma    60

_symmetry_space_group_name_H-M    "P 1"
_symmetry_Int_Tables_number       1

loop_
  _symmetry_equiv_pos_as_xyz
  'x, y, z'

loop_
  _atom_site_type_symbol
  _atom_site_label
  _atom_site_symmetry_multiplicity
  _atom_site_fract_x
  _atom_site_fract_y
  _atom_site_fract_z
  _atom_site_occupancy
  _atom_site_charge
Zn  Zn1       1.0  0.29355  0.11935  0.29355  1.0000 0.9505692298
Zn  Zn2       1.0  0.29355  0.29355  0.11935  1.0000 0.9505692298
Zn  Zn3       1.0  0.11935  0.29355  0.29355  1.0000 0.9505692298
Zn  Zn4       1.0  0.70645  0.88065  0.70645  1.0000 0.9505692298
Zn  Zn5       1.0  0.70645  0.70645  0.88065  1.0000 0.9505692298
Zn  Zn6       1.0  0.70645  0.70645  0.70645  1.0000 0.9505692298
Zn  Zn7       1.0  0.88065  0.70645  0.70645  1.0000 0.9505692298
Zn  Zn8       1.0  0.29355  0.29355  0.29355  1.0000 0.9505692298
H   H1        1.0  0.87440  0.20820  0.41540  1.0000 0.1002123116
H   H2        1.0  0.41540  0.87440  0.20820  1.0000 0.1002123116
H   H3        1.0  0.20820  0.41540  0.87440  1.0000 0.1002123116
H   H4        1.0  0.12560  0.79180  0.49800  1.0000 0.1002123116
H   H5        1.0  0.58460  0.49800  0.79180  1.0000 0.1002123116
H   H6        1.0  0.49800  0.58460  0.12560  1.0000 0.1002123116
H   H7        1.0  0.58460  0.12560  0.49800  1.0000 0.1002123116
H   H8        1.0  0.49800  0.79180  0.58460  1.0000 0.1002123116
H   H9        1.0  0.79180  0.49800  0.12560  1.0000 0.1002123116
H   H10       1.0  0.79180  0.58460  0.49800  1.0000 0.1002123116
H   H11       1.0  0.12560  0.49800  0.58460  1.0000 0.1002123116
H   H12       1.0  0.49800  0.12560  0.79180  1.0000 0.1002123116
H   H13       1.0  0.79180  0.12560  0.49800  1.0000 0.1002123116
H   H14       1.0  0.58460  0.49800  0.12560  1.0000 0.1002123116
H   H15       1.0  0.49800  0.58460  0.79180  1.0000 0.1002123116
H   H16       1.0  0.49800  0.79180  0.12560  1.0000 0.1002123116
H   H17       1.0  0.12560  0.58460  0.49800  1.0000 0.1002123116
H   H18       1.0  0.79180  0.49800  0.58460  1.0000 0.1002123116
H   H19       1.0  0.12560  0.49800  0.79180  1.0000 0.1002123116
H   H20       1.0  0.49800  0.12560  0.58460  1.0000 0.1002123116
H   H21       1.0  0.58460  0.79180  0.49800  1.0000 0.1002123116
H   H22       1.0  0.20820  0.87440  0.41540  1.0000 0.1002123116
H   H23       1.0  0.87440  0.41540  0.20820  1.0000 0.1002123116
H   H24       1.0  0.41540  0.20820  0.87440  1.0000 0.1002123116
H   H25       1.0  0.12560  0.79180  0.58460  1.0000 0.1002123116
H   H26       1.0  0.58460  0.12560  0.79180  1.0000 0.1002123116
H   H27       1.0  0.79180  0.58460  0.12560  1.0000 0.1002123116
H   H28       1.0  0.87440  0.20820  0.50200  1.0000 0.1002123116
H   H29       1.0  0.41540  0.50200  0.20820  1.0000 0.1002123116
H   H30       1.0  0.50200  0.41540  0.87440  1.0000 0.1002123116
H   H31       1.0  0.41540  0.87440  0.50200  1.0000 0.1002123116
H   H32       1.0  0.50200  0.20820  0.41540  1.0000 0.1002123116
H   H33       1.0  0.20820  0.50200  0.87440  1.0000 0.1002123116
H   H34       1.0  0.20820  0.41540  0.50200  1.0000 0.1002123116
H   H35       1.0  0.87440  0.50200  0.41540  1.0000 0.1002123116
H   H36       1.0  0.50200  0.87440  0.20820  1.0000 0.1002123116
H   H37       1.0  0.20820  0.87440  0.50200  1.0000 0.1002123116
H   H38       1.0  0.41540  0.50200  0.87440  1.0000 0.1002123116
H   H39       1.0  0.50200  0.41540  0.20820  1.0000 0.1002123116
H   H40       1.0  0.50200  0.20820  0.87440  1.0000 0.1002123116
H   H41       1.0  0.87440  0.41540  0.50200  1.0000 0.1002123116
H   H42       1.0  0.20820  0.50200  0.41540  1.0000 0.1002123116
H   H43       1.0  0.87440  0.50200  0.20820  1.0000 0.1002123116
H   H44       1.0  0.50200  0.87440  0.41540  1.0000 0.1002123116
H   H45       1.0  0.41540  0.20820  0.50200  1.0000 0.1002123116
H   H46       1.0  0.79180  0.12560  0.58460  1.0000 0.1002123116
H   H47       1.0  0.12560  0.58460  0.79180  1.0000 0.1002123116
H   H48       1.0  0.58460  0.79180  0.12560  1.0000 0.1002123116
C   C1        1.0  0.11200  0.11200  0.38800  1.0000 0.5849451372
C   C2        1.0  0.38800  0.11200  0.11200  1.0000 0.5849451372
C   C3        1.0  0.11200  0.38800  0.11200  1.0000 0.5849451372
C   C4        1.0  0.88800  0.88800  0.61200  1.0000 0.5859214017
C   C5        1.0  0.61200  0.61200  0.88800  1.0000 0.5859214017
C   C6        1.0  0.61200  0.88800  0.61200  1.0000 0.5859214017
C   C7        1.0  0.88800  0.61200  0.88800  1.0000 0.5859214017
C   C8        1.0  0.88800  0.61200  0.61200  1.0000 0.5859214017
C   C9        1.0  0.61200  0.88800  0.88800  1.0000 0.5859214017
C   C10       1.0  0.38800  0.38800  0.11200  1.0000 0.5849451372
C   C11       1.0  0.38800  0.11200  0.38800  1.0000 0.5849451372
C   C12       1.0  0.11200  0.38800  0.38800  1.0000 0.5849451372
C   C13       1.0  0.05650  0.05650  0.44350  1.0000 -0.1518795528
C   C14       1.0  0.44350  0.05650  0.05650  1.0000 -0.1518795528
C   C15       1.0  0.05650  0.44350  0.05650  1.0000 -0.1518795528
C   C16       1.0  0.94350  0.94350  0.55650  1.0000 -0.1518795528
C   C17       1.0  0.55650  0.55650  0.94350  1.0000 -0.1518795528
C   C18       1.0  0.55650  0.94350  0.55650  1.0000 -0.1518795528
C   C19       1.0  0.94350  0.55650  0.94350  1.0000 -0.1518795528
C   C20       1.0  0.94350  0.55650  0.55650  1.0000 -0.1518795528
C   C21       1.0  0.55650  0.94350  0.94350  1.0000 -0.1518795528
C   C22       1.0  0.44350  0.44350  0.05650  1.0000 -0.1518795528
C   C23       1.0  0.44350  0.05650  0.44350  1.0000 -0.1518795528
C   C24       1.0  0.05650  0.44350  0.44350  1.0000 -0.1518795528
C   C25       1.0  0.97040  0.08600  0.47180  1.0000 0.0557162153
C   C26       1.0  0.47180  0.97040  0.08600  1.0000 0.0549805896
C   C27       1.0  0.08600  0.47180  0.97040  1.0000 0.0549805896
C   C28       1.0  0.02960  0.91400  0.52820  1.0000 0.0549805896
C   C29       1.0  0.52820  0.52820  0.91400  1.0000 0.0549805896
C   C30       1.0  0.52820  0.52820  0.02960  1.0000 0.0549805896
C   C31       1.0  0.52820  0.02960  0.52820  1.0000 0.0549805896
C   C32       1.0  0.52820  0.91400  0.52820  1.0000 0.0549805896
C   C33       1.0  0.91400  0.52820  0.02960  1.0000 0.0549805896
C   C34       1.0  0.91400  0.52820  0.52820  1.0000 0.0549805896
C   C35       1.0  0.02960  0.52820  0.52820  1.0000 0.0557162153
C   C36       1.0  0.52820  0.02960  0.91400  1.0000 0.0549805896
C   C37       1.0  0.91400  0.02960  0.52820  1.0000 0.0549805896
C   C38       1.0  0.52820  0.91400  0.02960  1.0000 0.0549805896
C   C39       1.0  0.02960  0.52820  0.91400  1.0000 0.0549805896
C   C40       1.0  0.08600  0.97040  0.47180  1.0000 0.0549805896
C   C41       1.0  0.97040  0.47180  0.08600  1.0000 0.0549805896
C   C42       1.0  0.47180  0.08600  0.97040  1.0000 0.0549805896
C   C43       1.0  0.47180  0.47180  0.08600  1.0000 0.0549805896
C   C44       1.0  0.47180  0.47180  0.97040  1.0000 0.0549805896
C   C45       1.0  0.47180  0.97040  0.47180  1.0000 0.0549805896
C   C46       1.0  0.47180  0.08600  0.47180  1.0000 0.0549805896
C   C47       1.0  0.08600  0.47180  0.47180  1.0000 0.0549805896
C   C48       1.0  0.97040  0.47180  0.47180  1.0000 0.0557162153
C   C49       1.0  0.88700  0.16700  0.47300  1.0000 -0.1795724674
C   C50       1.0  0.47300  0.88700  0.16700  1.0000 -0.1795724674
C   C51       1.0  0.16700  0.47300  0.88700  1.0000 -0.1795724674
C   C52       1.0  0.11300  0.83300  0.52700  1.0000 -0.1795724674
C   C53       1.0  0.52700  0.52700  0.83300  1.0000 -0.1795724674
C   C54       1.0  0.52700  0.52700  0.11300  1.0000 -0.1795724674
C   C55       1.0  0.52700  0.11300  0.52700  1.0000 -0.1795724674
C   C56       1.0  0.52700  0.83300  0.52700  1.0000 -0.1795724674
C   C57       1.0  0.83300  0.52700  0.11300  1.0000 -0.1795724674
C   C58       1.0  0.83300  0.52700  0.52700  1.0000 -0.1795724674
C   C59       1.0  0.11300  0.52700  0.52700  1.0000 -0.1795724674
C   C60       1.0  0.52700  0.11300  0.83300  1.0000 -0.1795724674
C   C61       1.0  0.83300  0.11300  0.52700  1.0000 -0.1795724674
C   C62       1.0  0.52700  0.83300  0.11300  1.0000 -0.1795724674
C   C63       1.0  0.11300  0.52700  0.83300  1.0000 -0.1795724674
C   C64       1.0  0.16700  0.88700  0.47300  1.0000 -0.1795724674
C   C65       1.0  0.88700  0.47300  0.16700  1.0000 -0.1795724674
C   C66       1.0  0.47300  0.16700  0.88700  1.0000 -0.1795724674
C   C67       1.0  0.47300  0.47300  0.16700  1.0000 -0.1795724674
C   C68       1.0  0.47300  0.47300  0.88700  1.0000 -0.1795724674
C   C69       1.0  0.47300  0.88700  0.47300  1.0000 -0.1795724674
C   C70       1.0  0.47300  0.16700  0.47300  1.0000 -0.1795724674
C   C71       1.0  0.16700  0.47300  0.47300  1.0000 -0.1795724674
C   C72       1.0  0.88700  0.47300  0.47300  1.0000 -0.1795724674
O   O1        1.0  0.25000  0.25000  0.25000  1.0000 -1.0330900004
O   O2        1.0  0.75000  0.75000  0.75000  1.0000 -1.0330900004
O   O3        1.0  0.19620  0.07060  0.36660  1.0000 -0.5234671335
O   O4        1.0  0.36660  0.19620  0.07060  1.0000 -0.5234671335
O   O5        1.0  0.07060  0.36660  0.19620  1.0000 -0.5234671335
O   O6        1.0  0.80380  0.92940  0.63340  1.0000 -0.5234671335
O   O7        1.0  0.63340  0.63340  0.92940  1.0000 -0.5234671335
O   O8        1.0  0.63340  0.63340  0.80380  1.0000 -0.5234671335
O   O9        1.0  0.63340  0.80380  0.63340  1.0000 -0.5234671335
O   O10       1.0  0.63340  0.92940  0.63340  1.0000 -0.5234671335
O   O11       1.0  0.92940  0.63340  0.80380  1.0000 -0.5234671335
O   O12       1.0  0.92940  0.63340  0.63340  1.0000 -0.5234671335
O   O13       1.0  0.80380  0.63340  0.63340  1.0000 -0.5234671335
O   O14       1.0  0.63340  0.80380  0.92940  1.0000 -0.5234671335
O   O15       1.0  0.92940  0.80380  0.63340  1.0000 -0.5234671335
O   O16       1.0  0.63340  0.92940  0.80380  1.0000 -0.5234671335
O   O17       1.0  0.80380  0.63340  0.92940  1.0000 -0.5234671335
O   O18       1.0  0.07060  0.19620  0.36660  1.0000 -0.5234671335
O   O19       1.0  0.19620  0.36660  0.07060  1.0000 -0.5234671335
O   O20       1.0  0.36660  0.07060  0.19620  1.0000 -0.5234671335
O   O21       1.0  0.36660  0.36660  0.07060  1.0000 -0.5234671335
O   O22       1.0  0.36660  0.36660  0.19620  1.0000 -0.5234671335
O   O23       1.0  0.36660  0.19620  0.36660  1.0000 -0.5234671335
O   O24       1.0  0.36660  0.07060  0.36660  1.0000 -0.5234671335
O   O25       1.0  0.07060  0.36660  0.36660  1.0000 -0.5234671335
O   O26       1.0  0.19620  0.36660  0.36660  1.0000 -0.5234671335
