# DDEC6 charges by PACMAN v1.1 (https://github.com/mtap-research/PACMAN-charge/)
data_2002[Tb][pcu]3[ASR]1
_chemical_formula_sum              "Tb2 H18 C36 O12"
_cell_length_a       12.1323
_cell_length_b       12.3676
_cell_length_c       13.3757
_cell_angle_alpha    101.748
_cell_angle_beta     99.025
_cell_angle_gamma    105.984

_symmetry_space_group_name_H-M    "P 1"
_symmetry_Int_Tables_number       1

loop_
  _symmetry_equiv_pos_as_xyz
  'x, y, z'

loop_
  _atom_site_type_symbol
  _atom_site_label
  _atom_site_symmetry_multiplicity
  _atom_site_fract_x
  _atom_site_fract_y
  _atom_site_fract_z
  _atom_site_occupancy
  _atom_site_charge
Tb  Tb1       1.0  0.67354  0.51879  0.54568  1.0000 2.0630617135
Tb  Tb2       1.0  0.32646  0.48121  0.45432  1.0000 2.0630617135
H   H1        1.0  0.95550  0.64360  0.89090  1.0000 0.1315447979
H   H2        1.0  0.04450  0.35640  0.10910  1.0000 0.1315447979
H   H3        1.0  0.80270  0.30100  0.78770  1.0000 0.1213708989
H   H4        1.0  0.19730  0.69900  0.21230  1.0000 0.1213708989
H   H5        1.0  0.10690  0.72760  0.06090  1.0000 0.1213708989
H   H6        1.0  0.89310  0.27240  0.93910  1.0000 0.1213708989
H   H7        1.0  0.40450  0.77150  0.46030  1.0000 0.1213708989
H   H8        1.0  0.59550  0.22850  0.53970  1.0000 0.1213708989
H   H9        1.0  0.74160  0.93890  0.61550  1.0000 0.1213708989
H   H10       1.0  0.25840  0.06110  0.38450  1.0000 0.1213708989
H   H11       1.0  0.28300  0.88650  0.39220  1.0000 0.1213708989
H   H12       1.0  0.71700  0.11350  0.60780  1.0000 0.1213708989
H   H13       1.0  0.63480  0.52990  0.86570  1.0000 0.1213708989
H   H14       1.0  0.36520  0.47010  0.13430  1.0000 0.1213708989
H   H15       1.0  0.28590  0.46290  0.78410  1.0000 0.1213708989
H   H16       1.0  0.71410  0.53710  0.21590  1.0000 0.1213708989
H   H17       1.0  0.72860  0.54610  0.05040  1.0000 0.1213708989
H   H18       1.0  0.27140  0.45390  0.94960  1.0000 0.1148340099
C   C1        1.0  0.80850  0.49200  0.72210  1.0000 0.5545278184
C   C2        1.0  0.19150  0.50800  0.27790  1.0000 0.5545278184
C   C3        1.0  0.01050  0.55670  0.99300  1.0000 0.0627069429
C   C4        1.0  0.98950  0.44330  0.00700  1.0000 0.0627069429
C   C5        1.0  0.94620  0.56940  0.90030  1.0000 -0.1590062288
C   C6        1.0  0.05380  0.43060  0.09970  1.0000 -0.1590062288
C   C7        1.0  0.87130  0.47520  0.82470  1.0000 -0.0021778753
C   C8        1.0  0.12870  0.52480  0.17530  1.0000 -0.0021778753
C   C9        1.0  0.85360  0.36490  0.84000  1.0000 -0.1075840153
C   C10       1.0  0.14640  0.63510  0.16000  1.0000 -0.1075840153
C   C11       1.0  0.09130  0.65290  0.07060  1.0000 -0.1590062288
C   C12       1.0  0.90870  0.34710  0.92940  1.0000 -0.1590062288
C   C13       1.0  0.59070  0.72170  0.54380  1.0000 0.6221163266
C   C14       1.0  0.40930  0.27830  0.45620  1.0000 0.6221163266
C   C15       1.0  0.45100  0.94810  0.47890  1.0000 0.0690179386
C   C16       1.0  0.54900  0.05190  0.52110  1.0000 0.0690179386
C   C17       1.0  0.46700  0.84040  0.48790  1.0000 -0.1515895136
C   C18       1.0  0.53300  0.15960  0.51210  1.0000 -0.1515895136
C   C19       1.0  0.57390  0.83740  0.53710  1.0000 -0.0136934778
C   C20       1.0  0.42610  0.16260  0.46290  1.0000 -0.0136934778
C   C21       1.0  0.66960  0.94150  0.58190  1.0000 -0.0989638724
C   C22       1.0  0.33040  0.05850  0.41810  1.0000 -0.0989638724
C   C23       1.0  0.34480  0.95480  0.42450  1.0000 -0.1515895136
C   C24       1.0  0.65520  0.04520  0.57550  1.0000 -0.1515895136
C   C25       1.0  0.47490  0.50410  0.69860  1.0000 0.6459883444
C   C26       1.0  0.52510  0.49590  0.30140  1.0000 0.6459883444
C   C27       1.0  0.55570  0.51340  0.98700  1.0000 0.0690179386
C   C28       1.0  0.44430  0.48660  0.01300  1.0000 0.0690179386
C   C29       1.0  0.56200  0.51640  0.88340  1.0000 -0.1515895136
C   C30       1.0  0.43800  0.48360  0.11660  1.0000 -0.1515895136
C   C31       1.0  0.46520  0.50030  0.80850  1.0000 -0.0136934778
C   C32       1.0  0.53480  0.49970  0.19150  1.0000 -0.0136934778
C   C33       1.0  0.35330  0.47530  0.83470  1.0000 -0.0989638724
C   C34       1.0  0.64670  0.52470  0.16530  1.0000 -0.0989638724
C   C35       1.0  0.65490  0.53040  0.06640  1.0000 -0.1590062288
C   C36       1.0  0.34510  0.46960  0.93360  1.0000 -0.1590062288
O   O1        1.0  0.82830  0.59130  0.70860  1.0000 -0.6228617139
O   O2        1.0  0.17170  0.40870  0.29140  1.0000 -0.6228617139
O   O3        1.0  0.73730  0.40450  0.65870  1.0000 -0.6228617139
O   O4        1.0  0.26270  0.59550  0.34130  1.0000 -0.6228617139
O   O5        1.0  0.69160  0.72140  0.57860  1.0000 -0.6095018394
O   O6        1.0  0.30840  0.27860  0.42140  1.0000 -0.6095018394
O   O7        1.0  0.50290  0.63070  0.51090  1.0000 -0.7420294888
O   O8        1.0  0.49710  0.36930  0.48910  1.0000 -0.7420294888
O   O9        1.0  0.57680  0.53690  0.68270  1.0000 -0.6421387203
O   O10       1.0  0.42320  0.46310  0.31730  1.0000 -0.6421387203
O   O11       1.0  0.38020  0.47480  0.63140  1.0000 -0.6794232733
O   O12       1.0  0.61980  0.52520  0.36860  1.0000 -0.6794232733
