# DDEC6 charges by PACMAN v1.1 (https://github.com/mtap-research/PACMAN-charge/)
data_2002[V][pcu]3[ASR]1
_chemical_formula_sum              "V24 H96 C192 O104"
_cell_length_a       19.2907
_cell_length_b       19.2907
_cell_length_c       19.2907
_cell_angle_alpha    90
_cell_angle_beta     90
_cell_angle_gamma    90

_symmetry_space_group_name_H-M    "P 1"
_symmetry_Int_Tables_number       1

loop_
  _symmetry_equiv_pos_as_xyz
  'x, y, z'

loop_
  _atom_site_type_symbol
  _atom_site_label
  _atom_site_symmetry_multiplicity
  _atom_site_fract_x
  _atom_site_fract_y
  _atom_site_fract_z
  _atom_site_occupancy
  _atom_site_charge
V   V1        1.0  0.75509  0.39102  0.14242  1.0000 1.5926823642
V   V2        1.0  0.14242  0.75509  0.39102  1.0000 1.5926823642
V   V3        1.0  0.39102  0.14242  0.75509  1.0000 1.5926823642
V   V4        1.0  0.74491  0.60898  0.64242  1.0000 1.5926823642
V   V5        1.0  0.24491  0.89102  0.35758  1.0000 1.5926823642
V   V6        1.0  0.25509  0.10898  0.85758  1.0000 1.5960996575
V   V7        1.0  0.64242  0.74491  0.60898  1.0000 1.5926823642
V   V8        1.0  0.35758  0.24491  0.89102  1.0000 1.5926823642
V   V9        1.0  0.85758  0.25509  0.10898  1.0000 1.5960996575
V   V10       1.0  0.60898  0.64242  0.74491  1.0000 1.5926823642
V   V11       1.0  0.89102  0.35758  0.24491  1.0000 1.5926823642
V   V12       1.0  0.10898  0.85758  0.25509  1.0000 1.5960996575
V   V13       1.0  0.24491  0.60898  0.85758  1.0000 1.5926823642
V   V14       1.0  0.85758  0.24491  0.60898  1.0000 1.5926823642
V   V15       1.0  0.60898  0.85758  0.24491  1.0000 1.5926823642
V   V16       1.0  0.25509  0.39102  0.35758  1.0000 1.5926823642
V   V17       1.0  0.75509  0.10898  0.64242  1.0000 1.5926823642
V   V18       1.0  0.74491  0.89102  0.14242  1.0000 1.5960996575
V   V19       1.0  0.35758  0.25509  0.39102  1.0000 1.5926823642
V   V20       1.0  0.64242  0.75509  0.10898  1.0000 1.5926823642
V   V21       1.0  0.14242  0.74491  0.89102  1.0000 1.5960996575
V   V22       1.0  0.39102  0.35758  0.25509  1.0000 1.5926823642
V   V23       1.0  0.10898  0.64242  0.75509  1.0000 1.5926823642
V   V24       1.0  0.89102  0.14242  0.74491  1.0000 1.5960996575
H   H1        1.0  0.79249  0.60811  0.13144  1.0000 0.1310839729
H   H2        1.0  0.13144  0.79249  0.60811  1.0000 0.1310839729
H   H3        1.0  0.60811  0.13144  0.79249  1.0000 0.1310839729
H   H4        1.0  0.70751  0.39189  0.63144  1.0000 0.1310839729
H   H5        1.0  0.20751  0.10811  0.36856  1.0000 0.1310839729
H   H6        1.0  0.29249  0.89189  0.86856  1.0000 0.1310839729
H   H7        1.0  0.63144  0.70751  0.39189  1.0000 0.1310839729
H   H8        1.0  0.36856  0.20751  0.10811  1.0000 0.1310839729
H   H9        1.0  0.86856  0.29249  0.89189  1.0000 0.1310839729
H   H10       1.0  0.39189  0.63144  0.70751  1.0000 0.1310839729
H   H11       1.0  0.10811  0.36856  0.20751  1.0000 0.1310839729
H   H12       1.0  0.89189  0.86856  0.29249  1.0000 0.1310839729
H   H13       1.0  0.20751  0.39189  0.86856  1.0000 0.1310839729
H   H14       1.0  0.86856  0.20751  0.39189  1.0000 0.1310839729
H   H15       1.0  0.39189  0.86856  0.20751  1.0000 0.1310839729
H   H16       1.0  0.29249  0.60811  0.36856  1.0000 0.1310839729
H   H17       1.0  0.79249  0.89189  0.63144  1.0000 0.1310839729
H   H18       1.0  0.70751  0.10811  0.13144  1.0000 0.1310839729
H   H19       1.0  0.36856  0.29249  0.60811  1.0000 0.1310839729
H   H20       1.0  0.63144  0.79249  0.89189  1.0000 0.1310839729
H   H21       1.0  0.13144  0.70751  0.10811  1.0000 0.1310839729
H   H22       1.0  0.60811  0.36856  0.29249  1.0000 0.1310839729
H   H23       1.0  0.89189  0.63144  0.79249  1.0000 0.1310839729
H   H24       1.0  0.10811  0.13144  0.70751  1.0000 0.1310839729
H   H25       1.0  0.95600  0.56750  0.25410  1.0000 0.1229145172
H   H26       1.0  0.25410  0.95600  0.56750  1.0000 0.1229145172
H   H27       1.0  0.56750  0.25410  0.95600  1.0000 0.1229145172
H   H28       1.0  0.54400  0.43250  0.75410  1.0000 0.1229145172
H   H29       1.0  0.04400  0.06750  0.24590  1.0000 0.1229145172
H   H30       1.0  0.45600  0.93250  0.74590  1.0000 0.1229145172
H   H31       1.0  0.75410  0.54400  0.43250  1.0000 0.1229145172
H   H32       1.0  0.24590  0.04400  0.06750  1.0000 0.1229145172
H   H33       1.0  0.74590  0.45600  0.93250  1.0000 0.1229145172
H   H34       1.0  0.43250  0.75410  0.54400  1.0000 0.1229145172
H   H35       1.0  0.06750  0.24590  0.04400  1.0000 0.1229145172
H   H36       1.0  0.93250  0.74590  0.45600  1.0000 0.1229145172
H   H37       1.0  0.04400  0.43250  0.74590  1.0000 0.1229145172
H   H38       1.0  0.74590  0.04400  0.43250  1.0000 0.1229145172
H   H39       1.0  0.43250  0.74590  0.04400  1.0000 0.1229145172
H   H40       1.0  0.45600  0.56750  0.24590  1.0000 0.1229145172
H   H41       1.0  0.95600  0.93250  0.75410  1.0000 0.1229145172
H   H42       1.0  0.54400  0.06750  0.25410  1.0000 0.1229145172
H   H43       1.0  0.24590  0.45600  0.56750  1.0000 0.1229145172
H   H44       1.0  0.75410  0.95600  0.93250  1.0000 0.1229145172
H   H45       1.0  0.25410  0.54400  0.06750  1.0000 0.1229145172
H   H46       1.0  0.56750  0.24590  0.45600  1.0000 0.1229145172
H   H47       1.0  0.93250  0.75410  0.95600  1.0000 0.1229145172
H   H48       1.0  0.06750  0.25410  0.54400  1.0000 0.1229145172
H   H49       1.0  0.91400  0.76360  0.19880  1.0000 0.1229145172
H   H50       1.0  0.19880  0.91400  0.76360  1.0000 0.1229145172
H   H51       1.0  0.76360  0.19880  0.91400  1.0000 0.1229145172
H   H52       1.0  0.58600  0.23640  0.69880  1.0000 0.1229145172
H   H53       1.0  0.08600  0.26360  0.30120  1.0000 0.1229145172
H   H54       1.0  0.41400  0.73640  0.80120  1.0000 0.1229145172
H   H55       1.0  0.69880  0.58600  0.23640  1.0000 0.1229145172
H   H56       1.0  0.30120  0.08600  0.26360  1.0000 0.1229145172
H   H57       1.0  0.80120  0.41400  0.73640  1.0000 0.1229145172
H   H58       1.0  0.23640  0.69880  0.58600  1.0000 0.1229145172
H   H59       1.0  0.26360  0.30120  0.08600  1.0000 0.1229145172
H   H60       1.0  0.73640  0.80120  0.41400  1.0000 0.1229145172
H   H61       1.0  0.08600  0.23640  0.80120  1.0000 0.1229145172
H   H62       1.0  0.80120  0.08600  0.23640  1.0000 0.1229145172
H   H63       1.0  0.23640  0.80120  0.08600  1.0000 0.1229145172
H   H64       1.0  0.41400  0.76360  0.30120  1.0000 0.1229145172
H   H65       1.0  0.91400  0.73640  0.69880  1.0000 0.1229145172
H   H66       1.0  0.58600  0.26360  0.19880  1.0000 0.1229145172
H   H67       1.0  0.30120  0.41400  0.76360  1.0000 0.1229145172
H   H68       1.0  0.69880  0.91400  0.73640  1.0000 0.1229145172
H   H69       1.0  0.19880  0.58600  0.26360  1.0000 0.1229145172
H   H70       1.0  0.76360  0.30120  0.41400  1.0000 0.1229145172
H   H71       1.0  0.73640  0.69880  0.91400  1.0000 0.1229145172
H   H72       1.0  0.26360  0.19880  0.58600  1.0000 0.1229145172
H   H73       1.0  0.98220  0.68450  0.25820  1.0000 0.1229145172
H   H74       1.0  0.25820  0.98220  0.68450  1.0000 0.1229145172
H   H75       1.0  0.68450  0.25820  0.98220  1.0000 0.1229145172
H   H76       1.0  0.51780  0.31550  0.75820  1.0000 0.1229145172
H   H77       1.0  0.01780  0.18450  0.24180  1.0000 0.1229145172
H   H78       1.0  0.48220  0.81550  0.74180  1.0000 0.1229145172
H   H79       1.0  0.75820  0.51780  0.31550  1.0000 0.1229145172
H   H80       1.0  0.24180  0.01780  0.18450  1.0000 0.1229145172
H   H81       1.0  0.74180  0.48220  0.81550  1.0000 0.1229145172
H   H82       1.0  0.31550  0.75820  0.51780  1.0000 0.1229145172
H   H83       1.0  0.18450  0.24180  0.01780  1.0000 0.1229145172
H   H84       1.0  0.81550  0.74180  0.48220  1.0000 0.1229145172
H   H85       1.0  0.01780  0.31550  0.74180  1.0000 0.1229145172
H   H86       1.0  0.74180  0.01780  0.31550  1.0000 0.1229145172
H   H87       1.0  0.31550  0.74180  0.01780  1.0000 0.1229145172
H   H88       1.0  0.48220  0.68450  0.24180  1.0000 0.1229145172
H   H89       1.0  0.98220  0.81550  0.75820  1.0000 0.1229145172
H   H90       1.0  0.51780  0.18450  0.25820  1.0000 0.1229145172
H   H91       1.0  0.24180  0.48220  0.68450  1.0000 0.1229145172
H   H92       1.0  0.75820  0.98220  0.81550  1.0000 0.1229145172
H   H93       1.0  0.25820  0.51780  0.18450  1.0000 0.1229145172
H   H94       1.0  0.68450  0.24180  0.48220  1.0000 0.1229145172
H   H95       1.0  0.81550  0.75820  0.98220  1.0000 0.1229145172
H   H96       1.0  0.18450  0.25820  0.51780  1.0000 0.1229145172
C   C1        1.0  0.79530  0.74479  0.13075  1.0000 0.6128155019
C   C2        1.0  0.13075  0.79530  0.74479  1.0000 0.6128155019
C   C3        1.0  0.74479  0.13075  0.79530  1.0000 0.6128155019
C   C4        1.0  0.70470  0.25521  0.63075  1.0000 0.6128155019
C   C5        1.0  0.20470  0.24479  0.36925  1.0000 0.6128155019
C   C6        1.0  0.29530  0.75521  0.86925  1.0000 0.6128155019
C   C7        1.0  0.63075  0.70470  0.25521  1.0000 0.6128155019
C   C8        1.0  0.36925  0.20470  0.24479  1.0000 0.6128155019
C   C9        1.0  0.86925  0.29530  0.75521  1.0000 0.6128155019
C   C10       1.0  0.25521  0.63075  0.70470  1.0000 0.6128155019
C   C11       1.0  0.24479  0.36925  0.20470  1.0000 0.6128155019
C   C12       1.0  0.75521  0.86925  0.29530  1.0000 0.6128155019
C   C13       1.0  0.20470  0.25521  0.86925  1.0000 0.6128155019
C   C14       1.0  0.86925  0.20470  0.25521  1.0000 0.6128155019
C   C15       1.0  0.25521  0.86925  0.20470  1.0000 0.6128155019
C   C16       1.0  0.29530  0.74479  0.36925  1.0000 0.6128155019
C   C17       1.0  0.79530  0.75521  0.63075  1.0000 0.6128155019
C   C18       1.0  0.70470  0.24479  0.13075  1.0000 0.6128155019
C   C19       1.0  0.36925  0.29530  0.74479  1.0000 0.6128155019
C   C20       1.0  0.63075  0.79530  0.75521  1.0000 0.6128155019
C   C21       1.0  0.13075  0.70470  0.24479  1.0000 0.6128155019
C   C22       1.0  0.74479  0.36925  0.29530  1.0000 0.6128155019
C   C23       1.0  0.75521  0.63075  0.79530  1.0000 0.6128155019
C   C24       1.0  0.24479  0.13075  0.70470  1.0000 0.6128155019
C   C25       1.0  0.85500  0.50048  0.18967  1.0000 0.6208089616
C   C26       1.0  0.18967  0.85500  0.50048  1.0000 0.6208089616
C   C27       1.0  0.50048  0.18967  0.85500  1.0000 0.6208089616
C   C28       1.0  0.64500  0.49952  0.68967  1.0000 0.6208089616
C   C29       1.0  0.14500  0.00048  0.31033  1.0000 0.6208089616
C   C30       1.0  0.35500  0.99952  0.81033  1.0000 0.6208089616
C   C31       1.0  0.68967  0.64500  0.49952  1.0000 0.6208089616
C   C32       1.0  0.31033  0.14500  0.00048  1.0000 0.6208089616
C   C33       1.0  0.81033  0.35500  0.99952  1.0000 0.6208089616
C   C34       1.0  0.49952  0.68967  0.64500  1.0000 0.6208089616
C   C35       1.0  0.00048  0.31033  0.14500  1.0000 0.6208089616
C   C36       1.0  0.99952  0.81033  0.35500  1.0000 0.6208089616
C   C37       1.0  0.14500  0.49952  0.81033  1.0000 0.6208089616
C   C38       1.0  0.81033  0.14500  0.49952  1.0000 0.6208089616
C   C39       1.0  0.49952  0.81033  0.14500  1.0000 0.6208089616
C   C40       1.0  0.35500  0.50048  0.31033  1.0000 0.6208089616
C   C41       1.0  0.85500  0.99952  0.68967  1.0000 0.6208089616
C   C42       1.0  0.64500  0.00048  0.18967  1.0000 0.6208089616
C   C43       1.0  0.31033  0.35500  0.50048  1.0000 0.6208089616
C   C44       1.0  0.68967  0.85500  0.99952  1.0000 0.6208089616
C   C45       1.0  0.18967  0.64500  0.00048  1.0000 0.6208089616
C   C46       1.0  0.50048  0.31033  0.35500  1.0000 0.6208089616
C   C47       1.0  0.99952  0.68967  0.85500  1.0000 0.6208089616
C   C48       1.0  0.00048  0.18967  0.64500  1.0000 0.6208089616
C   C49       1.0  0.84526  0.69392  0.16074  1.0000 -0.040881762
C   C50       1.0  0.16074  0.84526  0.69392  1.0000 -0.040881762
C   C51       1.0  0.69392  0.16074  0.84526  1.0000 -0.040881762
C   C52       1.0  0.65474  0.30608  0.66074  1.0000 -0.040881762
C   C53       1.0  0.15474  0.19392  0.33926  1.0000 -0.040881762
C   C54       1.0  0.34526  0.80608  0.83926  1.0000 -0.040881762
C   C55       1.0  0.66074  0.65474  0.30608  1.0000 -0.040881762
C   C56       1.0  0.33926  0.15474  0.19392  1.0000 -0.040881762
C   C57       1.0  0.83926  0.34526  0.80608  1.0000 -0.040881762
C   C58       1.0  0.30608  0.66074  0.65474  1.0000 -0.040881762
C   C59       1.0  0.19392  0.33926  0.15474  1.0000 -0.040881762
C   C60       1.0  0.80608  0.83926  0.34526  1.0000 -0.040881762
C   C61       1.0  0.15474  0.30608  0.83926  1.0000 -0.040881762
C   C62       1.0  0.83926  0.15474  0.30608  1.0000 -0.040881762
C   C63       1.0  0.30608  0.83926  0.15474  1.0000 -0.040881762
C   C64       1.0  0.34526  0.69392  0.33926  1.0000 -0.040881762
C   C65       1.0  0.84526  0.80608  0.66074  1.0000 -0.040881762
C   C66       1.0  0.65474  0.19392  0.16074  1.0000 -0.040881762
C   C67       1.0  0.33926  0.34526  0.69392  1.0000 -0.040881762
C   C68       1.0  0.66074  0.84526  0.80608  1.0000 -0.040881762
C   C69       1.0  0.16074  0.65474  0.19392  1.0000 -0.040881762
C   C70       1.0  0.69392  0.33926  0.34526  1.0000 -0.040881762
C   C71       1.0  0.80608  0.66074  0.84526  1.0000 -0.040881762
C   C72       1.0  0.19392  0.16074  0.65474  1.0000 -0.040881762
C   C73       1.0  0.83040  0.62343  0.15697  1.0000 -0.1102417979
C   C74       1.0  0.15697  0.83040  0.62343  1.0000 -0.1102417979
C   C75       1.0  0.62343  0.15697  0.83040  1.0000 -0.1102417979
C   C76       1.0  0.66960  0.37657  0.65697  1.0000 -0.1102417979
C   C77       1.0  0.16960  0.12343  0.34303  1.0000 -0.1102417979
C   C78       1.0  0.33040  0.87657  0.84303  1.0000 -0.1102417979
C   C79       1.0  0.65697  0.66960  0.37657  1.0000 -0.1102417979
C   C80       1.0  0.34303  0.16960  0.12343  1.0000 -0.1102417979
C   C81       1.0  0.84303  0.33040  0.87657  1.0000 -0.1102417979
C   C82       1.0  0.37657  0.65697  0.66960  1.0000 -0.1102417979
C   C83       1.0  0.12343  0.34303  0.16960  1.0000 -0.1102417979
C   C84       1.0  0.87657  0.84303  0.33040  1.0000 -0.1102417979
C   C85       1.0  0.16960  0.37657  0.84303  1.0000 -0.1102417979
C   C86       1.0  0.84303  0.16960  0.37657  1.0000 -0.1102417979
C   C87       1.0  0.37657  0.84303  0.16960  1.0000 -0.1102417979
C   C88       1.0  0.33040  0.62343  0.34303  1.0000 -0.1102417979
C   C89       1.0  0.83040  0.87657  0.65697  1.0000 -0.1102417979
C   C90       1.0  0.66960  0.12343  0.15697  1.0000 -0.1102417979
C   C91       1.0  0.34303  0.33040  0.62343  1.0000 -0.1102417979
C   C92       1.0  0.65697  0.83040  0.87657  1.0000 -0.1102417979
C   C93       1.0  0.15697  0.66960  0.12343  1.0000 -0.1102417979
C   C94       1.0  0.62343  0.34303  0.33040  1.0000 -0.1102417979
C   C95       1.0  0.87657  0.65697  0.83040  1.0000 -0.1102417979
C   C96       1.0  0.12343  0.15697  0.66960  1.0000 -0.1102417979
C   C97       1.0  0.87225  0.57596  0.19139  1.0000 -0.040881762
C   C98       1.0  0.19139  0.87225  0.57596  1.0000 -0.040881762
C   C99       1.0  0.57596  0.19139  0.87225  1.0000 -0.040881762
C   C100      1.0  0.62775  0.42404  0.69139  1.0000 -0.040881762
C   C101      1.0  0.12775  0.07596  0.30861  1.0000 -0.040881762
C   C102      1.0  0.37225  0.92404  0.80861  1.0000 -0.040881762
C   C103      1.0  0.69139  0.62775  0.42404  1.0000 -0.040881762
C   C104      1.0  0.30861  0.12775  0.07596  1.0000 -0.040881762
C   C105      1.0  0.80861  0.37225  0.92404  1.0000 -0.040881762
C   C106      1.0  0.42404  0.69139  0.62775  1.0000 -0.040881762
C   C107      1.0  0.07596  0.30861  0.12775  1.0000 -0.040881762
C   C108      1.0  0.92404  0.80861  0.37225  1.0000 -0.040881762
C   C109      1.0  0.12775  0.42404  0.80861  1.0000 -0.040881762
C   C110      1.0  0.80861  0.12775  0.42404  1.0000 -0.040881762
C   C111      1.0  0.42404  0.80861  0.12775  1.0000 -0.040881762
C   C112      1.0  0.37225  0.57596  0.30861  1.0000 -0.040881762
C   C113      1.0  0.87225  0.92404  0.69139  1.0000 -0.040881762
C   C114      1.0  0.62775  0.07596  0.19139  1.0000 -0.040881762
C   C115      1.0  0.30861  0.37225  0.57596  1.0000 -0.040881762
C   C116      1.0  0.69139  0.87225  0.92404  1.0000 -0.040881762
C   C117      1.0  0.19139  0.62775  0.07596  1.0000 -0.040881762
C   C118      1.0  0.57596  0.30861  0.37225  1.0000 -0.040881762
C   C119      1.0  0.92404  0.69139  0.87225  1.0000 -0.040881762
C   C120      1.0  0.07596  0.19139  0.62775  1.0000 -0.040881762
C   C121      1.0  0.92870  0.59920  0.23010  1.0000 -0.0974926177
C   C122      1.0  0.23010  0.92870  0.59920  1.0000 -0.0974926177
C   C123      1.0  0.59920  0.23010  0.92870  1.0000 -0.0974926177
C   C124      1.0  0.57130  0.40080  0.73010  1.0000 -0.0974926177
C   C125      1.0  0.07130  0.09920  0.26990  1.0000 -0.0974926177
C   C126      1.0  0.42870  0.90080  0.76990  1.0000 -0.0974926177
C   C127      1.0  0.73010  0.57130  0.40080  1.0000 -0.0974926177
C   C128      1.0  0.26990  0.07130  0.09920  1.0000 -0.0974926177
C   C129      1.0  0.76990  0.42870  0.90080  1.0000 -0.0974926177
C   C130      1.0  0.40080  0.73010  0.57130  1.0000 -0.0974926177
C   C131      1.0  0.09920  0.26990  0.07130  1.0000 -0.0974926177
C   C132      1.0  0.90080  0.76990  0.42870  1.0000 -0.0974926177
C   C133      1.0  0.07130  0.40080  0.76990  1.0000 -0.0974926177
C   C134      1.0  0.76990  0.07130  0.40080  1.0000 -0.0974926177
C   C135      1.0  0.40080  0.76990  0.07130  1.0000 -0.0974926177
C   C136      1.0  0.42870  0.59920  0.26990  1.0000 -0.0974926177
C   C137      1.0  0.92870  0.90080  0.73010  1.0000 -0.0974926177
C   C138      1.0  0.57130  0.09920  0.23010  1.0000 -0.0974926177
C   C139      1.0  0.26990  0.42870  0.59920  1.0000 -0.0974926177
C   C140      1.0  0.73010  0.92870  0.90080  1.0000 -0.0974926177
C   C141      1.0  0.23010  0.57130  0.09920  1.0000 -0.0974926177
C   C142      1.0  0.59920  0.26990  0.42870  1.0000 -0.0974926177
C   C143      1.0  0.90080  0.73010  0.92870  1.0000 -0.0974926177
C   C144      1.0  0.09920  0.23010  0.57130  1.0000 -0.0974926177
C   C145      1.0  0.90300  0.71670  0.19770  1.0000 -0.0941678483
C   C146      1.0  0.19770  0.90300  0.71670  1.0000 -0.0941678483
C   C147      1.0  0.71670  0.19770  0.90300  1.0000 -0.0941678483
C   C148      1.0  0.59700  0.28330  0.69770  1.0000 -0.0941678483
C   C149      1.0  0.09700  0.21670  0.30230  1.0000 -0.0941678483
C   C150      1.0  0.40300  0.78330  0.80230  1.0000 -0.0941678483
C   C151      1.0  0.69770  0.59700  0.28330  1.0000 -0.0941678483
C   C152      1.0  0.30230  0.09700  0.21670  1.0000 -0.0941678483
C   C153      1.0  0.80230  0.40300  0.78330  1.0000 -0.0941678483
C   C154      1.0  0.28330  0.69770  0.59700  1.0000 -0.0941678483
C   C155      1.0  0.21670  0.30230  0.09700  1.0000 -0.0941678483
C   C156      1.0  0.78330  0.80230  0.40300  1.0000 -0.0941678483
C   C157      1.0  0.09700  0.28330  0.80230  1.0000 -0.0941678483
C   C158      1.0  0.80230  0.09700  0.28330  1.0000 -0.0941678483
C   C159      1.0  0.28330  0.80230  0.09700  1.0000 -0.0941678483
C   C160      1.0  0.40300  0.71670  0.30230  1.0000 -0.0941678483
C   C161      1.0  0.90300  0.78330  0.69770  1.0000 -0.0941678483
C   C162      1.0  0.59700  0.21670  0.19770  1.0000 -0.0941678483
C   C163      1.0  0.30230  0.40300  0.71670  1.0000 -0.0941678483
C   C164      1.0  0.69770  0.90300  0.78330  1.0000 -0.0941678483
C   C165      1.0  0.19770  0.59700  0.21670  1.0000 -0.0941678483
C   C166      1.0  0.71670  0.30230  0.40300  1.0000 -0.0941678483
C   C167      1.0  0.78330  0.69770  0.90300  1.0000 -0.0941678483
C   C168      1.0  0.21670  0.19770  0.59700  1.0000 -0.0941678483
C   C169      1.0  0.94410  0.66930  0.23280  1.0000 -0.0974926177
C   C170      1.0  0.23280  0.94410  0.66930  1.0000 -0.0974926177
C   C171      1.0  0.66930  0.23280  0.94410  1.0000 -0.0974926177
C   C172      1.0  0.55590  0.33070  0.73280  1.0000 -0.0974926177
C   C173      1.0  0.05590  0.16930  0.26720  1.0000 -0.0974926177
C   C174      1.0  0.44410  0.83070  0.76720  1.0000 -0.0974926177
C   C175      1.0  0.73280  0.55590  0.33070  1.0000 -0.0974926177
C   C176      1.0  0.26720  0.05590  0.16930  1.0000 -0.0974926177
C   C177      1.0  0.76720  0.44410  0.83070  1.0000 -0.0974926177
C   C178      1.0  0.33070  0.73280  0.55590  1.0000 -0.0974926177
C   C179      1.0  0.16930  0.26720  0.05590  1.0000 -0.0974926177
C   C180      1.0  0.83070  0.76720  0.44410  1.0000 -0.0974926177
C   C181      1.0  0.05590  0.33070  0.76720  1.0000 -0.0974926177
C   C182      1.0  0.76720  0.05590  0.33070  1.0000 -0.0974926177
C   C183      1.0  0.33070  0.76720  0.05590  1.0000 -0.0974926177
C   C184      1.0  0.44410  0.66930  0.26720  1.0000 -0.0974926177
C   C185      1.0  0.94410  0.83070  0.73280  1.0000 -0.0974926177
C   C186      1.0  0.55590  0.16930  0.23280  1.0000 -0.0974926177
C   C187      1.0  0.26720  0.44410  0.66930  1.0000 -0.0974926177
C   C188      1.0  0.73280  0.94410  0.83070  1.0000 -0.0974926177
C   C189      1.0  0.23280  0.55590  0.16930  1.0000 -0.0974926177
C   C190      1.0  0.66930  0.26720  0.44410  1.0000 -0.0974926177
C   C191      1.0  0.83070  0.73280  0.94410  1.0000 -0.0974926177
C   C192      1.0  0.16930  0.23280  0.55590  1.0000 -0.0974926177
O   O1        1.0  0.80451  0.48174  0.15148  1.0000 -0.6181865556
O   O2        1.0  0.15148  0.80451  0.48174  1.0000 -0.6181865556
O   O3        1.0  0.48174  0.15148  0.80451  1.0000 -0.6181865556
O   O4        1.0  0.69549  0.51826  0.65148  1.0000 -0.6181865556
O   O5        1.0  0.19549  0.98174  0.34852  1.0000 -0.6181865556
O   O6        1.0  0.30451  0.01826  0.84852  1.0000 -0.6181865556
O   O7        1.0  0.65148  0.69549  0.51826  1.0000 -0.6181865556
O   O8        1.0  0.34852  0.19549  0.98174  1.0000 -0.6181865556
O   O9        1.0  0.84852  0.30451  0.01826  1.0000 -0.6181865556
O   O10       1.0  0.51826  0.65148  0.69549  1.0000 -0.6181865556
O   O11       1.0  0.98174  0.34852  0.19549  1.0000 -0.6181865556
O   O12       1.0  0.01826  0.84852  0.30451  1.0000 -0.6181865556
O   O13       1.0  0.19549  0.51826  0.84852  1.0000 -0.6181865556
O   O14       1.0  0.84852  0.19549  0.51826  1.0000 -0.6181865556
O   O15       1.0  0.51826  0.84852  0.19549  1.0000 -0.6181865556
O   O16       1.0  0.30451  0.48174  0.34852  1.0000 -0.6181865556
O   O17       1.0  0.80451  0.01826  0.65148  1.0000 -0.6181865556
O   O18       1.0  0.69549  0.98174  0.15148  1.0000 -0.6181865556
O   O19       1.0  0.34852  0.30451  0.48174  1.0000 -0.6181865556
O   O20       1.0  0.65148  0.80451  0.01826  1.0000 -0.6181865556
O   O21       1.0  0.15148  0.69549  0.98174  1.0000 -0.6181865556
O   O22       1.0  0.48174  0.34852  0.30451  1.0000 -0.6181865556
O   O23       1.0  0.01826  0.65148  0.80451  1.0000 -0.6181865556
O   O24       1.0  0.98174  0.15148  0.69549  1.0000 -0.6181865556
O   O25       1.0  0.83494  0.33494  0.16506  1.0000 -1.1641010871
O   O26       1.0  0.16506  0.83494  0.33494  1.0000 -1.1641010871
O   O27       1.0  0.33494  0.16506  0.83494  1.0000 -1.1641010871
O   O28       1.0  0.66506  0.66506  0.66506  1.0000 -1.1641010871
O   O29       1.0  0.16506  0.66506  0.83494  1.0000 -1.1641010871
O   O30       1.0  0.83494  0.16506  0.66506  1.0000 -1.1641010871
O   O31       1.0  0.66506  0.83494  0.16506  1.0000 -1.1641010871
O   O32       1.0  0.33494  0.33494  0.33494  1.0000 -1.1681851122
O   O33       1.0  0.80893  0.80864  0.13710  1.0000 -0.6106266477
O   O34       1.0  0.13710  0.80893  0.80864  1.0000 -0.6106266477
O   O35       1.0  0.80864  0.13710  0.80893  1.0000 -0.6106266477
O   O36       1.0  0.69107  0.19136  0.63710  1.0000 -0.6106266477
O   O37       1.0  0.19107  0.30864  0.36290  1.0000 -0.6106266477
O   O38       1.0  0.30893  0.69136  0.86290  1.0000 -0.6106266477
O   O39       1.0  0.63710  0.69107  0.19136  1.0000 -0.6106266477
O   O40       1.0  0.36290  0.19107  0.30864  1.0000 -0.6106266477
O   O41       1.0  0.86290  0.30893  0.69136  1.0000 -0.6106266477
O   O42       1.0  0.19136  0.63710  0.69107  1.0000 -0.6106266477
O   O43       1.0  0.30864  0.36290  0.19107  1.0000 -0.6106266477
O   O44       1.0  0.69136  0.86290  0.30893  1.0000 -0.6106266477
O   O45       1.0  0.19107  0.19136  0.86290  1.0000 -0.6106266477
O   O46       1.0  0.86290  0.19107  0.19136  1.0000 -0.6106266477
O   O47       1.0  0.19136  0.86290  0.19107  1.0000 -0.6106266477
O   O48       1.0  0.30893  0.80864  0.36290  1.0000 -0.6106266477
O   O49       1.0  0.80893  0.69136  0.63710  1.0000 -0.6106266477
O   O50       1.0  0.69107  0.30864  0.13710  1.0000 -0.6106266477
O   O51       1.0  0.36290  0.30893  0.80864  1.0000 -0.6106266477
O   O52       1.0  0.63710  0.80893  0.69136  1.0000 -0.6106266477
O   O53       1.0  0.13710  0.69107  0.30864  1.0000 -0.6106266477
O   O54       1.0  0.80864  0.36290  0.30893  1.0000 -0.6106266477
O   O55       1.0  0.69136  0.63710  0.80893  1.0000 -0.6106266477
O   O56       1.0  0.30864  0.13710  0.69107  1.0000 -0.6106266477
O   O57       1.0  0.74087  0.72206  0.10263  1.0000 -0.6106266477
O   O58       1.0  0.10263  0.74087  0.72206  1.0000 -0.6106266477
O   O59       1.0  0.72206  0.10263  0.74087  1.0000 -0.6106266477
O   O60       1.0  0.75913  0.27794  0.60263  1.0000 -0.6106266477
O   O61       1.0  0.25913  0.22206  0.39737  1.0000 -0.6106266477
O   O62       1.0  0.24087  0.77794  0.89737  1.0000 -0.6106266477
O   O63       1.0  0.60263  0.75913  0.27794  1.0000 -0.6106266477
O   O64       1.0  0.39737  0.25913  0.22206  1.0000 -0.6106266477
O   O65       1.0  0.89737  0.24087  0.77794  1.0000 -0.6106266477
O   O66       1.0  0.27794  0.60263  0.75913  1.0000 -0.6106266477
O   O67       1.0  0.22206  0.39737  0.25913  1.0000 -0.6106266477
O   O68       1.0  0.77794  0.89737  0.24087  1.0000 -0.6106266477
O   O69       1.0  0.25913  0.27794  0.89737  1.0000 -0.6106266477
O   O70       1.0  0.89737  0.25913  0.27794  1.0000 -0.6106266477
O   O71       1.0  0.27794  0.89737  0.25913  1.0000 -0.6106266477
O   O72       1.0  0.24087  0.72206  0.39737  1.0000 -0.6106266477
O   O73       1.0  0.74087  0.77794  0.60263  1.0000 -0.6106266477
O   O74       1.0  0.75913  0.22206  0.10263  1.0000 -0.6106266477
O   O75       1.0  0.39737  0.24087  0.72206  1.0000 -0.6106266477
O   O76       1.0  0.60263  0.74087  0.77794  1.0000 -0.6106266477
O   O77       1.0  0.10263  0.75913  0.22206  1.0000 -0.6106266477
O   O78       1.0  0.72206  0.39737  0.24087  1.0000 -0.6106266477
O   O79       1.0  0.77794  0.60263  0.74087  1.0000 -0.6106266477
O   O80       1.0  0.22206  0.10263  0.75913  1.0000 -0.6106266477
O   O81       1.0  0.89115  0.45975  0.22602  1.0000 -0.6181865556
O   O82       1.0  0.22602  0.89115  0.45975  1.0000 -0.6181865556
O   O83       1.0  0.45975  0.22602  0.89115  1.0000 -0.6181865556
O   O84       1.0  0.60885  0.54025  0.72602  1.0000 -0.6181865556
O   O85       1.0  0.10885  0.95975  0.27398  1.0000 -0.6181865556
O   O86       1.0  0.39115  0.04025  0.77398  1.0000 -0.6181865556
O   O87       1.0  0.72602  0.60885  0.54025  1.0000 -0.6181865556
O   O88       1.0  0.27398  0.10885  0.95975  1.0000 -0.6181865556
O   O89       1.0  0.77398  0.39115  0.04025  1.0000 -0.6181865556
O   O90       1.0  0.54025  0.72602  0.60885  1.0000 -0.6181865556
O   O91       1.0  0.95975  0.27398  0.10885  1.0000 -0.6181865556
O   O92       1.0  0.04025  0.77398  0.39115  1.0000 -0.6181865556
O   O93       1.0  0.10885  0.54025  0.77398  1.0000 -0.6181865556
O   O94       1.0  0.77398  0.10885  0.54025  1.0000 -0.6181865556
O   O95       1.0  0.54025  0.77398  0.10885  1.0000 -0.6181865556
O   O96       1.0  0.39115  0.45975  0.27398  1.0000 -0.6181865556
O   O97       1.0  0.89115  0.04025  0.72602  1.0000 -0.6181865556
O   O98       1.0  0.60885  0.95975  0.22602  1.0000 -0.6181865556
O   O99       1.0  0.27398  0.39115  0.45975  1.0000 -0.6181865556
O   O100      1.0  0.72602  0.89115  0.04025  1.0000 -0.6181865556
O   O101      1.0  0.22602  0.60885  0.95975  1.0000 -0.6181865556
O   O102      1.0  0.45975  0.27398  0.39115  1.0000 -0.6181865556
O   O103      1.0  0.04025  0.72602  0.89115  1.0000 -0.6181865556
O   O104      1.0  0.95975  0.22602  0.60885  1.0000 -0.6181865556
