# DDEC6 charges by PACMAN v1.1 (https://github.com/mtap-research/PACMAN-charge/)
data_2002[Ce][pcu]3[ASR]1
_chemical_formula_sum              "Ce2 H18 C36 O12"
_cell_length_a       12.2015
_cell_length_b       12.3678
_cell_length_c       13.5203
_cell_angle_alpha    102.222
_cell_angle_beta     98.704
_cell_angle_gamma    106.48

_symmetry_space_group_name_H-M    "P 1"
_symmetry_Int_Tables_number       1

loop_
  _symmetry_equiv_pos_as_xyz
  'x, y, z'

loop_
  _atom_site_type_symbol
  _atom_site_label
  _atom_site_symmetry_multiplicity
  _atom_site_fract_x
  _atom_site_fract_y
  _atom_site_fract_z
  _atom_site_occupancy
  _atom_site_charge
Ce  Ce1       1.0  0.67486  0.51909  0.54604  1.0000 1.9596583849
Ce  Ce2       1.0  0.32514  0.48091  0.45396  1.0000 1.9596583849
H   H1        1.0  0.96250  0.64330  0.88820  1.0000 0.1277622214
H   H2        1.0  0.03750  0.35670  0.11180  1.0000 0.1277622214
H   H3        1.0  0.79780  0.30010  0.79420  1.0000 0.1208806975
H   H4        1.0  0.20220  0.69990  0.20580  1.0000 0.1208806975
H   H5        1.0  0.10590  0.72150  0.05590  1.0000 0.1208806975
H   H6        1.0  0.89410  0.27850  0.94410  1.0000 0.1208806975
H   H7        1.0  0.41490  0.77050  0.45620  1.0000 0.1208806975
H   H8        1.0  0.58510  0.22950  0.54380  1.0000 0.1208806975
H   H9        1.0  0.73900  0.94890  0.62110  1.0000 0.1277622214
H   H10       1.0  0.26100  0.05110  0.37890  1.0000 0.1277622214
H   H11       1.0  0.28820  0.87790  0.39090  1.0000 0.1208806975
H   H12       1.0  0.71180  0.12210  0.60910  1.0000 0.1208806975
H   H13       1.0  0.63320  0.53100  0.86580  1.0000 0.1208806975
H   H14       1.0  0.36680  0.46900  0.13420  1.0000 0.1208806975
H   H15       1.0  0.28720  0.46890  0.79160  1.0000 0.1208806975
H   H16       1.0  0.71280  0.53110  0.20840  1.0000 0.1208806975
H   H17       1.0  0.72590  0.53770  0.04450  1.0000 0.1134002215
H   H18       1.0  0.27410  0.46230  0.95550  1.0000 0.1134002215
C   C1        1.0  0.81150  0.49090  0.72820  1.0000 0.5465079552
C   C2        1.0  0.18850  0.50910  0.27180  1.0000 0.5465079552
C   C3        1.0  0.01000  0.55710  0.99530  1.0000 0.0529593943
C   C4        1.0  0.99000  0.44290  0.00470  1.0000 0.0529593943
C   C5        1.0  0.94840  0.56940  0.89940  1.0000 -0.1557643557
C   C6        1.0  0.05160  0.43060  0.10060  1.0000 -0.1557643557
C   C7        1.0  0.87250  0.47670  0.82750  1.0000 -0.0157935465
C   C8        1.0  0.12750  0.52330  0.17250  1.0000 -0.0157935465
C   C9        1.0  0.85140  0.36520  0.84370  1.0000 -0.1144585157
C   C10       1.0  0.14860  0.63480  0.15630  1.0000 -0.1144585157
C   C11       1.0  0.08960  0.64740  0.06680  1.0000 -0.1445306087
C   C12       1.0  0.91040  0.35260  0.93320  1.0000 -0.1445306087
C   C13       1.0  0.59780  0.73010  0.54730  1.0000 0.5878034836
C   C14       1.0  0.40220  0.26990  0.45270  1.0000 0.5878034836
C   C15       1.0  0.45540  0.94770  0.47690  1.0000 0.0692804257
C   C16       1.0  0.54460  0.05230  0.52310  1.0000 0.0692804257
C   C17       1.0  0.47450  0.84150  0.48680  1.0000 -0.1557643557
C   C18       1.0  0.52550  0.15850  0.51320  1.0000 -0.1557643557
C   C19       1.0  0.57790  0.84280  0.53990  1.0000 -0.0254230344
C   C20       1.0  0.42210  0.15720  0.46010  1.0000 -0.0254230344
C   C21       1.0  0.66740  0.94830  0.58530  1.0000 -0.1006619179
C   C22       1.0  0.33260  0.05170  0.41470  1.0000 -0.1006619179
C   C23       1.0  0.34870  0.94820  0.42230  1.0000 -0.1534477119
C   C24       1.0  0.65130  0.05180  0.57770  1.0000 -0.1534477119
C   C25       1.0  0.47250  0.50610  0.70270  1.0000 0.6087172037
C   C26       1.0  0.52750  0.49390  0.29730  1.0000 0.6087172037
C   C27       1.0  0.55450  0.51140  0.98750  1.0000 0.0692804257
C   C28       1.0  0.44550  0.48860  0.01250  1.0000 0.0692804257
C   C29       1.0  0.56120  0.51680  0.88440  1.0000 -0.1534477119
C   C30       1.0  0.43880  0.48320  0.11560  1.0000 -0.1534477119
C   C31       1.0  0.46350  0.50160  0.81320  1.0000 -0.0117412923
C   C32       1.0  0.53650  0.49840  0.18680  1.0000 -0.0117412923
C   C33       1.0  0.35430  0.47990  0.84080  1.0000 -0.1006619179
C   C34       1.0  0.64570  0.52010  0.15920  1.0000 -0.1006619179
C   C35       1.0  0.65340  0.52500  0.06220  1.0000 -0.1534477119
C   C36       1.0  0.34660  0.47500  0.93780  1.0000 -0.1534477119
O   O1        1.0  0.83410  0.59130  0.71250  1.0000 -0.6040436322
O   O2        1.0  0.16590  0.40870  0.28750  1.0000 -0.6040436322
O   O3        1.0  0.73780  0.40120  0.66450  1.0000 -0.6125381136
O   O4        1.0  0.26220  0.59880  0.33550  1.0000 -0.6125381136
O   O5        1.0  0.69810  0.73390  0.58570  1.0000 -0.5648264879
O   O6        1.0  0.30190  0.26610  0.41430  1.0000 -0.5648264879
O   O7        1.0  0.51530  0.63630  0.51420  1.0000 -0.667014628
O   O8        1.0  0.48470  0.36370  0.48580  1.0000 -0.667014628
O   O9        1.0  0.57380  0.53690  0.68780  1.0000 -0.6125381136
O   O10       1.0  0.42620  0.46310  0.31220  1.0000 -0.6125381136
O   O11       1.0  0.37810  0.47930  0.63870  1.0000 -0.6423124665
O   O12       1.0  0.62190  0.52070  0.36130  1.0000 -0.6423124665
