# DDEC6 charges by PACMAN v1.1 (https://github.com/mtap-research/PACMAN-charge/)
data_2003[V][nan]3[ASR]1
_chemical_formula_sum              "V16 P16 H56 C24 O72"
_cell_length_a       14.87
_cell_length_b       10.245
_cell_length_c       18.868
_cell_angle_alpha    90
_cell_angle_beta     99.5
_cell_angle_gamma    90

_symmetry_space_group_name_H-M    "P 1"
_symmetry_Int_Tables_number       1

loop_
  _symmetry_equiv_pos_as_xyz
  'x, y, z'

loop_
  _atom_site_type_symbol
  _atom_site_label
  _atom_site_symmetry_multiplicity
  _atom_site_fract_x
  _atom_site_fract_y
  _atom_site_fract_z
  _atom_site_occupancy
  _atom_site_charge
V   V1        1.0  0.16223  0.11296  0.58612  1.0000 1.9782647058
V   V2        1.0  0.83777  0.88704  0.41388  1.0000 1.9782647058
V   V3        1.0  0.83777  0.11296  0.91388  1.0000 1.9782647058
V   V4        1.0  0.16223  0.88704  0.08612  1.0000 1.9782647058
V   V5        1.0  0.66223  0.61296  0.58612  1.0000 1.9782647058
V   V6        1.0  0.33777  0.38704  0.41388  1.0000 1.9782647058
V   V7        1.0  0.33777  0.61296  0.91388  1.0000 1.9782647058
V   V8        1.0  0.66223  0.38704  0.08612  1.0000 1.9782647058
V   V9        1.0  0.75753  0.05127  0.71506  1.0000 1.9637845471
V   V10       1.0  0.24247  0.94873  0.28494  1.0000 1.9656591132
V   V11       1.0  0.24247  0.05127  0.78494  1.0000 1.9656591132
V   V12       1.0  0.75753  0.94873  0.21506  1.0000 1.9656591132
V   V13       1.0  0.25753  0.55127  0.71506  1.0000 1.9656591132
V   V14       1.0  0.74247  0.44873  0.28494  1.0000 1.9656591132
V   V15       1.0  0.74247  0.55127  0.78494  1.0000 1.9656591132
V   V16       1.0  0.25753  0.44873  0.21506  1.0000 1.9656591132
P   P1        1.0  0.28915  0.37397  0.57791  1.0000 1.420088084
P   P2        1.0  0.71085  0.62603  0.42209  1.0000 1.420088084
P   P3        1.0  0.71085  0.37397  0.92209  1.0000 1.420088084
P   P4        1.0  0.28915  0.62603  0.07791  1.0000 1.420088084
P   P5        1.0  0.78915  0.87397  0.57791  1.0000 1.420088084
P   P6        1.0  0.21085  0.12603  0.42209  1.0000 1.420088084
P   P7        1.0  0.21085  0.87397  0.92209  1.0000 1.420088084
P   P8        1.0  0.78915  0.12603  0.07791  1.0000 1.420088084
P   P9        1.0  0.66597  0.33591  0.67065  1.0000 1.405055733
P   P10       1.0  0.33403  0.66409  0.32935  1.0000 1.4044300034
P   P11       1.0  0.33403  0.33591  0.82935  1.0000 1.405055733
P   P12       1.0  0.66597  0.66409  0.17065  1.0000 1.405055733
P   P13       1.0  0.16597  0.83591  0.67065  1.0000 1.4044300034
P   P14       1.0  0.83403  0.16409  0.32935  1.0000 1.405055733
P   P15       1.0  0.83403  0.83591  0.82935  1.0000 1.4044300034
P   P16       1.0  0.16597  0.16409  0.17065  1.0000 1.4044300034
H   H1        1.0  0.19728  0.23628  0.70210  1.0000 0.4367144607
H   H2        1.0  0.80272  0.76372  0.29790  1.0000 0.4367144607
H   H3        1.0  0.80272  0.23628  0.79790  1.0000 0.4367144607
H   H4        1.0  0.19728  0.76372  0.20210  1.0000 0.4367144607
H   H5        1.0  0.69728  0.73628  0.70210  1.0000 0.4367144607
H   H6        1.0  0.30272  0.26372  0.29790  1.0000 0.4367144607
H   H7        1.0  0.30272  0.73628  0.79790  1.0000 0.4367144607
H   H8        1.0  0.69728  0.26372  0.20210  1.0000 0.4367144607
H   H9        1.0  0.38777  0.19623  0.56876  1.0000 0.1391065722
H   H10       1.0  0.61223  0.80377  0.43124  1.0000 0.1391065722
H   H11       1.0  0.61223  0.19623  0.93124  1.0000 0.1391065722
H   H12       1.0  0.38777  0.80377  0.06876  1.0000 0.1391065722
H   H13       1.0  0.88777  0.69623  0.56876  1.0000 0.1391065722
H   H14       1.0  0.11223  0.30377  0.43124  1.0000 0.1391065722
H   H15       1.0  0.11223  0.69623  0.93124  1.0000 0.1391065722
H   H16       1.0  0.88777  0.30377  0.06876  1.0000 0.1391065722
H   H17       1.0  0.37346  0.22481  0.65902  1.0000 0.1276110053
H   H18       1.0  0.62654  0.77519  0.34098  1.0000 0.1276110053
H   H19       1.0  0.62654  0.22481  0.84098  1.0000 0.1276110053
H   H20       1.0  0.37346  0.77519  0.15902  1.0000 0.1276110053
H   H21       1.0  0.87346  0.72481  0.65902  1.0000 0.1276110053
H   H22       1.0  0.12654  0.27519  0.34098  1.0000 0.1276110053
H   H23       1.0  0.12654  0.72481  0.84098  1.0000 0.1276110053
H   H24       1.0  0.87346  0.27519  0.15902  1.0000 0.1276110053
H   H25       1.0  0.47376  0.43000  0.66038  1.0000 0.1050389647
H   H26       1.0  0.52624  0.57000  0.33962  1.0000 0.1041411474
H   H27       1.0  0.52624  0.43000  0.83962  1.0000 0.1050389647
H   H28       1.0  0.47376  0.57000  0.16038  1.0000 0.1050389647
H   H29       1.0  0.97376  0.93000  0.66038  1.0000 0.1050389647
H   H30       1.0  0.02624  0.07000  0.33962  1.0000 0.1050389647
H   H31       1.0  0.02624  0.93000  0.83962  1.0000 0.1050389647
H   H32       1.0  0.97376  0.07000  0.16038  1.0000 0.1050389647
H   H33       1.0  0.48826  0.39352  0.57092  1.0000 0.1041411474
H   H34       1.0  0.51174  0.60648  0.42908  1.0000 0.1041411474
H   H35       1.0  0.51174  0.39352  0.92908  1.0000 0.1041411474
H   H36       1.0  0.48826  0.60648  0.07092  1.0000 0.1041411474
H   H37       1.0  0.98826  0.89352  0.57092  1.0000 0.1041411474
H   H38       1.0  0.01174  0.10648  0.42908  1.0000 0.1041411474
H   H39       1.0  0.01174  0.89352  0.92908  1.0000 0.1050389647
H   H40       1.0  0.98826  0.10648  0.07092  1.0000 0.1041411474
H   H41       1.0  0.06372  0.67728  0.61247  1.0000 0.1508508153
H   H42       1.0  0.93628  0.32272  0.38753  1.0000 0.1508508153
H   H43       1.0  0.93628  0.67728  0.88753  1.0000 0.1508508153
H   H44       1.0  0.06372  0.32272  0.11247  1.0000 0.1508508153
H   H45       1.0  0.56372  0.17728  0.61247  1.0000 0.1508508153
H   H46       1.0  0.43628  0.82272  0.38753  1.0000 0.1508508153
H   H47       1.0  0.43628  0.17728  0.88753  1.0000 0.1508508153
H   H48       1.0  0.56372  0.82272  0.11247  1.0000 0.1508508153
H   H49       1.0  0.04527  0.70885  0.70091  1.0000 0.1391065722
H   H50       1.0  0.95473  0.29115  0.29909  1.0000 0.1391065722
H   H51       1.0  0.95473  0.70885  0.79909  1.0000 0.1391065722
H   H52       1.0  0.04527  0.29115  0.20091  1.0000 0.1391065722
H   H53       1.0  0.54527  0.20885  0.70091  1.0000 0.1391065722
H   H54       1.0  0.45473  0.79115  0.29909  1.0000 0.1391065722
H   H55       1.0  0.45473  0.20885  0.79909  1.0000 0.1391065722
H   H56       1.0  0.54527  0.79115  0.20091  1.0000 0.1391065722
C   C1        1.0  0.38705  0.27411  0.60972  1.0000 -0.4471986018
C   C2        1.0  0.61295  0.72589  0.39028  1.0000 -0.4471986018
C   C3        1.0  0.61295  0.27411  0.89028  1.0000 -0.4471986018
C   C4        1.0  0.38705  0.72589  0.10972  1.0000 -0.4471986018
C   C5        1.0  0.88705  0.77411  0.60972  1.0000 -0.4471986018
C   C6        1.0  0.11295  0.22589  0.39028  1.0000 -0.4471986018
C   C7        1.0  0.11295  0.77411  0.89028  1.0000 -0.4471986018
C   C8        1.0  0.88705  0.22589  0.10972  1.0000 -0.4471986018
C   C9        1.0  0.47773  0.34862  0.62208  1.0000 -0.0657683745
C   C10       1.0  0.52227  0.65138  0.37792  1.0000 -0.0657683745
C   C11       1.0  0.52227  0.34862  0.87792  1.0000 -0.0657683745
C   C12       1.0  0.47773  0.65138  0.12208  1.0000 -0.0657683745
C   C13       1.0  0.97773  0.84862  0.62208  1.0000 -0.06493195
C   C14       1.0  0.02227  0.15138  0.37792  1.0000 -0.0657683745
C   C15       1.0  0.02227  0.84862  0.87792  1.0000 -0.0657683745
C   C16       1.0  0.97773  0.15138  0.12208  1.0000 -0.06493195
C   C17       1.0  0.55688  0.25740  0.65061  1.0000 -0.4423775025
C   C18       1.0  0.44312  0.74260  0.34939  1.0000 -0.4423775025
C   C19       1.0  0.44312  0.25740  0.84939  1.0000 -0.4423775025
C   C20       1.0  0.55688  0.74260  0.15061  1.0000 -0.4423775025
C   C21       1.0  0.05688  0.75740  0.65061  1.0000 -0.4423775025
C   C22       1.0  0.94312  0.24260  0.34939  1.0000 -0.4423775025
C   C23       1.0  0.94312  0.75740  0.84939  1.0000 -0.4423775025
C   C24       1.0  0.05688  0.24260  0.15061  1.0000 -0.4423775025
O   O1        1.0  0.05501  0.13095  0.56699  1.0000 -0.6556706712
O   O2        1.0  0.94499  0.86905  0.43301  1.0000 -0.6544505045
O   O3        1.0  0.94499  0.13095  0.93301  1.0000 -0.6556706712
O   O4        1.0  0.05501  0.86905  0.06699  1.0000 -0.6544505045
O   O5        1.0  0.55501  0.63095  0.56699  1.0000 -0.6556706712
O   O6        1.0  0.44499  0.36905  0.43301  1.0000 -0.6544505045
O   O7        1.0  0.44499  0.63095  0.93301  1.0000 -0.6544505045
O   O8        1.0  0.55501  0.36905  0.06699  1.0000 -0.6544505045
O   O9        1.0  0.20225  0.29164  0.57954  1.0000 -0.8209655494
O   O10       1.0  0.79775  0.70836  0.42046  1.0000 -0.8209655494
O   O11       1.0  0.79775  0.29164  0.92046  1.0000 -0.8209655494
O   O12       1.0  0.20225  0.70836  0.07954  1.0000 -0.8209655494
O   O13       1.0  0.70225  0.79164  0.57954  1.0000 -0.8209655494
O   O14       1.0  0.29775  0.20836  0.42046  1.0000 -0.8209655494
O   O15       1.0  0.29775  0.79164  0.92046  1.0000 -0.8209655494
O   O16       1.0  0.70225  0.20836  0.07954  1.0000 -0.8209655494
O   O17       1.0  0.29405  0.42253  0.50100  1.0000 -0.768131459
O   O18       1.0  0.70595  0.57747  0.49900  1.0000 -0.768131459
O   O19       1.0  0.70595  0.42253  0.99900  1.0000 -0.768131459
O   O20       1.0  0.29405  0.57747  0.00100  1.0000 -0.768131459
O   O21       1.0  0.79405  0.92253  0.50100  1.0000 -0.768131459
O   O22       1.0  0.20595  0.07747  0.49900  1.0000 -0.768131459
O   O23       1.0  0.20595  0.92253  0.99900  1.0000 -0.768131459
O   O24       1.0  0.79405  0.07747  0.00100  1.0000 -0.768131459
O   O25       1.0  0.68163  0.43086  0.61088  1.0000 -0.768131459
O   O26       1.0  0.31837  0.56914  0.38912  1.0000 -0.768131459
O   O27       1.0  0.31837  0.43086  0.88912  1.0000 -0.768131459
O   O28       1.0  0.68163  0.56914  0.11088  1.0000 -0.768131459
O   O29       1.0  0.18163  0.93086  0.61088  1.0000 -0.759249489
O   O30       1.0  0.81837  0.06914  0.38912  1.0000 -0.768131459
O   O31       1.0  0.81837  0.93086  0.88912  1.0000 -0.759249489
O   O32       1.0  0.18163  0.06914  0.11088  1.0000 -0.768131459
O   O33       1.0  0.65766  0.99904  0.71893  1.0000 -0.6799537674
O   O34       1.0  0.34234  0.00096  0.28107  1.0000 -0.6799537674
O   O35       1.0  0.34234  0.99904  0.78107  1.0000 -0.6799537674
O   O36       1.0  0.65766  0.00096  0.21893  1.0000 -0.6799537674
O   O37       1.0  0.15766  0.49904  0.71893  1.0000 -0.6799537674
O   O38       1.0  0.84234  0.50096  0.28107  1.0000 -0.6799537674
O   O39       1.0  0.84234  0.49904  0.78107  1.0000 -0.6799537674
O   O40       1.0  0.15766  0.50096  0.21893  1.0000 -0.6799537674
O   O41       1.0  0.74013  0.22843  0.67996  1.0000 -0.7893105162
O   O42       1.0  0.25987  0.77157  0.32004  1.0000 -0.7893105162
O   O43       1.0  0.25987  0.22843  0.82004  1.0000 -0.7893105162
O   O44       1.0  0.74013  0.77157  0.17996  1.0000 -0.7893105162
O   O45       1.0  0.24013  0.72843  0.67996  1.0000 -0.7893105162
O   O46       1.0  0.75987  0.27157  0.32004  1.0000 -0.7893105162
O   O47       1.0  0.75987  0.72843  0.82004  1.0000 -0.7893105162
O   O48       1.0  0.24013  0.27157  0.17996  1.0000 -0.7893105162
O   O49       1.0  0.66646  0.41167  0.74224  1.0000 -0.796412544
O   O50       1.0  0.33354  0.58833  0.25776  1.0000 -0.7893105162
O   O51       1.0  0.33354  0.41167  0.75776  1.0000 -0.796412544
O   O52       1.0  0.66646  0.58833  0.24224  1.0000 -0.796412544
O   O53       1.0  0.16646  0.91167  0.74224  1.0000 -0.7893105162
O   O54       1.0  0.83354  0.08833  0.25776  1.0000 -0.796412544
O   O55       1.0  0.83354  0.91167  0.75776  1.0000 -0.7893105162
O   O56       1.0  0.16646  0.08833  0.24224  1.0000 -0.796412544
O   O57       1.0  0.28747  0.49704  0.62509  1.0000 -0.759249489
O   O58       1.0  0.71253  0.50296  0.37491  1.0000 -0.759249489
O   O59       1.0  0.71253  0.49704  0.87491  1.0000 -0.759249489
O   O60       1.0  0.28747  0.50296  0.12509  1.0000 -0.759249489
O   O61       1.0  0.78747  0.99704  0.62509  1.0000 -0.759249489
O   O62       1.0  0.21253  0.00296  0.37491  1.0000 -0.759249489
O   O63       1.0  0.21253  0.99704  0.87491  1.0000 -0.759249489
O   O64       1.0  0.78747  0.00296  0.12509  1.0000 -0.759249489
O   O65       1.0  0.19884  0.14306  0.69176  1.0000 -0.9837755174
O   O66       1.0  0.80116  0.85694  0.30824  1.0000 -0.9837755174
O   O67       1.0  0.80116  0.14306  0.80824  1.0000 -0.9837755174
O   O68       1.0  0.19884  0.85694  0.19176  1.0000 -0.9837755174
O   O69       1.0  0.69884  0.64306  0.69176  1.0000 -0.9837755174
O   O70       1.0  0.30116  0.35694  0.30824  1.0000 -0.9837755174
O   O71       1.0  0.30116  0.64306  0.80824  1.0000 -0.9837755174
O   O72       1.0  0.69884  0.35694  0.19176  1.0000 -0.9837755174
