# DDEC6 charges by PACMAN v1.1 (https://github.com/mtap-research/PACMAN-charge/)
data_2003[Co][usf]3[ASR]1
_chemical_formula_sum              "Co12 H132 C204 N12 O48"
_cell_length_a       18.5355
_cell_length_b       18.5355
_cell_length_c       18.5355
_cell_angle_alpha    109.688
_cell_angle_beta     109.688
_cell_angle_gamma    109.688

_symmetry_space_group_name_H-M    "P 1"
_symmetry_Int_Tables_number       1

loop_
  _symmetry_equiv_pos_as_xyz
  'x, y, z'

loop_
  _atom_site_type_symbol
  _atom_site_label
  _atom_site_symmetry_multiplicity
  _atom_site_fract_x
  _atom_site_fract_y
  _atom_site_fract_z
  _atom_site_occupancy
  _atom_site_charge
Co  Co1       1.0  0.01597  0.43968  0.94473  1.0000 0.8761255018
Co  Co2       1.0  0.43968  0.94473  0.01597  1.0000 0.8761255018
Co  Co3       1.0  0.94473  0.01597  0.43968  1.0000 0.8761255018
Co  Co4       1.0  0.48403  0.55527  0.06032  1.0000 0.8761255018
Co  Co5       1.0  0.93968  0.51597  0.44473  1.0000 0.8761255018
Co  Co6       1.0  0.44473  0.93968  0.51597  1.0000 0.8761255018
Co  Co7       1.0  0.56032  0.05527  0.98403  1.0000 0.8761255018
Co  Co8       1.0  0.05527  0.98403  0.56032  1.0000 0.8761255018
Co  Co9       1.0  0.98403  0.56032  0.05527  1.0000 0.8761255018
Co  Co10      1.0  0.51597  0.44473  0.93968  1.0000 0.8761255018
Co  Co11      1.0  0.06032  0.48403  0.55527  1.0000 0.8761255018
Co  Co12      1.0  0.55527  0.06032  0.48403  1.0000 0.8761255018
H   H1        1.0  0.15920  0.40620  0.98810  1.0000 0.1279149452
H   H2        1.0  0.40620  0.98810  0.15920  1.0000 0.1279149452
H   H3        1.0  0.98810  0.15920  0.40620  1.0000 0.1279149452
H   H4        1.0  0.34080  0.51190  0.09380  1.0000 0.1279149452
H   H5        1.0  0.90620  0.65920  0.48810  1.0000 0.1279149452
H   H6        1.0  0.48810  0.90620  0.65920  1.0000 0.1279149452
H   H7        1.0  0.59380  0.01190  0.84080  1.0000 0.1279149452
H   H8        1.0  0.01190  0.84080  0.59380  1.0000 0.1279149452
H   H9        1.0  0.84080  0.59380  0.01190  1.0000 0.1279149452
H   H10       1.0  0.65920  0.48810  0.90620  1.0000 0.1279149452
H   H11       1.0  0.09380  0.34080  0.51190  1.0000 0.1279149452
H   H12       1.0  0.51190  0.09380  0.34080  1.0000 0.1279149452
H   H13       1.0  0.98206  0.51794  0.75000  1.0000 0.1279149452
H   H14       1.0  0.51794  0.75000  0.98206  1.0000 0.1279149452
H   H15       1.0  0.75000  0.98206  0.51794  1.0000 0.1279149452
H   H16       1.0  0.01794  0.48206  0.25000  1.0000 0.1279149452
H   H17       1.0  0.25000  0.01794  0.48206  1.0000 0.1279149452
H   H18       1.0  0.48206  0.25000  0.01794  1.0000 0.1279149452
H   H19       1.0  0.71540  0.36760  0.99530  1.0000 0.1184543678
H   H20       1.0  0.36760  0.99530  0.71540  1.0000 0.1184543678
H   H21       1.0  0.99530  0.71540  0.36760  1.0000 0.1184543678
H   H22       1.0  0.78460  0.50470  0.13240  1.0000 0.1184543678
H   H23       1.0  0.86760  0.21540  0.49530  1.0000 0.1184543678
H   H24       1.0  0.49530  0.86760  0.21540  1.0000 0.1184543678
H   H25       1.0  0.63240  0.00470  0.28460  1.0000 0.1184543678
H   H26       1.0  0.00470  0.28460  0.63240  1.0000 0.1184543678
H   H27       1.0  0.28460  0.63240  0.00470  1.0000 0.1184543678
H   H28       1.0  0.21540  0.49530  0.86760  1.0000 0.1184543678
H   H29       1.0  0.13240  0.78460  0.50470  1.0000 0.1184543678
H   H30       1.0  0.50470  0.13240  0.78460  1.0000 0.1184543678
H   H31       1.0  0.72580  0.25000  0.77420  1.0000 0.1184543678
H   H32       1.0  0.25000  0.77420  0.72580  1.0000 0.1184543678
H   H33       1.0  0.77420  0.72580  0.25000  1.0000 0.1184543678
H   H34       1.0  0.75000  0.22580  0.27420  1.0000 0.1184543678
H   H35       1.0  0.27420  0.75000  0.22580  1.0000 0.1184543678
H   H36       1.0  0.22580  0.27420  0.75000  1.0000 0.1184543678
H   H37       1.0  0.57201  0.25000  0.92799  1.0000 0.1184543678
H   H38       1.0  0.25000  0.92799  0.57201  1.0000 0.1184543678
H   H39       1.0  0.92799  0.57201  0.25000  1.0000 0.1184543678
H   H40       1.0  0.75000  0.07201  0.42799  1.0000 0.1184543678
H   H41       1.0  0.42799  0.75000  0.07201  1.0000 0.1184543678
H   H42       1.0  0.07201  0.42799  0.75000  1.0000 0.1184543678
H   H43       1.0  0.93360  0.09420  0.68960  1.0000 0.1184543678
H   H44       1.0  0.09420  0.68960  0.93360  1.0000 0.1184543678
H   H45       1.0  0.68960  0.93360  0.09420  1.0000 0.1184543678
H   H46       1.0  0.56640  0.81040  0.40580  1.0000 0.1184543678
H   H47       1.0  0.59420  0.43360  0.18960  1.0000 0.1184543678
H   H48       1.0  0.18960  0.59420  0.43360  1.0000 0.1184543678
H   H49       1.0  0.90580  0.31040  0.06640  1.0000 0.1184543678
H   H50       1.0  0.31040  0.06640  0.90580  1.0000 0.1184543678
H   H51       1.0  0.06640  0.90580  0.31040  1.0000 0.1184543678
H   H52       1.0  0.43360  0.18960  0.59420  1.0000 0.1184543678
H   H53       1.0  0.40580  0.56640  0.81040  1.0000 0.1184543678
H   H54       1.0  0.81040  0.40580  0.56640  1.0000 0.1184543678
H   H55       1.0  0.83730  0.14790  0.66380  1.0000 0.1279149452
H   H56       1.0  0.14790  0.66380  0.83730  1.0000 0.1279149452
H   H57       1.0  0.66380  0.83730  0.14790  1.0000 0.1279149452
H   H58       1.0  0.66270  0.83620  0.35210  1.0000 0.1279149452
H   H59       1.0  0.64790  0.33730  0.16380  1.0000 0.1279149452
H   H60       1.0  0.16380  0.64790  0.33730  1.0000 0.1279149452
H   H61       1.0  0.85210  0.33620  0.16270  1.0000 0.1279149452
H   H62       1.0  0.33620  0.16270  0.85210  1.0000 0.1279149452
H   H63       1.0  0.16270  0.85210  0.33620  1.0000 0.1279149452
H   H64       1.0  0.33730  0.16380  0.64790  1.0000 0.1279149452
H   H65       1.0  0.35210  0.66270  0.83620  1.0000 0.1279149452
H   H66       1.0  0.83620  0.35210  0.66270  1.0000 0.1279149452
H   H67       1.0  0.87960  0.28900  0.76990  1.0000 0.1008523799
H   H68       1.0  0.28900  0.76990  0.87960  1.0000 0.1008523799
H   H69       1.0  0.76990  0.87960  0.28900  1.0000 0.1008523799
H   H70       1.0  0.62040  0.73010  0.21100  1.0000 0.1008523799
H   H71       1.0  0.78900  0.37960  0.26990  1.0000 0.1008523799
H   H72       1.0  0.26990  0.78900  0.37960  1.0000 0.1008523799
H   H73       1.0  0.71100  0.23010  0.12040  1.0000 0.1008523799
H   H74       1.0  0.23010  0.12040  0.71100  1.0000 0.1008523799
H   H75       1.0  0.12040  0.71100  0.23010  1.0000 0.1008523799
H   H76       1.0  0.37960  0.26990  0.78900  1.0000 0.1008523799
H   H77       1.0  0.21100  0.62040  0.73010  1.0000 0.1008523799
H   H78       1.0  0.73010  0.21100  0.62040  1.0000 0.1008523799
H   H79       1.0  0.08230  0.11970  0.78870  1.0000 0.1279149452
H   H80       1.0  0.11970  0.78870  0.08230  1.0000 0.1279149452
H   H81       1.0  0.78870  0.08230  0.11970  1.0000 0.1279149452
H   H82       1.0  0.41770  0.71130  0.38030  1.0000 0.1279149452
H   H83       1.0  0.61970  0.58230  0.28870  1.0000 0.1279149452
H   H84       1.0  0.28870  0.61970  0.58230  1.0000 0.1279149452
H   H85       1.0  0.88030  0.21130  0.91770  1.0000 0.1279149452
H   H86       1.0  0.21130  0.91770  0.88030  1.0000 0.1279149452
H   H87       1.0  0.91770  0.88030  0.21130  1.0000 0.1279149452
H   H88       1.0  0.58230  0.28870  0.61970  1.0000 0.1279149452
H   H89       1.0  0.38030  0.41770  0.71130  1.0000 0.1279149452
H   H90       1.0  0.71130  0.38030  0.41770  1.0000 0.1279149452
H   H91       1.0  0.25800  0.35520  0.01530  1.0000 0.1070331723
H   H92       1.0  0.35520  0.01530  0.25800  1.0000 0.1070331723
H   H93       1.0  0.01530  0.25800  0.35520  1.0000 0.1070331723
H   H94       1.0  0.24200  0.48470  0.14480  1.0000 0.1070331723
H   H95       1.0  0.85520  0.75800  0.51530  1.0000 0.1070331723
H   H96       1.0  0.51530  0.85520  0.75800  1.0000 0.1070331723
H   H97       1.0  0.64480  0.98470  0.74200  1.0000 0.1070331723
H   H98       1.0  0.98470  0.74200  0.64480  1.0000 0.1070331723
H   H99       1.0  0.74200  0.64480  0.98470  1.0000 0.1070331723
H   H100      1.0  0.75800  0.51530  0.85520  1.0000 0.1070331723
H   H101      1.0  0.14480  0.24200  0.48470  1.0000 0.1070331723
H   H102      1.0  0.48470  0.14480  0.24200  1.0000 0.1070331723
H   H103      1.0  0.82836  0.67164  0.75000  1.0000 0.1184543678
H   H104      1.0  0.67164  0.75000  0.82836  1.0000 0.1184543678
H   H105      1.0  0.75000  0.82836  0.67164  1.0000 0.1184543678
H   H106      1.0  0.17164  0.32836  0.25000  1.0000 0.1184543678
H   H107      1.0  0.25000  0.17164  0.32836  1.0000 0.1184543678
H   H108      1.0  0.32836  0.25000  0.17164  1.0000 0.1184543678
H   H109      1.0  0.86870  0.63490  0.86060  1.0000 0.1279149452
H   H110      1.0  0.63490  0.86060  0.86870  1.0000 0.1279149452
H   H111      1.0  0.86060  0.86870  0.63490  1.0000 0.1279149452
H   H112      1.0  0.63130  0.63940  0.86510  1.0000 0.1279149452
H   H113      1.0  0.13490  0.36870  0.36060  1.0000 0.1279149452
H   H114      1.0  0.36060  0.13490  0.36870  1.0000 0.1279149452
H   H115      1.0  0.36510  0.13940  0.13130  1.0000 0.1279149452
H   H116      1.0  0.13940  0.13130  0.36510  1.0000 0.1279149452
H   H117      1.0  0.13130  0.36510  0.13940  1.0000 0.1279149452
H   H118      1.0  0.36870  0.36060  0.13490  1.0000 0.1279149452
H   H119      1.0  0.86510  0.63130  0.63940  1.0000 0.1184543678
H   H120      1.0  0.63940  0.86510  0.63130  1.0000 0.1279149452
H   H121      1.0  0.21920  0.21190  0.91690  1.0000 0.1070331723
H   H122      1.0  0.21190  0.91690  0.21920  1.0000 0.1070331723
H   H123      1.0  0.91690  0.21920  0.21190  1.0000 0.1070331723
H   H124      1.0  0.28080  0.58310  0.28810  1.0000 0.1070331723
H   H125      1.0  0.71190  0.71920  0.41690  1.0000 0.1070331723
H   H126      1.0  0.41690  0.71190  0.71920  1.0000 0.1070331723
H   H127      1.0  0.78810  0.08310  0.78080  1.0000 0.1070331723
H   H128      1.0  0.08310  0.78080  0.78810  1.0000 0.1070331723
H   H129      1.0  0.78080  0.78810  0.08310  1.0000 0.1070331723
H   H130      1.0  0.71920  0.41690  0.71190  1.0000 0.1070331723
H   H131      1.0  0.28810  0.28080  0.58310  1.0000 0.1070331723
H   H132      1.0  0.58310  0.28810  0.28080  1.0000 0.1070331723
C   C1        1.0  0.14245  0.34774  0.94748  1.0000 -0.1670519613
C   C2        1.0  0.34774  0.94748  0.14245  1.0000 -0.1670519613
C   C3        1.0  0.94748  0.14245  0.34774  1.0000 -0.1670519613
C   C4        1.0  0.35755  0.55252  0.15226  1.0000 -0.1670519613
C   C5        1.0  0.84774  0.64245  0.44748  1.0000 -0.1670519613
C   C6        1.0  0.44748  0.84774  0.64245  1.0000 -0.1670519613
C   C7        1.0  0.65226  0.05252  0.85755  1.0000 -0.1670519613
C   C8        1.0  0.05252  0.85755  0.65226  1.0000 -0.1670519613
C   C9        1.0  0.85755  0.65226  0.05252  1.0000 -0.1670519613
C   C10       1.0  0.64245  0.44748  0.84774  1.0000 -0.1670519613
C   C11       1.0  0.15226  0.35755  0.55252  1.0000 -0.1670519613
C   C12       1.0  0.55252  0.15226  0.35755  1.0000 -0.1670519613
C   C13       1.0  0.94960  0.54047  0.88001  1.0000 0.5719759039
C   C14       1.0  0.54047  0.88001  0.94960  1.0000 0.5719759039
C   C15       1.0  0.88001  0.94960  0.54047  1.0000 0.5719759039
C   C16       1.0  0.55040  0.61999  0.95953  1.0000 0.5719759039
C   C17       1.0  0.04047  0.44960  0.38001  1.0000 0.5719759039
C   C18       1.0  0.38001  0.04047  0.44960  1.0000 0.5719759039
C   C19       1.0  0.45953  0.11999  0.05040  1.0000 0.5719759039
C   C20       1.0  0.11999  0.05040  0.45953  1.0000 0.5719759039
C   C21       1.0  0.05040  0.45953  0.11999  1.0000 0.5719759039
C   C22       1.0  0.44960  0.38001  0.04047  1.0000 0.5719759039
C   C23       1.0  0.95953  0.55040  0.61999  1.0000 0.5719759039
C   C24       1.0  0.61999  0.95953  0.55040  1.0000 0.5719759039
C   C25       1.0  0.73660  0.31859  0.89249  1.0000 -0.0243354902
C   C26       1.0  0.31859  0.89249  0.73660  1.0000 -0.0243354902
C   C27       1.0  0.89249  0.73660  0.31859  1.0000 -0.0243354902
C   C28       1.0  0.76340  0.60751  0.18141  1.0000 -0.0243354902
C   C29       1.0  0.81859  0.23660  0.39249  1.0000 -0.0243354902
C   C30       1.0  0.39249  0.81859  0.23660  1.0000 -0.0243354902
C   C31       1.0  0.68141  0.10751  0.26340  1.0000 -0.0243354902
C   C32       1.0  0.10751  0.26340  0.68141  1.0000 -0.0243354902
C   C33       1.0  0.26340  0.68141  0.10751  1.0000 -0.0243354902
C   C34       1.0  0.23660  0.39249  0.81859  1.0000 -0.0243354902
C   C35       1.0  0.18141  0.76340  0.60751  1.0000 -0.0243354902
C   C36       1.0  0.60751  0.18141  0.76340  1.0000 -0.0243354902
C   C37       1.0  0.95071  0.54929  0.75000  1.0000 -0.1331223104
C   C38       1.0  0.54929  0.75000  0.95071  1.0000 -0.1331223104
C   C39       1.0  0.75000  0.95071  0.54929  1.0000 -0.1331223104
C   C40       1.0  0.04929  0.45071  0.25000  1.0000 -0.1331223104
C   C41       1.0  0.25000  0.04929  0.45071  1.0000 -0.1331223104
C   C42       1.0  0.45071  0.25000  0.04929  1.0000 -0.1331223104
C   C43       1.0  0.05742  0.29147  0.87056  1.0000 0.1972857438
C   C44       1.0  0.29147  0.87056  0.05742  1.0000 0.1972857438
C   C45       1.0  0.87056  0.05742  0.29147  1.0000 0.1972857438
C   C46       1.0  0.44258  0.62944  0.20853  1.0000 0.1972857438
C   C47       1.0  0.79147  0.55742  0.37056  1.0000 0.1972857438
C   C48       1.0  0.37056  0.79147  0.55742  1.0000 0.1972857438
C   C49       1.0  0.70853  0.12944  0.94258  1.0000 0.1972857438
C   C50       1.0  0.12944  0.94258  0.70853  1.0000 0.1972857438
C   C51       1.0  0.94258  0.70853  0.12944  1.0000 0.1972857438
C   C52       1.0  0.55742  0.37056  0.79147  1.0000 0.1972857438
C   C53       1.0  0.20853  0.44258  0.62944  1.0000 0.1972857438
C   C54       1.0  0.62944  0.20853  0.44258  1.0000 0.1972857438
C   C55       1.0  0.68879  0.31923  0.93708  1.0000 -0.1038413632
C   C56       1.0  0.31923  0.93708  0.68879  1.0000 -0.1038413632
C   C57       1.0  0.93708  0.68879  0.31923  1.0000 -0.1038413632
C   C58       1.0  0.81121  0.56292  0.18077  1.0000 -0.1038413632
C   C59       1.0  0.81923  0.18879  0.43708  1.0000 -0.1038413632
C   C60       1.0  0.43708  0.81923  0.18879  1.0000 -0.1038413632
C   C61       1.0  0.68077  0.06292  0.31121  1.0000 -0.1038413632
C   C62       1.0  0.06292  0.31121  0.68077  1.0000 -0.1038413632
C   C63       1.0  0.31121  0.68077  0.06292  1.0000 -0.1038413632
C   C64       1.0  0.18879  0.43708  0.81923  1.0000 -0.1038413632
C   C65       1.0  0.18077  0.81121  0.56292  1.0000 -0.1038413632
C   C66       1.0  0.56292  0.18077  0.81121  1.0000 -0.1038413632
C   C67       1.0  0.69445  0.25000  0.80555  1.0000 -0.1220543602
C   C68       1.0  0.25000  0.80555  0.69445  1.0000 -0.1220543602
C   C69       1.0  0.80555  0.69445  0.25000  1.0000 -0.1220543602
C   C70       1.0  0.75000  0.19445  0.30555  1.0000 -0.1220543602
C   C71       1.0  0.30555  0.75000  0.19445  1.0000 -0.1220543602
C   C72       1.0  0.19445  0.30555  0.75000  1.0000 -0.1220543602
C   C73       1.0  0.83180  0.39006  0.93849  1.0000 0.5719759039
C   C74       1.0  0.39006  0.93849  0.83180  1.0000 0.5719759039
C   C75       1.0  0.93849  0.83180  0.39006  1.0000 0.5719759039
C   C76       1.0  0.66820  0.56151  0.10994  1.0000 0.5719759039
C   C77       1.0  0.89006  0.33180  0.43849  1.0000 0.5719759039
C   C78       1.0  0.43849  0.89006  0.33180  1.0000 0.5719759039
C   C79       1.0  0.60994  0.06151  0.16820  1.0000 0.5719759039
C   C80       1.0  0.06151  0.16820  0.60994  1.0000 0.5719759039
C   C81       1.0  0.16820  0.60994  0.06151  1.0000 0.5719759039
C   C82       1.0  0.33180  0.43849  0.89006  1.0000 0.5719759039
C   C83       1.0  0.10994  0.66820  0.56151  1.0000 0.5719759039
C   C84       1.0  0.56151  0.10994  0.66820  1.0000 0.5719759039
C   C85       1.0  0.60332  0.25000  0.89668  1.0000 -0.0784579543
C   C86       1.0  0.25000  0.89668  0.60332  1.0000 -0.0784579543
C   C87       1.0  0.89668  0.60332  0.25000  1.0000 -0.0784579543
C   C88       1.0  0.75000  0.10332  0.39668  1.0000 -0.0784579543
C   C89       1.0  0.39668  0.75000  0.10332  1.0000 -0.0784579543
C   C90       1.0  0.10332  0.39668  0.75000  1.0000 -0.0784579543
C   C91       1.0  0.92616  0.56931  0.81314  1.0000 -0.0306592226
C   C92       1.0  0.56931  0.81314  0.92616  1.0000 -0.0306592226
C   C93       1.0  0.81314  0.92616  0.56931  1.0000 -0.0306592226
C   C94       1.0  0.57384  0.68686  0.93069  1.0000 -0.0306592226
C   C95       1.0  0.06931  0.42616  0.31314  1.0000 -0.0306592226
C   C96       1.0  0.31314  0.06931  0.42616  1.0000 -0.0306592226
C   C97       1.0  0.43069  0.18686  0.07384  1.0000 -0.0306592226
C   C98       1.0  0.18686  0.07384  0.43069  1.0000 -0.0306592226
C   C99       1.0  0.07384  0.43069  0.18686  1.0000 -0.0306592226
C   C100      1.0  0.42616  0.31314  0.06931  1.0000 -0.0306592226
C   C101      1.0  0.93069  0.57384  0.68686  1.0000 -0.0306592226
C   C102      1.0  0.68686  0.93069  0.57384  1.0000 -0.0306592226
C   C103      1.0  0.03411  0.20507  0.80972  1.0000 0.0459125778
C   C104      1.0  0.20507  0.80972  0.03411  1.0000 0.0459125778
C   C105      1.0  0.80972  0.03411  0.20507  1.0000 0.0459125778
C   C106      1.0  0.46589  0.69028  0.29493  1.0000 0.0459125778
C   C107      1.0  0.70507  0.53411  0.30972  1.0000 0.0459125778
C   C108      1.0  0.30972  0.70507  0.53411  1.0000 0.0459125778
C   C109      1.0  0.79493  0.19028  0.96589  1.0000 0.0459125778
C   C110      1.0  0.19028  0.96589  0.79493  1.0000 0.0459125778
C   C111      1.0  0.96589  0.79493  0.19028  1.0000 0.0459125778
C   C112      1.0  0.53411  0.30972  0.70507  1.0000 0.0459125778
C   C113      1.0  0.29493  0.46589  0.69028  1.0000 0.0459125778
C   C114      1.0  0.69028  0.29493  0.46589  1.0000 0.0459125778
C   C115      1.0  0.95050  0.15204  0.73186  1.0000 -0.0784579543
C   C116      1.0  0.15204  0.73186  0.95050  1.0000 -0.0784579543
C   C117      1.0  0.73186  0.95050  0.15204  1.0000 -0.0784579543
C   C118      1.0  0.54950  0.76814  0.34796  1.0000 -0.0784579543
C   C119      1.0  0.65204  0.45050  0.23186  1.0000 -0.0784579543
C   C120      1.0  0.23186  0.65204  0.45050  1.0000 -0.0784579543
C   C121      1.0  0.84796  0.26814  0.04950  1.0000 -0.0784579543
C   C122      1.0  0.26814  0.04950  0.84796  1.0000 -0.0784579543
C   C123      1.0  0.04950  0.84796  0.26814  1.0000 -0.0784579543
C   C124      1.0  0.45050  0.23186  0.65204  1.0000 -0.0784579543
C   C125      1.0  0.34796  0.54950  0.76814  1.0000 -0.0784579543
C   C126      1.0  0.76814  0.34796  0.54950  1.0000 -0.0784579543
C   C127      1.0  0.89381  0.18310  0.71669  1.0000 -0.1574156685
C   C128      1.0  0.18310  0.71669  0.89381  1.0000 -0.1574156685
C   C129      1.0  0.71669  0.89381  0.18310  1.0000 -0.1574156685
C   C130      1.0  0.60619  0.78331  0.31690  1.0000 -0.1574156685
C   C131      1.0  0.68310  0.39381  0.21669  1.0000 -0.1574156685
C   C132      1.0  0.21669  0.68310  0.39381  1.0000 -0.1574156685
C   C133      1.0  0.81690  0.28331  0.10619  1.0000 -0.1574156685
C   C134      1.0  0.28331  0.10619  0.81690  1.0000 -0.1574156685
C   C135      1.0  0.10619  0.81690  0.28331  1.0000 -0.1574156685
C   C136      1.0  0.39381  0.21669  0.68310  1.0000 -0.1574156685
C   C137      1.0  0.31690  0.60619  0.78331  1.0000 -0.1574156685
C   C138      1.0  0.78331  0.31690  0.60619  1.0000 -0.1574156685
C   C139      1.0  0.92041  0.26840  0.78077  1.0000 0.1008523799
C   C140      1.0  0.26840  0.78077  0.92041  1.0000 0.1008523799
C   C141      1.0  0.78077  0.92041  0.26840  1.0000 0.1008523799
C   C142      1.0  0.57959  0.71923  0.23160  1.0000 0.1008523799
C   C143      1.0  0.76840  0.42041  0.28077  1.0000 0.1008523799
C   C144      1.0  0.28077  0.76840  0.42041  1.0000 0.1008523799
C   C145      1.0  0.73160  0.21923  0.07959  1.0000 0.1008523799
C   C146      1.0  0.21923  0.07959  0.73160  1.0000 0.1008523799
C   C147      1.0  0.07959  0.73160  0.21923  1.0000 0.1008523799
C   C148      1.0  0.42041  0.28077  0.76840  1.0000 0.1008523799
C   C149      1.0  0.23160  0.57959  0.71923  1.0000 0.1008523799
C   C150      1.0  0.71923  0.23160  0.57959  1.0000 0.1008523799
C   C151      1.0  0.09707  0.17736  0.82907  1.0000 -0.1220543602
C   C152      1.0  0.17736  0.82907  0.09707  1.0000 -0.1220543602
C   C153      1.0  0.82907  0.09707  0.17736  1.0000 -0.1220543602
C   C154      1.0  0.40293  0.67093  0.32264  1.0000 -0.1220543602
C   C155      1.0  0.67736  0.59707  0.32907  1.0000 -0.1220543602
C   C156      1.0  0.32907  0.67736  0.59707  1.0000 -0.1220543602
C   C157      1.0  0.82264  0.17093  0.90293  1.0000 -0.1220543602
C   C158      1.0  0.17093  0.90293  0.82264  1.0000 -0.1220543602
C   C159      1.0  0.90293  0.82264  0.17093  1.0000 -0.1220543602
C   C160      1.0  0.59707  0.32907  0.67736  1.0000 -0.1220543602
C   C161      1.0  0.32264  0.40293  0.67093  1.0000 -0.1220543602
C   C162      1.0  0.67093  0.32264  0.40293  1.0000 -0.1220543602
C   C163      1.0  0.20078  0.31726  0.96316  1.0000 -0.0700461917
C   C164      1.0  0.31726  0.96316  0.20078  1.0000 -0.0700461917
C   C165      1.0  0.96316  0.20078  0.31726  1.0000 -0.0700461917
C   C166      1.0  0.29922  0.53684  0.18274  1.0000 -0.0700461917
C   C167      1.0  0.81726  0.70078  0.46316  1.0000 -0.0700461917
C   C168      1.0  0.46316  0.81726  0.70078  1.0000 -0.0700461917
C   C169      1.0  0.68274  0.03684  0.79922  1.0000 -0.0700461917
C   C170      1.0  0.03684  0.79922  0.68274  1.0000 -0.0700461917
C   C171      1.0  0.79922  0.68274  0.03684  1.0000 -0.0700461917
C   C172      1.0  0.70078  0.46316  0.81726  1.0000 -0.0700461917
C   C173      1.0  0.18274  0.29922  0.53684  1.0000 -0.0700461917
C   C174      1.0  0.53684  0.18274  0.29922  1.0000 -0.0700461917
C   C175      1.0  0.85972  0.64028  0.75000  1.0000 -0.1038413632
C   C176      1.0  0.64028  0.75000  0.85972  1.0000 -0.1038413632
C   C177      1.0  0.75000  0.85972  0.64028  1.0000 -0.1038413632
C   C178      1.0  0.14028  0.35972  0.25000  1.0000 -0.1038413632
C   C179      1.0  0.25000  0.14028  0.35972  1.0000 -0.1038413632
C   C180      1.0  0.35972  0.25000  0.14028  1.0000 -0.1038413632
C   C181      1.0  0.88268  0.61755  0.81501  1.0000 -0.1054215335
C   C182      1.0  0.61755  0.81501  0.88268  1.0000 -0.1054215335
C   C183      1.0  0.81501  0.88268  0.61755  1.0000 -0.1038413632
C   C184      1.0  0.61732  0.68499  0.88245  1.0000 -0.1054215335
C   C185      1.0  0.11755  0.38268  0.31501  1.0000 -0.1038413632
C   C186      1.0  0.31501  0.11755  0.38268  1.0000 -0.1054215335
C   C187      1.0  0.38245  0.18499  0.11732  1.0000 -0.1054215335
C   C188      1.0  0.18499  0.11732  0.38245  1.0000 -0.1054215335
C   C189      1.0  0.11732  0.38245  0.18499  1.0000 -0.1038413632
C   C190      1.0  0.38268  0.31501  0.11755  1.0000 -0.1054215335
C   C191      1.0  0.88245  0.61732  0.68499  1.0000 -0.1054215335
C   C192      1.0  0.68499  0.88245  0.61732  1.0000 -0.1054215335
C   C193      1.0  0.17799  0.23183  0.90428  1.0000 -0.0944038099
C   C194      1.0  0.23183  0.90428  0.17799  1.0000 -0.0944038099
C   C195      1.0  0.90428  0.17799  0.23183  1.0000 -0.0944038099
C   C196      1.0  0.32201  0.59572  0.26817  1.0000 -0.0944038099
C   C197      1.0  0.73183  0.67799  0.40428  1.0000 -0.0944038099
C   C198      1.0  0.40428  0.73183  0.67799  1.0000 -0.0944038099
C   C199      1.0  0.76817  0.09572  0.82201  1.0000 -0.0944038099
C   C200      1.0  0.09572  0.82201  0.76817  1.0000 -0.0944038099
C   C201      1.0  0.82201  0.76817  0.09572  1.0000 -0.0944038099
C   C202      1.0  0.67799  0.40428  0.73183  1.0000 -0.0944038099
C   C203      1.0  0.26817  0.32201  0.59572  1.0000 -0.0944038099
C   C204      1.0  0.59572  0.26817  0.32201  1.0000 -0.0944038099
N   N1        1.0  0.99819  0.32180  0.85503  1.0000 -0.2894951331
N   N2        1.0  0.32180  0.85503  0.99819  1.0000 -0.2894951331
N   N3        1.0  0.85503  0.99819  0.32180  1.0000 -0.2894951331
N   N4        1.0  0.50181  0.64497  0.17820  1.0000 -0.2894951331
N   N5        1.0  0.82180  0.49819  0.35503  1.0000 -0.2894951331
N   N6        1.0  0.35503  0.82180  0.49819  1.0000 -0.2894951331
N   N7        1.0  0.67820  0.14497  0.00181  1.0000 -0.2894951331
N   N8        1.0  0.14497  0.00181  0.67820  1.0000 -0.2894951331
N   N9        1.0  0.00181  0.67820  0.14497  1.0000 -0.2894951331
N   N10       1.0  0.49819  0.35503  0.82180  1.0000 -0.2894951331
N   N11       1.0  0.17820  0.50181  0.64497  1.0000 -0.2894951331
N   N12       1.0  0.64497  0.17820  0.50181  1.0000 -0.2894951331
O   O1        1.0  0.88084  0.37215  0.91132  1.0000 -0.5818462201
O   O2        1.0  0.37215  0.91132  0.88084  1.0000 -0.5818462201
O   O3        1.0  0.91132  0.88084  0.37215  1.0000 -0.5818462201
O   O4        1.0  0.61916  0.58868  0.12785  1.0000 -0.5818462201
O   O5        1.0  0.87215  0.38084  0.41132  1.0000 -0.5818462201
O   O6        1.0  0.41132  0.87215  0.38084  1.0000 -0.5818462201
O   O7        1.0  0.62785  0.08868  0.11916  1.0000 -0.5818462201
O   O8        1.0  0.08868  0.11916  0.62785  1.0000 -0.5818462201
O   O9        1.0  0.11916  0.62785  0.08868  1.0000 -0.5818462201
O   O10       1.0  0.38084  0.41132  0.87215  1.0000 -0.5818462201
O   O11       1.0  0.12785  0.61916  0.58868  1.0000 -0.5818462201
O   O12       1.0  0.58868  0.12785  0.61916  1.0000 -0.5818462201
O   O13       1.0  0.96942  0.48071  0.86109  1.0000 -0.5392466016
O   O14       1.0  0.48071  0.86109  0.96942  1.0000 -0.5392466016
O   O15       1.0  0.86109  0.96942  0.48071  1.0000 -0.5392466016
O   O16       1.0  0.53058  0.63891  0.01929  1.0000 -0.5392466016
O   O17       1.0  0.98071  0.46942  0.36109  1.0000 -0.5392466016
O   O18       1.0  0.36109  0.98071  0.46942  1.0000 -0.5392466016
O   O19       1.0  0.51929  0.13891  0.03058  1.0000 -0.5392466016
O   O20       1.0  0.13891  0.03058  0.51929  1.0000 -0.5392466016
O   O21       1.0  0.03058  0.51929  0.13891  1.0000 -0.5392466016
O   O22       1.0  0.46942  0.36109  0.98071  1.0000 -0.5392466016
O   O23       1.0  0.01929  0.53058  0.63891  1.0000 -0.5392466016
O   O24       1.0  0.63891  0.01929  0.53058  1.0000 -0.5392466016
O   O25       1.0  0.85801  0.46442  0.00283  1.0000 -0.5392466016
O   O26       1.0  0.46442  0.00283  0.85801  1.0000 -0.5392466016
O   O27       1.0  0.00283  0.85801  0.46442  1.0000 -0.5392466016
O   O28       1.0  0.64199  0.49717  0.03558  1.0000 -0.5392466016
O   O29       1.0  0.96442  0.35801  0.50283  1.0000 -0.5392466016
O   O30       1.0  0.50283  0.96442  0.35801  1.0000 -0.5392466016
O   O31       1.0  0.53558  0.99717  0.14199  1.0000 -0.5392466016
O   O32       1.0  0.99717  0.14199  0.53558  1.0000 -0.5392466016
O   O33       1.0  0.14199  0.53558  0.99717  1.0000 -0.5392466016
O   O34       1.0  0.35801  0.50283  0.96442  1.0000 -0.5392466016
O   O35       1.0  0.03558  0.64199  0.49717  1.0000 -0.5392466016
O   O36       1.0  0.49717  0.03558  0.64199  1.0000 -0.5392466016
O   O37       1.0  0.94947  0.57911  0.95031  1.0000 -0.5466008313
O   O38       1.0  0.57911  0.95031  0.94947  1.0000 -0.5466008313
O   O39       1.0  0.95031  0.94947  0.57911  1.0000 -0.5466008313
O   O40       1.0  0.55053  0.54969  0.92089  1.0000 -0.5466008313
O   O41       1.0  0.07911  0.44947  0.45031  1.0000 -0.5466008313
O   O42       1.0  0.45031  0.07911  0.44947  1.0000 -0.5466008313
O   O43       1.0  0.42089  0.04969  0.05053  1.0000 -0.5466008313
O   O44       1.0  0.04969  0.05053  0.42089  1.0000 -0.5466008313
O   O45       1.0  0.05053  0.42089  0.04969  1.0000 -0.5466008313
O   O46       1.0  0.44947  0.45031  0.07911  1.0000 -0.5466008313
O   O47       1.0  0.92089  0.55053  0.54969  1.0000 -0.5466008313
O   O48       1.0  0.54969  0.92089  0.55053  1.0000 -0.5466008313
