# DDEC6 charges by PACMAN v1.1 (https://github.com/mtap-research/PACMAN-charge/)
data_2003[Ni][nan]3[ASR]1
_chemical_formula_sum              "Ni12 H312 C264 N24 O72"
_cell_length_a       24.5951
_cell_length_b       24.5951
_cell_length_c       24.5951
_cell_angle_alpha    109.471
_cell_angle_beta     109.471
_cell_angle_gamma    109.471

_symmetry_space_group_name_H-M    "P 1"
_symmetry_Int_Tables_number       1

loop_
  _symmetry_equiv_pos_as_xyz
  'x, y, z'

loop_
  _atom_site_type_symbol
  _atom_site_label
  _atom_site_symmetry_multiplicity
  _atom_site_fract_x
  _atom_site_fract_y
  _atom_site_fract_z
  _atom_site_occupancy
  _atom_site_charge
Ni  Ni1       1.0  0.97600  0.52400  0.25000  1.0000 0.6720825449
Ni  Ni2       1.0  0.52400  0.25000  0.97600  1.0000 0.6720825449
Ni  Ni3       1.0  0.25000  0.97600  0.52400  1.0000 0.6720825449
Ni  Ni4       1.0  0.52400  0.77400  0.54800  1.0000 0.6720825449
Ni  Ni5       1.0  0.25000  0.77400  0.72600  1.0000 0.6720825449
Ni  Ni6       1.0  0.97600  0.95200  0.72600  1.0000 0.6720825449
Ni  Ni7       1.0  0.77400  0.72600  0.25000  1.0000 0.6720825449
Ni  Ni8       1.0  0.54800  0.52400  0.77400  1.0000 0.6720825449
Ni  Ni9       1.0  0.72600  0.97600  0.95200  1.0000 0.6720825449
Ni  Ni10      1.0  0.77400  0.54800  0.52400  1.0000 0.6720825449
Ni  Ni11      1.0  0.95200  0.72600  0.97600  1.0000 0.6720825449
Ni  Ni12      1.0  0.72600  0.25000  0.77400  1.0000 0.6720825449
H   H1        1.0  0.91340  0.52120  0.38980  1.0000 0.1207094506
H   H2        1.0  0.52120  0.38980  0.91340  1.0000 0.1207094506
H   H3        1.0  0.38980  0.91340  0.52120  1.0000 0.1207094506
H   H4        1.0  0.52120  0.63140  0.60780  1.0000 0.1207094506
H   H5        1.0  0.38980  0.97640  0.86860  1.0000 0.1207094506
H   H6        1.0  0.91340  0.89220  0.52360  1.0000 0.1207094506
H   H7        1.0  0.63140  0.52360  0.11020  1.0000 0.1207094506
H   H8        1.0  0.60780  0.58660  0.97640  1.0000 0.1207094506
H   H9        1.0  0.86860  0.97880  0.89220  1.0000 0.1207094506
H   H10       1.0  0.97640  0.60780  0.58660  1.0000 0.1207094506
H   H11       1.0  0.89220  0.86860  0.97880  1.0000 0.1207094506
H   H12       1.0  0.52360  0.91340  0.89220  1.0000 0.1207094506
H   H13       1.0  0.60780  0.52120  0.63140  1.0000 0.1207094506
H   H14       1.0  0.86860  0.38980  0.97640  1.0000 0.1207094506
H   H15       1.0  0.52360  0.11020  0.63140  1.0000 0.1207094506
H   H16       1.0  0.11020  0.97880  0.58660  1.0000 0.1207094506
H   H17       1.0  0.58660  0.11020  0.97880  1.0000 0.1207094506
H   H18       1.0  0.97880  0.58660  0.11020  1.0000 0.1207094506
H   H19       1.0  0.97880  0.89220  0.86860  1.0000 0.1207094506
H   H20       1.0  0.97640  0.86860  0.38980  1.0000 0.1207094506
H   H21       1.0  0.89220  0.52360  0.91340  1.0000 0.1207094506
H   H22       1.0  0.63140  0.60780  0.52120  1.0000 0.1207094506
H   H23       1.0  0.58660  0.97640  0.60780  1.0000 0.1207094506
H   H24       1.0  0.11020  0.63140  0.52360  1.0000 0.1207094506
H   H25       1.0  0.04480  0.46260  0.16400  1.0000 0.1293616083
H   H26       1.0  0.46260  0.16400  0.04480  1.0000 0.1293616083
H   H27       1.0  0.16400  0.04480  0.46260  1.0000 0.1293616083
H   H28       1.0  0.46260  0.79860  0.41780  1.0000 0.1293616083
H   H29       1.0  0.16400  0.61920  0.70140  1.0000 0.1293616083
H   H30       1.0  0.04480  0.08220  0.88080  1.0000 0.1293616083
H   H31       1.0  0.79860  0.88080  0.33600  1.0000 0.1293616083
H   H32       1.0  0.41780  0.45520  0.61920  1.0000 0.1293616083
H   H33       1.0  0.70140  0.03740  0.08220  1.0000 0.1293616083
H   H34       1.0  0.61920  0.41780  0.45520  1.0000 0.1293616083
H   H35       1.0  0.08220  0.70140  0.03740  1.0000 0.1293616083
H   H36       1.0  0.88080  0.04480  0.08220  1.0000 0.1293616083
H   H37       1.0  0.41780  0.46260  0.79860  1.0000 0.1293616083
H   H38       1.0  0.70140  0.16400  0.61920  1.0000 0.1293616083
H   H39       1.0  0.88080  0.33600  0.79860  1.0000 0.1293616083
H   H40       1.0  0.33600  0.03740  0.45520  1.0000 0.1293616083
H   H41       1.0  0.45520  0.33600  0.03740  1.0000 0.1293616083
H   H42       1.0  0.03740  0.45520  0.33600  1.0000 0.1293616083
H   H43       1.0  0.03740  0.08220  0.70140  1.0000 0.1293616083
H   H44       1.0  0.61920  0.70140  0.16400  1.0000 0.1293616083
H   H45       1.0  0.08220  0.88080  0.04480  1.0000 0.1293616083
H   H46       1.0  0.79860  0.41780  0.46260  1.0000 0.1293616083
H   H47       1.0  0.45520  0.61920  0.41780  1.0000 0.1293616083
H   H48       1.0  0.33600  0.79860  0.88080  1.0000 0.1293616083
H   H49       1.0  0.09970  0.44320  0.19230  1.0000 0.1293616083
H   H50       1.0  0.44320  0.19230  0.09970  1.0000 0.1293616083
H   H51       1.0  0.19230  0.09970  0.44320  1.0000 0.1293616083
H   H52       1.0  0.44320  0.75090  0.34350  1.0000 0.1293616083
H   H53       1.0  0.19230  0.59260  0.74910  1.0000 0.1293616083
H   H54       1.0  0.09970  0.15650  0.90740  1.0000 0.1293616083
H   H55       1.0  0.75090  0.90740  0.30770  1.0000 0.1293616083
H   H56       1.0  0.34350  0.40030  0.59260  1.0000 0.1293616083
H   H57       1.0  0.74910  0.05680  0.15650  1.0000 0.1293616083
H   H58       1.0  0.59260  0.34350  0.40030  1.0000 0.1293616083
H   H59       1.0  0.15650  0.74910  0.05680  1.0000 0.1293616083
H   H60       1.0  0.90740  0.09970  0.15650  1.0000 0.1293616083
H   H61       1.0  0.34350  0.44320  0.75090  1.0000 0.1293616083
H   H62       1.0  0.74910  0.19230  0.59260  1.0000 0.1293616083
H   H63       1.0  0.90740  0.30770  0.75090  1.0000 0.1293616083
H   H64       1.0  0.30770  0.05680  0.40030  1.0000 0.1293616083
H   H65       1.0  0.40030  0.30770  0.05680  1.0000 0.1293616083
H   H66       1.0  0.05680  0.40030  0.30770  1.0000 0.1293616083
H   H67       1.0  0.05680  0.15650  0.74910  1.0000 0.1293616083
H   H68       1.0  0.59260  0.74910  0.19230  1.0000 0.1293616083
H   H69       1.0  0.15650  0.90740  0.09970  1.0000 0.1293616083
H   H70       1.0  0.75090  0.34350  0.44320  1.0000 0.1293616083
H   H71       1.0  0.40030  0.59260  0.34350  1.0000 0.1293616083
H   H72       1.0  0.30770  0.75090  0.90740  1.0000 0.1293616083
H   H73       1.0  0.12130  0.51920  0.21330  1.0000 0.1293616083
H   H74       1.0  0.51920  0.21330  0.12130  1.0000 0.1293616083
H   H75       1.0  0.21330  0.12130  0.51920  1.0000 0.1293616083
H   H76       1.0  0.51920  0.80590  0.39790  1.0000 0.1293616083
H   H77       1.0  0.21330  0.59200  0.69410  1.0000 0.1293616083
H   H78       1.0  0.12130  0.10210  0.90800  1.0000 0.1293616083
H   H79       1.0  0.80590  0.90800  0.28670  1.0000 0.1293616083
H   H80       1.0  0.39790  0.37870  0.59200  1.0000 0.1293616083
H   H81       1.0  0.69410  0.98080  0.10210  1.0000 0.1293616083
H   H82       1.0  0.59200  0.39790  0.37870  1.0000 0.1293616083
H   H83       1.0  0.10210  0.69410  0.98080  1.0000 0.1293616083
H   H84       1.0  0.90800  0.12130  0.10210  1.0000 0.1293616083
H   H85       1.0  0.39790  0.51920  0.80590  1.0000 0.1293616083
H   H86       1.0  0.69410  0.21330  0.59200  1.0000 0.1293616083
H   H87       1.0  0.90800  0.28670  0.80590  1.0000 0.1293616083
H   H88       1.0  0.28670  0.98080  0.37870  1.0000 0.1293616083
H   H89       1.0  0.37870  0.28670  0.98080  1.0000 0.1293616083
H   H90       1.0  0.98080  0.37870  0.28670  1.0000 0.1293616083
H   H91       1.0  0.98080  0.10210  0.69410  1.0000 0.1293616083
H   H92       1.0  0.59200  0.69410  0.21330  1.0000 0.1293616083
H   H93       1.0  0.10210  0.90800  0.12130  1.0000 0.1293616083
H   H94       1.0  0.80590  0.39790  0.51920  1.0000 0.1293616083
H   H95       1.0  0.37870  0.59200  0.39790  1.0000 0.1293616083
H   H96       1.0  0.28670  0.80590  0.90800  1.0000 0.1293616083
H   H97       1.0  0.86600  0.53930  0.16230  1.0000 0.1014166713
H   H98       1.0  0.53930  0.16230  0.86600  1.0000 0.1014166713
H   H99       1.0  0.16230  0.86600  0.53930  1.0000 0.1014166713
H   H100      1.0  0.53930  0.87700  0.67330  1.0000 0.1014166713
H   H101      1.0  0.16230  0.79630  0.62300  1.0000 0.1014166713
H   H102      1.0  0.86600  0.82670  0.70370  1.0000 0.1014166713
H   H103      1.0  0.87700  0.70370  0.33770  1.0000 0.1014166713
H   H104      1.0  0.67330  0.63400  0.79630  1.0000 0.1014166713
H   H105      1.0  0.62300  0.96070  0.82670  1.0000 0.1014166713
H   H106      1.0  0.79630  0.67330  0.63400  1.0000 0.1014166713
H   H107      1.0  0.82670  0.62300  0.96070  1.0000 0.1014166713
H   H108      1.0  0.70370  0.86600  0.82670  1.0000 0.1014166713
H   H109      1.0  0.67330  0.53930  0.87700  1.0000 0.1014166713
H   H110      1.0  0.62300  0.16230  0.79630  1.0000 0.1014166713
H   H111      1.0  0.70370  0.33770  0.87700  1.0000 0.1014166713
H   H112      1.0  0.33770  0.96070  0.63400  1.0000 0.1014166713
H   H113      1.0  0.63400  0.33770  0.96070  1.0000 0.1014166713
H   H114      1.0  0.96070  0.63400  0.33770  1.0000 0.1014166713
H   H115      1.0  0.96070  0.82670  0.62300  1.0000 0.1014166713
H   H116      1.0  0.79630  0.62300  0.16230  1.0000 0.1014166713
H   H117      1.0  0.82670  0.70370  0.86600  1.0000 0.1014166713
H   H118      1.0  0.87700  0.67330  0.53930  1.0000 0.1014166713
H   H119      1.0  0.63400  0.79630  0.67330  1.0000 0.1014166713
H   H120      1.0  0.33770  0.87700  0.70370  1.0000 0.1014166713
H   H121      1.0  0.75750  0.50740  0.12710  1.0000 0.1400623709
H   H122      1.0  0.50740  0.12710  0.75750  1.0000 0.1400623709
H   H123      1.0  0.12710  0.75750  0.50740  1.0000 0.1400623709
H   H124      1.0  0.50740  0.88030  0.74990  1.0000 0.1400623709
H   H125      1.0  0.12710  0.86960  0.61970  1.0000 0.1400623709
H   H126      1.0  0.75750  0.75010  0.63040  1.0000 0.1400623709
H   H127      1.0  0.88030  0.63040  0.37290  1.0000 0.1400623709
H   H128      1.0  0.74990  0.74250  0.86960  1.0000 0.1400623709
H   H129      1.0  0.61970  0.99260  0.75010  1.0000 0.1400623709
H   H130      1.0  0.86960  0.74990  0.74250  1.0000 0.1400623709
H   H131      1.0  0.75010  0.61970  0.99260  1.0000 0.1400623709
H   H132      1.0  0.63040  0.75750  0.75010  1.0000 0.1400623709
H   H133      1.0  0.74990  0.50740  0.88030  1.0000 0.1400623709
H   H134      1.0  0.61970  0.12710  0.86960  1.0000 0.1400623709
H   H135      1.0  0.63040  0.37290  0.88030  1.0000 0.1400623709
H   H136      1.0  0.37290  0.99260  0.74250  1.0000 0.1400623709
H   H137      1.0  0.74250  0.37290  0.99260  1.0000 0.1400623709
H   H138      1.0  0.99260  0.74250  0.37290  1.0000 0.1400623709
H   H139      1.0  0.99260  0.75010  0.61970  1.0000 0.1400623709
H   H140      1.0  0.86960  0.61970  0.12710  1.0000 0.1400623709
H   H141      1.0  0.75010  0.63040  0.75750  1.0000 0.1400623709
H   H142      1.0  0.88030  0.74990  0.50740  1.0000 0.1400623709
H   H143      1.0  0.74250  0.86960  0.74990  1.0000 0.1400623709
H   H144      1.0  0.37290  0.88030  0.63040  1.0000 0.1400623709
H   H145      1.0  0.69620  0.43980  0.14940  1.0000 0.1293616083
H   H146      1.0  0.43980  0.14940  0.69620  1.0000 0.1293616083
H   H147      1.0  0.14940  0.69620  0.43980  1.0000 0.1293616083
H   H148      1.0  0.43980  0.79040  0.74360  1.0000 0.1293616083
H   H149      1.0  0.14940  0.95320  0.70960  1.0000 0.1293616083
H   H150      1.0  0.69620  0.75640  0.54680  1.0000 0.1293616083
H   H151      1.0  0.79040  0.54680  0.35060  1.0000 0.1293616083
H   H152      1.0  0.74360  0.80380  0.95320  1.0000 0.1293616083
H   H153      1.0  0.70960  0.06020  0.75640  1.0000 0.1293616083
H   H154      1.0  0.95320  0.74360  0.80380  1.0000 0.1293616083
H   H155      1.0  0.75640  0.70960  0.06020  1.0000 0.1293616083
H   H156      1.0  0.54680  0.69620  0.75640  1.0000 0.1293616083
H   H157      1.0  0.74360  0.43980  0.79040  1.0000 0.1293616083
H   H158      1.0  0.70960  0.14940  0.95320  1.0000 0.1293616083
H   H159      1.0  0.54680  0.35060  0.79040  1.0000 0.1293616083
H   H160      1.0  0.35060  0.06020  0.80380  1.0000 0.1293616083
H   H161      1.0  0.80380  0.35060  0.06020  1.0000 0.1293616083
H   H162      1.0  0.06020  0.80380  0.35060  1.0000 0.1293616083
H   H163      1.0  0.06020  0.75640  0.70960  1.0000 0.1293616083
H   H164      1.0  0.95320  0.70960  0.14940  1.0000 0.1293616083
H   H165      1.0  0.75640  0.54680  0.69620  1.0000 0.1293616083
H   H166      1.0  0.79040  0.74360  0.43980  1.0000 0.1293616083
H   H167      1.0  0.80380  0.95320  0.74360  1.0000 0.1293616083
H   H168      1.0  0.35060  0.79040  0.54680  1.0000 0.1293616083
H   H169      1.0  0.74880  0.40550  0.21890  1.0000 0.1400623709
H   H170      1.0  0.40550  0.21890  0.74880  1.0000 0.1400623709
H   H171      1.0  0.21890  0.74880  0.40550  1.0000 0.1400623709
H   H172      1.0  0.40550  0.68660  0.65670  1.0000 0.1400623709
H   H173      1.0  0.21890  0.97010  0.81340  1.0000 0.1400623709
H   H174      1.0  0.74880  0.84330  0.52990  1.0000 0.1400623709
H   H175      1.0  0.68660  0.52990  0.28110  1.0000 0.1400623709
H   H176      1.0  0.65670  0.75120  0.97010  1.0000 0.1400623709
H   H177      1.0  0.81340  0.09450  0.84330  1.0000 0.1400623709
H   H178      1.0  0.97010  0.65670  0.75120  1.0000 0.1400623709
H   H179      1.0  0.84330  0.81340  0.09450  1.0000 0.1400623709
H   H180      1.0  0.52990  0.74880  0.84330  1.0000 0.1400623709
H   H181      1.0  0.65670  0.40550  0.68660  1.0000 0.1400623709
H   H182      1.0  0.81340  0.21890  0.97010  1.0000 0.1400623709
H   H183      1.0  0.52990  0.28110  0.68660  1.0000 0.1400623709
H   H184      1.0  0.28110  0.09450  0.75120  1.0000 0.1400623709
H   H185      1.0  0.75120  0.28110  0.09450  1.0000 0.1400623709
H   H186      1.0  0.09450  0.75120  0.28110  1.0000 0.1400623709
H   H187      1.0  0.09450  0.84330  0.81340  1.0000 0.1400623709
H   H188      1.0  0.97010  0.81340  0.21890  1.0000 0.1400623709
H   H189      1.0  0.84330  0.52990  0.74880  1.0000 0.1400623709
H   H190      1.0  0.68660  0.65670  0.40550  1.0000 0.1400623709
H   H191      1.0  0.75120  0.97010  0.65670  1.0000 0.1400623709
H   H192      1.0  0.28110  0.68660  0.52990  1.0000 0.1400623709
H   H193      1.0  0.86120  0.43950  0.25890  1.0000 0.1207094506
H   H194      1.0  0.43950  0.25890  0.86120  1.0000 0.1207094506
H   H195      1.0  0.25890  0.86120  0.43950  1.0000 0.1207094506
H   H196      1.0  0.43950  0.68060  0.57830  1.0000 0.1207094506
H   H197      1.0  0.25890  0.89770  0.81940  1.0000 0.1207094506
H   H198      1.0  0.86120  0.92170  0.60230  1.0000 0.1207094506
H   H199      1.0  0.68060  0.60230  0.24110  1.0000 0.1207094506
H   H200      1.0  0.57830  0.63880  0.89770  1.0000 0.1207094506
H   H201      1.0  0.81940  0.06050  0.92170  1.0000 0.1207094506
H   H202      1.0  0.89770  0.57830  0.63880  1.0000 0.1207094506
H   H203      1.0  0.92170  0.81940  0.06050  1.0000 0.1207094506
H   H204      1.0  0.60230  0.86120  0.92170  1.0000 0.1207094506
H   H205      1.0  0.57830  0.43950  0.68060  1.0000 0.1207094506
H   H206      1.0  0.81940  0.25890  0.89770  1.0000 0.1207094506
H   H207      1.0  0.60230  0.24110  0.68060  1.0000 0.1207094506
H   H208      1.0  0.24110  0.06050  0.63880  1.0000 0.1207094506
H   H209      1.0  0.63880  0.24110  0.06050  1.0000 0.1207094506
H   H210      1.0  0.06050  0.63880  0.24110  1.0000 0.1207094506
H   H211      1.0  0.06050  0.92170  0.81940  1.0000 0.1207094506
H   H212      1.0  0.89770  0.81940  0.25890  1.0000 0.1207094506
H   H213      1.0  0.92170  0.60230  0.86120  1.0000 0.1207094506
H   H214      1.0  0.68060  0.57830  0.43950  1.0000 0.1207094506
H   H215      1.0  0.63880  0.89770  0.57830  1.0000 0.1207094506
H   H216      1.0  0.24110  0.68060  0.60230  1.0000 0.1207094506
H   H217      1.0  0.06970  0.54830  0.31980  1.0000 0.3164442197
H   H218      1.0  0.54830  0.31980  0.06970  1.0000 0.3164442197
H   H219      1.0  0.31980  0.06970  0.54830  1.0000 0.3164442197
H   H220      1.0  0.54830  0.72850  0.47860  1.0000 0.3164442197
H   H221      1.0  0.31980  0.75010  0.77150  1.0000 0.3164442197
H   H222      1.0  0.06970  0.02140  0.74990  1.0000 0.3164442197
H   H223      1.0  0.72850  0.74990  0.18020  1.0000 0.3164442197
H   H224      1.0  0.47860  0.43030  0.75010  1.0000 0.3164442197
H   H225      1.0  0.77150  0.95170  0.02140  1.0000 0.3164442197
H   H226      1.0  0.75010  0.47860  0.43030  1.0000 0.3164442197
H   H227      1.0  0.02140  0.77150  0.95170  1.0000 0.3164442197
H   H228      1.0  0.74990  0.06970  0.02140  1.0000 0.3164442197
H   H229      1.0  0.47860  0.54830  0.72850  1.0000 0.3164442197
H   H230      1.0  0.77150  0.31980  0.75010  1.0000 0.3164442197
H   H231      1.0  0.74990  0.18020  0.72850  1.0000 0.3164442197
H   H232      1.0  0.18020  0.95170  0.43030  1.0000 0.3164442197
H   H233      1.0  0.43030  0.18020  0.95170  1.0000 0.3164442197
H   H234      1.0  0.95170  0.43030  0.18020  1.0000 0.3164442197
H   H235      1.0  0.95170  0.02140  0.77150  1.0000 0.3164442197
H   H236      1.0  0.75010  0.77150  0.31980  1.0000 0.3164442197
H   H237      1.0  0.02140  0.74990  0.06970  1.0000 0.3164442197
H   H238      1.0  0.72850  0.47860  0.54830  1.0000 0.3164442197
H   H239      1.0  0.43030  0.75010  0.47860  1.0000 0.3164442197
H   H240      1.0  0.18020  0.72850  0.74990  1.0000 0.3164442197
H   H241      1.0  0.15818  0.51598  0.34080  1.0000 0.1293616083
H   H242      1.0  0.51598  0.34080  0.15818  1.0000 0.1293616083
H   H243      1.0  0.34080  0.15818  0.51598  1.0000 0.1293616083
H   H244      1.0  0.51598  0.67518  0.35780  1.0000 0.1293616083
H   H245      1.0  0.34080  0.68262  0.82482  1.0000 0.1293616083
H   H246      1.0  0.15818  0.14220  0.81738  1.0000 0.1293616083
H   H247      1.0  0.67518  0.81738  0.15920  1.0000 0.1293616083
H   H248      1.0  0.35780  0.34182  0.68262  1.0000 0.1293616083
H   H249      1.0  0.82482  0.98402  0.14220  1.0000 0.1293616083
H   H250      1.0  0.68262  0.35780  0.34182  1.0000 0.1293616083
H   H251      1.0  0.14220  0.82482  0.98402  1.0000 0.1293616083
H   H252      1.0  0.81738  0.15818  0.14220  1.0000 0.1293616083
H   H253      1.0  0.35780  0.51598  0.67518  1.0000 0.1293616083
H   H254      1.0  0.82482  0.34080  0.68262  1.0000 0.1293616083
H   H255      1.0  0.81738  0.15920  0.67518  1.0000 0.1293616083
H   H256      1.0  0.15920  0.98402  0.34182  1.0000 0.1293616083
H   H257      1.0  0.34182  0.15920  0.98402  1.0000 0.1293616083
H   H258      1.0  0.98402  0.34182  0.15920  1.0000 0.1293616083
H   H259      1.0  0.98402  0.14220  0.82482  1.0000 0.1293616083
H   H260      1.0  0.68262  0.82482  0.34080  1.0000 0.1293616083
H   H261      1.0  0.14220  0.81738  0.15818  1.0000 0.1293616083
H   H262      1.0  0.67518  0.35780  0.51598  1.0000 0.1293616083
H   H263      1.0  0.34182  0.68262  0.35780  1.0000 0.1293616083
H   H264      1.0  0.15920  0.67518  0.81738  1.0000 0.1293616083
H   H265      1.0  0.17380  0.54220  0.29340  1.0000 0.1207094506
H   H266      1.0  0.54220  0.29340  0.17380  1.0000 0.1207094506
H   H267      1.0  0.29340  0.17380  0.54220  1.0000 0.1207094506
H   H268      1.0  0.54220  0.74880  0.36840  1.0000 0.1207094506
H   H269      1.0  0.29340  0.61960  0.75120  1.0000 0.1207094506
H   H270      1.0  0.17380  0.13160  0.88040  1.0000 0.1207094506
H   H271      1.0  0.74880  0.88040  0.20660  1.0000 0.1207094506
H   H272      1.0  0.36840  0.32620  0.61960  1.0000 0.1207094506
H   H273      1.0  0.75120  0.95780  0.13160  1.0000 0.1207094506
H   H274      1.0  0.61960  0.36840  0.32620  1.0000 0.1207094506
H   H275      1.0  0.13160  0.75120  0.95780  1.0000 0.1207094506
H   H276      1.0  0.88040  0.17380  0.13160  1.0000 0.1207094506
H   H277      1.0  0.36840  0.54220  0.74880  1.0000 0.1207094506
H   H278      1.0  0.75120  0.29340  0.61960  1.0000 0.1207094506
H   H279      1.0  0.88040  0.20660  0.74880  1.0000 0.1207094506
H   H280      1.0  0.20660  0.95780  0.32620  1.0000 0.1207094506
H   H281      1.0  0.32620  0.20660  0.95780  1.0000 0.1207094506
H   H282      1.0  0.95780  0.32620  0.20660  1.0000 0.1207094506
H   H283      1.0  0.95780  0.13160  0.75120  1.0000 0.1207094506
H   H284      1.0  0.61960  0.75120  0.29340  1.0000 0.1207094506
H   H285      1.0  0.13160  0.88040  0.17380  1.0000 0.1207094506
H   H286      1.0  0.74880  0.36840  0.54220  1.0000 0.1207094506
H   H287      1.0  0.32620  0.61960  0.36840  1.0000 0.1207094506
H   H288      1.0  0.20660  0.74880  0.88040  1.0000 0.1207094506
H   H289      1.0  0.15150  0.46640  0.27410  1.0000 0.1207094506
H   H290      1.0  0.46640  0.27410  0.15150  1.0000 0.1207094506
H   H291      1.0  0.27410  0.15150  0.46640  1.0000 0.1207094506
H   H292      1.0  0.46640  0.69230  0.31490  1.0000 0.1207094506
H   H293      1.0  0.27410  0.62260  0.80770  1.0000 0.1207094506
H   H294      1.0  0.15150  0.18510  0.87740  1.0000 0.1207094506
H   H295      1.0  0.69230  0.87740  0.22590  1.0000 0.1207094506
H   H296      1.0  0.31490  0.34850  0.62260  1.0000 0.1207094506
H   H297      1.0  0.80770  0.03360  0.18510  1.0000 0.1207094506
H   H298      1.0  0.62260  0.31490  0.34850  1.0000 0.1207094506
H   H299      1.0  0.18510  0.80770  0.03360  1.0000 0.1207094506
H   H300      1.0  0.87740  0.15150  0.18510  1.0000 0.1207094506
H   H301      1.0  0.31490  0.46640  0.69230  1.0000 0.1207094506
H   H302      1.0  0.80770  0.27410  0.62260  1.0000 0.1207094506
H   H303      1.0  0.87740  0.22590  0.69230  1.0000 0.1207094506
H   H304      1.0  0.22590  0.03360  0.34850  1.0000 0.1207094506
H   H305      1.0  0.34850  0.22590  0.03360  1.0000 0.1207094506
H   H306      1.0  0.03360  0.34850  0.22590  1.0000 0.1207094506
H   H307      1.0  0.03360  0.18510  0.80770  1.0000 0.1207094506
H   H308      1.0  0.62260  0.80770  0.27410  1.0000 0.1207094506
H   H309      1.0  0.18510  0.87740  0.15150  1.0000 0.1207094506
H   H310      1.0  0.69230  0.31490  0.46640  1.0000 0.1207094506
H   H311      1.0  0.34850  0.62260  0.31490  1.0000 0.1207094506
H   H312      1.0  0.22590  0.69230  0.87740  1.0000 0.1207094506
C   C1        1.0  0.02950  0.56140  0.39310  1.0000 0.5389804333
C   C2        1.0  0.56140  0.39310  0.02950  1.0000 0.5389804333
C   C3        1.0  0.39310  0.02950  0.56140  1.0000 0.5389804333
C   C4        1.0  0.56140  0.66830  0.53190  1.0000 0.5389804333
C   C5        1.0  0.39310  0.86360  0.83170  1.0000 0.5389804333
C   C6        1.0  0.02950  0.96810  0.63640  1.0000 0.5389804333
C   C7        1.0  0.66830  0.63640  0.10690  1.0000 0.5389804333
C   C8        1.0  0.53190  0.47050  0.86360  1.0000 0.5389804333
C   C9        1.0  0.83170  0.93860  0.96810  1.0000 0.5389804333
C   C10       1.0  0.86360  0.53190  0.47050  1.0000 0.5389804333
C   C11       1.0  0.96810  0.83170  0.93860  1.0000 0.5389804333
C   C12       1.0  0.63640  0.02950  0.96810  1.0000 0.5389804333
C   C13       1.0  0.53190  0.56140  0.66830  1.0000 0.5389804333
C   C14       1.0  0.83170  0.39310  0.86360  1.0000 0.5389804333
C   C15       1.0  0.63640  0.10690  0.66830  1.0000 0.5389804333
C   C16       1.0  0.10690  0.93860  0.47050  1.0000 0.5389804333
C   C17       1.0  0.47050  0.10690  0.93860  1.0000 0.5389804333
C   C18       1.0  0.93860  0.47050  0.10690  1.0000 0.5389804333
C   C19       1.0  0.93860  0.96810  0.83170  1.0000 0.5389804333
C   C20       1.0  0.86360  0.83170  0.39310  1.0000 0.5389804333
C   C21       1.0  0.96810  0.63640  0.02950  1.0000 0.5389804333
C   C22       1.0  0.66830  0.53190  0.56140  1.0000 0.5389804333
C   C23       1.0  0.47050  0.86360  0.53190  1.0000 0.5389804333
C   C24       1.0  0.10690  0.66830  0.63640  1.0000 0.5389804333
C   C25       1.0  0.01400  0.57380  0.44880  1.0000 -0.0306705039
C   C26       1.0  0.57380  0.44880  0.01400  1.0000 -0.0306705039
C   C27       1.0  0.44880  0.01400  0.57380  1.0000 -0.0306705039
C   C28       1.0  0.57380  0.62500  0.55980  1.0000 -0.0306705039
C   C29       1.0  0.44880  0.93480  0.87500  1.0000 -0.0306705039
C   C30       1.0  0.01400  0.94020  0.56520  1.0000 -0.0306705039
C   C31       1.0  0.62500  0.56520  0.05120  1.0000 -0.0306705039
C   C32       1.0  0.55980  0.48600  0.93480  1.0000 -0.0306705039
C   C33       1.0  0.87500  0.92620  0.94020  1.0000 -0.0306705039
C   C34       1.0  0.93480  0.55980  0.48600  1.0000 -0.0306705039
C   C35       1.0  0.94020  0.87500  0.92620  1.0000 -0.0306705039
C   C36       1.0  0.56520  0.01400  0.94020  1.0000 -0.0306705039
C   C37       1.0  0.55980  0.57380  0.62500  1.0000 -0.0306705039
C   C38       1.0  0.87500  0.44880  0.93480  1.0000 -0.0306705039
C   C39       1.0  0.56520  0.05120  0.62500  1.0000 -0.0306705039
C   C40       1.0  0.05120  0.92620  0.48600  1.0000 -0.0306705039
C   C41       1.0  0.48600  0.05120  0.92620  1.0000 -0.0306705039
C   C42       1.0  0.92620  0.48600  0.05120  1.0000 -0.0306705039
C   C43       1.0  0.92620  0.94020  0.87500  1.0000 -0.0306705039
C   C44       1.0  0.93480  0.87500  0.44880  1.0000 -0.0306705039
C   C45       1.0  0.94020  0.56520  0.01400  1.0000 -0.0306705039
C   C46       1.0  0.62500  0.55980  0.57380  1.0000 -0.0306705039
C   C47       1.0  0.48600  0.93480  0.55980  1.0000 -0.0306705039
C   C48       1.0  0.05120  0.62500  0.56520  1.0000 -0.0306705039
C   C49       1.0  0.94867  0.54756  0.43467  1.0000 -0.1198983689
C   C50       1.0  0.54756  0.43467  0.94867  1.0000 -0.1198983689
C   C51       1.0  0.43467  0.94867  0.54756  1.0000 -0.1198983689
C   C52       1.0  0.54756  0.61289  0.59889  1.0000 -0.1198983689
C   C53       1.0  0.43467  0.98600  0.88711  1.0000 -0.1198983689
C   C54       1.0  0.94867  0.90111  0.51400  1.0000 -0.1198983689
C   C55       1.0  0.61289  0.51400  0.06533  1.0000 -0.1198983689
C   C56       1.0  0.59889  0.55133  0.98600  1.0000 -0.1198983689
C   C57       1.0  0.88711  0.95244  0.90111  1.0000 -0.1198983689
C   C58       1.0  0.98600  0.59889  0.55133  1.0000 -0.1198983689
C   C59       1.0  0.90111  0.88711  0.95244  1.0000 -0.1198983689
C   C60       1.0  0.51400  0.94867  0.90111  1.0000 -0.1198983689
C   C61       1.0  0.59889  0.54756  0.61289  1.0000 -0.1198983689
C   C62       1.0  0.88711  0.43467  0.98600  1.0000 -0.1198983689
C   C63       1.0  0.51400  0.06533  0.61289  1.0000 -0.1198983689
C   C64       1.0  0.06533  0.95244  0.55133  1.0000 -0.1198983689
C   C65       1.0  0.55133  0.06533  0.95244  1.0000 -0.1198983689
C   C66       1.0  0.95244  0.55133  0.06533  1.0000 -0.1198983689
C   C67       1.0  0.95244  0.90111  0.88711  1.0000 -0.1198983689
C   C68       1.0  0.98600  0.88711  0.43467  1.0000 -0.1198983689
C   C69       1.0  0.90111  0.51400  0.94867  1.0000 -0.1198983689
C   C70       1.0  0.61289  0.59889  0.54756  1.0000 -0.1198983689
C   C71       1.0  0.55133  0.98600  0.59889  1.0000 -0.1198983689
C   C72       1.0  0.06533  0.61289  0.51400  1.0000 -0.1198983689
C   C73       1.0  0.07670  0.48570  0.25800  1.0000 0.2900974319
C   C74       1.0  0.48570  0.25800  0.07670  1.0000 0.2900974319
C   C75       1.0  0.25800  0.07670  0.48570  1.0000 0.2900974319
C   C76       1.0  0.48570  0.72770  0.40900  1.0000 0.2900974319
C   C77       1.0  0.25800  0.68130  0.77230  1.0000 0.2900974319
C   C78       1.0  0.07670  0.09100  0.81870  1.0000 0.2900974319
C   C79       1.0  0.72770  0.81870  0.24200  1.0000 0.2900974319
C   C80       1.0  0.40900  0.42330  0.68130  1.0000 0.2900974319
C   C81       1.0  0.77230  0.01430  0.09100  1.0000 0.2900974319
C   C82       1.0  0.68130  0.40900  0.42330  1.0000 0.2900974319
C   C83       1.0  0.09100  0.77230  0.01430  1.0000 0.2900974319
C   C84       1.0  0.81870  0.07670  0.09100  1.0000 0.2900974319
C   C85       1.0  0.40900  0.48570  0.72770  1.0000 0.2900974319
C   C86       1.0  0.77230  0.25800  0.68130  1.0000 0.2900974319
C   C87       1.0  0.81870  0.24200  0.72770  1.0000 0.2900974319
C   C88       1.0  0.24200  0.01430  0.42330  1.0000 0.2900974319
C   C89       1.0  0.42330  0.24200  0.01430  1.0000 0.2900974319
C   C90       1.0  0.01430  0.42330  0.24200  1.0000 0.2900974319
C   C91       1.0  0.01430  0.09100  0.77230  1.0000 0.2900974319
C   C92       1.0  0.68130  0.77230  0.25800  1.0000 0.2900974319
C   C93       1.0  0.09100  0.81870  0.07670  1.0000 0.2900974319
C   C94       1.0  0.72770  0.40900  0.48570  1.0000 0.2900974319
C   C95       1.0  0.42330  0.68130  0.40900  1.0000 0.2900974319
C   C96       1.0  0.24200  0.72770  0.81870  1.0000 0.2900974319
C   C97       1.0  0.08640  0.47700  0.20260  1.0000 -0.3898189177
C   C98       1.0  0.47700  0.20260  0.08640  1.0000 -0.3898189177
C   C99       1.0  0.20260  0.08640  0.47700  1.0000 -0.3898189177
C   C100      1.0  0.47700  0.77440  0.39060  1.0000 -0.3898189177
C   C101      1.0  0.20260  0.61620  0.72560  1.0000 -0.3898189177
C   C102      1.0  0.08640  0.10940  0.88380  1.0000 -0.3898189177
C   C103      1.0  0.77440  0.88380  0.29740  1.0000 -0.3898189177
C   C104      1.0  0.39060  0.41360  0.61620  1.0000 -0.3898189177
C   C105      1.0  0.72560  0.02300  0.10940  1.0000 -0.3898189177
C   C106      1.0  0.61620  0.39060  0.41360  1.0000 -0.3898189177
C   C107      1.0  0.10940  0.72560  0.02300  1.0000 -0.3898189177
C   C108      1.0  0.88380  0.08640  0.10940  1.0000 -0.3898189177
C   C109      1.0  0.39060  0.47700  0.77440  1.0000 -0.3898189177
C   C110      1.0  0.72560  0.20260  0.61620  1.0000 -0.3898189177
C   C111      1.0  0.88380  0.29740  0.77440  1.0000 -0.3898189177
C   C112      1.0  0.29740  0.02300  0.41360  1.0000 -0.3898189177
C   C113      1.0  0.41360  0.29740  0.02300  1.0000 -0.3898189177
C   C114      1.0  0.02300  0.41360  0.29740  1.0000 -0.3898189177
C   C115      1.0  0.02300  0.10940  0.72560  1.0000 -0.3898189177
C   C116      1.0  0.61620  0.72560  0.20260  1.0000 -0.3898189177
C   C117      1.0  0.10940  0.88380  0.08640  1.0000 -0.3898189177
C   C118      1.0  0.77440  0.39060  0.47700  1.0000 -0.3898189177
C   C119      1.0  0.41360  0.61620  0.39060  1.0000 -0.3898189177
C   C120      1.0  0.29740  0.77440  0.88380  1.0000 -0.3898189177
C   C121      1.0  0.84250  0.51140  0.17510  1.0000 0.017828466
C   C122      1.0  0.51140  0.17510  0.84250  1.0000 0.017828466
C   C123      1.0  0.17510  0.84250  0.51140  1.0000 0.017828466
C   C124      1.0  0.51140  0.83630  0.66890  1.0000 0.017828466
C   C125      1.0  0.17510  0.83260  0.66370  1.0000 0.017828466
C   C126      1.0  0.84250  0.83110  0.66740  1.0000 0.017828466
C   C127      1.0  0.83630  0.66740  0.32490  1.0000 0.017828466
C   C128      1.0  0.66890  0.65750  0.83260  1.0000 0.017828466
C   C129      1.0  0.66370  0.98860  0.83110  1.0000 0.017828466
C   C130      1.0  0.83260  0.66890  0.65750  1.0000 0.017828466
C   C131      1.0  0.83110  0.66370  0.98860  1.0000 0.017828466
C   C132      1.0  0.66740  0.84250  0.83110  1.0000 0.017828466
C   C133      1.0  0.66890  0.51140  0.83630  1.0000 0.017828466
C   C134      1.0  0.66370  0.17510  0.83260  1.0000 0.017828466
C   C135      1.0  0.66740  0.32490  0.83630  1.0000 0.017828466
C   C136      1.0  0.32490  0.98860  0.65750  1.0000 0.017828466
C   C137      1.0  0.65750  0.32490  0.98860  1.0000 0.017828466
C   C138      1.0  0.98860  0.65750  0.32490  1.0000 0.017828466
C   C139      1.0  0.98860  0.83110  0.66370  1.0000 0.017828466
C   C140      1.0  0.83260  0.66370  0.17510  1.0000 0.017828466
C   C141      1.0  0.83110  0.66740  0.84250  1.0000 0.017828466
C   C142      1.0  0.83630  0.66890  0.51140  1.0000 0.017828466
C   C143      1.0  0.65750  0.83260  0.66890  1.0000 0.017828466
C   C144      1.0  0.32490  0.83630  0.66740  1.0000 0.017828466
C   C145      1.0  0.77760  0.49160  0.15360  1.0000 -0.1590423109
C   C146      1.0  0.49160  0.15360  0.77760  1.0000 -0.1590423109
C   C147      1.0  0.15360  0.77760  0.49160  1.0000 -0.1590423109
C   C148      1.0  0.49160  0.83800  0.71400  1.0000 -0.1590423109
C   C149      1.0  0.15360  0.87600  0.66200  1.0000 -0.1590423109
C   C150      1.0  0.77760  0.78600  0.62400  1.0000 -0.1590423109
C   C151      1.0  0.83800  0.62400  0.34640  1.0000 -0.1590423109
C   C152      1.0  0.71400  0.72240  0.87600  1.0000 -0.1590423109
C   C153      1.0  0.66200  0.00840  0.78600  1.0000 -0.1590423109
C   C154      1.0  0.87600  0.71400  0.72240  1.0000 -0.1590423109
C   C155      1.0  0.78600  0.66200  0.00840  1.0000 -0.1590423109
C   C156      1.0  0.62400  0.77760  0.78600  1.0000 -0.1590423109
C   C157      1.0  0.71400  0.49160  0.83800  1.0000 -0.1590423109
C   C158      1.0  0.66200  0.15360  0.87600  1.0000 -0.1590423109
C   C159      1.0  0.62400  0.34640  0.83800  1.0000 -0.1590423109
C   C160      1.0  0.34640  0.00840  0.72240  1.0000 -0.1590423109
C   C161      1.0  0.72240  0.34640  0.00840  1.0000 -0.1590423109
C   C162      1.0  0.00840  0.72240  0.34640  1.0000 -0.1590423109
C   C163      1.0  0.00840  0.78600  0.66200  1.0000 -0.1590423109
C   C164      1.0  0.87600  0.66200  0.15360  1.0000 -0.1590423109
C   C165      1.0  0.78600  0.62400  0.77760  1.0000 -0.1590423109
C   C166      1.0  0.83800  0.71400  0.49160  1.0000 -0.1590423109
C   C167      1.0  0.72240  0.87600  0.71400  1.0000 -0.1590423109
C   C168      1.0  0.34640  0.83800  0.62400  1.0000 -0.1590423109
C   C169      1.0  0.74230  0.45390  0.16660  1.0000 -0.0306705039
C   C170      1.0  0.45390  0.16660  0.74230  1.0000 -0.0306705039
C   C171      1.0  0.16660  0.74230  0.45390  1.0000 -0.0306705039
C   C172      1.0  0.45390  0.78730  0.71160  1.0000 -0.0306705039
C   C173      1.0  0.16660  0.92430  0.71270  1.0000 -0.0306705039
C   C174      1.0  0.74230  0.78840  0.57570  1.0000 -0.0306705039
C   C175      1.0  0.78730  0.57570  0.33340  1.0000 -0.0306705039
C   C176      1.0  0.71160  0.75770  0.92430  1.0000 -0.0306705039
C   C177      1.0  0.71270  0.04610  0.78840  1.0000 -0.0306705039
C   C178      1.0  0.92430  0.71160  0.75770  1.0000 -0.0306705039
C   C179      1.0  0.78840  0.71270  0.04610  1.0000 -0.0306705039
C   C180      1.0  0.57570  0.74230  0.78840  1.0000 -0.0306705039
C   C181      1.0  0.71160  0.45390  0.78730  1.0000 -0.0306705039
C   C182      1.0  0.71270  0.16660  0.92430  1.0000 -0.0306705039
C   C183      1.0  0.57570  0.33340  0.78730  1.0000 -0.0306705039
C   C184      1.0  0.33340  0.04610  0.75770  1.0000 -0.0306705039
C   C185      1.0  0.75770  0.33340  0.04610  1.0000 -0.0306705039
C   C186      1.0  0.04610  0.75770  0.33340  1.0000 -0.0306705039
C   C187      1.0  0.04610  0.78840  0.71270  1.0000 -0.0306705039
C   C188      1.0  0.92430  0.71270  0.16660  1.0000 -0.0306705039
C   C189      1.0  0.78840  0.57570  0.74230  1.0000 -0.0306705039
C   C190      1.0  0.78730  0.71160  0.45390  1.0000 -0.0306705039
C   C191      1.0  0.75770  0.92430  0.71160  1.0000 -0.0306705039
C   C192      1.0  0.33340  0.78730  0.57570  1.0000 -0.0306705039
C   C193      1.0  0.77360  0.43370  0.20710  1.0000 -0.1741776035
C   C194      1.0  0.43370  0.20710  0.77360  1.0000 -0.1741776035
C   C195      1.0  0.20710  0.77360  0.43370  1.0000 -0.1741776035
C   C196      1.0  0.43370  0.72660  0.66010  1.0000 -0.1741776035
C   C197      1.0  0.20710  0.93350  0.77340  1.0000 -0.1741776035
C   C198      1.0  0.77360  0.83990  0.56650  1.0000 -0.1741776035
C   C199      1.0  0.72660  0.56650  0.29290  1.0000 -0.1741776035
C   C200      1.0  0.66010  0.72640  0.93350  1.0000 -0.1741776035
C   C201      1.0  0.77340  0.06630  0.83990  1.0000 -0.1741776035
C   C202      1.0  0.93350  0.66010  0.72640  1.0000 -0.1741776035
C   C203      1.0  0.83990  0.77340  0.06630  1.0000 -0.1741776035
C   C204      1.0  0.56650  0.77360  0.83990  1.0000 -0.1741776035
C   C205      1.0  0.66010  0.43370  0.72660  1.0000 -0.1741776035
C   C206      1.0  0.77340  0.20710  0.93350  1.0000 -0.1741776035
C   C207      1.0  0.56650  0.29290  0.72660  1.0000 -0.1741776035
C   C208      1.0  0.29290  0.06630  0.72640  1.0000 -0.1741776035
C   C209      1.0  0.72640  0.29290  0.06630  1.0000 -0.1741776035
C   C210      1.0  0.06630  0.72640  0.29290  1.0000 -0.1741776035
C   C211      1.0  0.06630  0.83990  0.77340  1.0000 -0.1741776035
C   C212      1.0  0.93350  0.77340  0.20710  1.0000 -0.1741776035
C   C213      1.0  0.83990  0.56650  0.77360  1.0000 -0.1741776035
C   C214      1.0  0.72660  0.66010  0.43370  1.0000 -0.1741776035
C   C215      1.0  0.72640  0.93350  0.66010  1.0000 -0.1741776035
C   C216      1.0  0.29290  0.72660  0.56650  1.0000 -0.1741776035
C   C217      1.0  0.84020  0.45360  0.23080  1.0000 0.0868302003
C   C218      1.0  0.45360  0.23080  0.84020  1.0000 0.0868302003
C   C219      1.0  0.23080  0.84020  0.45360  1.0000 0.0868302003
C   C220      1.0  0.45360  0.72280  0.61340  1.0000 0.0868302003
C   C221      1.0  0.23080  0.89060  0.77720  1.0000 0.0868302003
C   C222      1.0  0.84020  0.88660  0.60940  1.0000 0.0868302003
C   C223      1.0  0.72280  0.60940  0.26920  1.0000 0.0868302003
C   C224      1.0  0.61340  0.65980  0.89060  1.0000 0.0868302003
C   C225      1.0  0.77720  0.04640  0.88660  1.0000 0.0868302003
C   C226      1.0  0.89060  0.61340  0.65980  1.0000 0.0868302003
C   C227      1.0  0.88660  0.77720  0.04640  1.0000 0.0868302003
C   C228      1.0  0.60940  0.84020  0.88660  1.0000 0.0868302003
C   C229      1.0  0.61340  0.45360  0.72280  1.0000 0.0868302003
C   C230      1.0  0.77720  0.23080  0.89060  1.0000 0.0868302003
C   C231      1.0  0.60940  0.26920  0.72280  1.0000 0.0868302003
C   C232      1.0  0.26920  0.04640  0.65980  1.0000 0.0868302003
C   C233      1.0  0.65980  0.26920  0.04640  1.0000 0.0868302003
C   C234      1.0  0.04640  0.65980  0.26920  1.0000 0.0868302003
C   C235      1.0  0.04640  0.88660  0.77720  1.0000 0.0868302003
C   C236      1.0  0.89060  0.77720  0.23080  1.0000 0.0868302003
C   C237      1.0  0.88660  0.60940  0.84020  1.0000 0.0868302003
C   C238      1.0  0.72280  0.61340  0.45360  1.0000 0.0868302003
C   C239      1.0  0.65980  0.89060  0.61340  1.0000 0.0868302003
C   C240      1.0  0.26920  0.72280  0.60940  1.0000 0.0868302003
C   C241      1.0  0.14560  0.50410  0.29450  1.0000 -0.4033921346
C   C242      1.0  0.50410  0.29450  0.14560  1.0000 -0.4033921346
C   C243      1.0  0.29450  0.14560  0.50410  1.0000 -0.4033921346
C   C244      1.0  0.50410  0.70960  0.35850  1.0000 -0.4033921346
C   C245      1.0  0.29450  0.64890  0.79040  1.0000 -0.4033921346
C   C246      1.0  0.14560  0.14150  0.85110  1.0000 -0.4033921346
C   C247      1.0  0.70960  0.85110  0.20550  1.0000 -0.4033921346
C   C248      1.0  0.35850  0.35440  0.64890  1.0000 -0.4033921346
C   C249      1.0  0.79040  0.99590  0.14150  1.0000 -0.4033921346
C   C250      1.0  0.64890  0.35850  0.35440  1.0000 -0.4033921346
C   C251      1.0  0.14150  0.79040  0.99590  1.0000 -0.4033921346
C   C252      1.0  0.85110  0.14560  0.14150  1.0000 -0.4033921346
C   C253      1.0  0.35850  0.50410  0.70960  1.0000 -0.4033921346
C   C254      1.0  0.79040  0.29450  0.64890  1.0000 -0.4033921346
C   C255      1.0  0.85110  0.20550  0.70960  1.0000 -0.4033921346
C   C256      1.0  0.20550  0.99590  0.35440  1.0000 -0.4033921346
C   C257      1.0  0.35440  0.20550  0.99590  1.0000 -0.4033921346
C   C258      1.0  0.99590  0.35440  0.20550  1.0000 -0.4033921346
C   C259      1.0  0.99590  0.14150  0.79040  1.0000 -0.4033921346
C   C260      1.0  0.64890  0.79040  0.29450  1.0000 -0.4033921346
C   C261      1.0  0.14150  0.85110  0.14560  1.0000 -0.4033921346
C   C262      1.0  0.70960  0.35850  0.50410  1.0000 -0.4033921346
C   C263      1.0  0.35440  0.64890  0.35850  1.0000 -0.4033921346
C   C264      1.0  0.20550  0.70960  0.85110  1.0000 -0.4033921346
N   N1        1.0  0.87463  0.49263  0.21426  1.0000 -0.2032269522
N   N2        1.0  0.49263  0.21426  0.87463  1.0000 -0.2032269522
N   N3        1.0  0.21426  0.87463  0.49263  1.0000 -0.2032269522
N   N4        1.0  0.49263  0.77837  0.61800  1.0000 -0.2032269522
N   N5        1.0  0.21426  0.83963  0.72163  1.0000 -0.2032269522
N   N6        1.0  0.87463  0.88200  0.66037  1.0000 -0.2032269522
N   N7        1.0  0.77837  0.66037  0.28574  1.0000 -0.2032269522
N   N8        1.0  0.61800  0.62537  0.83963  1.0000 -0.2032269522
N   N9        1.0  0.72163  0.00737  0.88200  1.0000 -0.2032269522
N   N10       1.0  0.83963  0.61800  0.62537  1.0000 -0.2032269522
N   N11       1.0  0.88200  0.72163  0.00737  1.0000 -0.2032269522
N   N12       1.0  0.66037  0.87463  0.88200  1.0000 -0.2032269522
N   N13       1.0  0.61800  0.49263  0.77837  1.0000 -0.2032269522
N   N14       1.0  0.72163  0.21426  0.83963  1.0000 -0.2032269522
N   N15       1.0  0.66037  0.28574  0.77837  1.0000 -0.2032269522
N   N16       1.0  0.28574  0.00737  0.62537  1.0000 -0.2032269522
N   N17       1.0  0.62537  0.28574  0.00737  1.0000 -0.2032269522
N   N18       1.0  0.00737  0.62537  0.28574  1.0000 -0.2032269522
N   N19       1.0  0.00737  0.88200  0.72163  1.0000 -0.2032269522
N   N20       1.0  0.83963  0.72163  0.21426  1.0000 -0.2032269522
N   N21       1.0  0.88200  0.66037  0.87463  1.0000 -0.2032269522
N   N22       1.0  0.77837  0.61800  0.49263  1.0000 -0.2032269522
N   N23       1.0  0.62537  0.83963  0.61800  1.0000 -0.2032269522
N   N24       1.0  0.28574  0.77837  0.66037  1.0000 -0.2032269522
O   O1        1.0  0.97998  0.53140  0.33534  1.0000 -0.5429853086
O   O2        1.0  0.53140  0.33534  0.97998  1.0000 -0.5429853086
O   O3        1.0  0.33534  0.97998  0.53140  1.0000 -0.5429853086
O   O4        1.0  0.53140  0.69606  0.55142  1.0000 -0.5429853086
O   O5        1.0  0.33534  0.85536  0.80394  1.0000 -0.5429853086
O   O6        1.0  0.97998  0.94858  0.64464  1.0000 -0.5429853086
O   O7        1.0  0.69606  0.64464  0.16466  1.0000 -0.5429853086
O   O8        1.0  0.55142  0.52002  0.85536  1.0000 -0.5429853086
O   O9        1.0  0.80394  0.96860  0.94858  1.0000 -0.5429853086
O   O10       1.0  0.85536  0.55142  0.52002  1.0000 -0.5429853086
O   O11       1.0  0.94858  0.80394  0.96860  1.0000 -0.5429853086
O   O12       1.0  0.64464  0.97998  0.94858  1.0000 -0.5429853086
O   O13       1.0  0.55142  0.53140  0.69606  1.0000 -0.5429853086
O   O14       1.0  0.80394  0.33534  0.85536  1.0000 -0.5429853086
O   O15       1.0  0.64464  0.16466  0.69606  1.0000 -0.5429853086
O   O16       1.0  0.16466  0.96860  0.52002  1.0000 -0.5429853086
O   O17       1.0  0.52002  0.16466  0.96860  1.0000 -0.5429853086
O   O18       1.0  0.96860  0.52002  0.16466  1.0000 -0.5429853086
O   O19       1.0  0.96860  0.94858  0.80394  1.0000 -0.5429853086
O   O20       1.0  0.85536  0.80394  0.33534  1.0000 -0.5429853086
O   O21       1.0  0.94858  0.64464  0.97998  1.0000 -0.5429853086
O   O22       1.0  0.69606  0.55142  0.53140  1.0000 -0.5429853086
O   O23       1.0  0.52002  0.85536  0.55142  1.0000 -0.5429853086
O   O24       1.0  0.16466  0.69606  0.64464  1.0000 -0.5429853086
O   O25       1.0  0.08838  0.57931  0.40595  1.0000 -0.5615535636
O   O26       1.0  0.57931  0.40595  0.08838  1.0000 -0.5615535636
O   O27       1.0  0.40595  0.08838  0.57931  1.0000 -0.5615535636
O   O28       1.0  0.57931  0.67336  0.49093  1.0000 -0.5615535636
O   O29       1.0  0.40595  0.81757  0.82664  1.0000 -0.5615535636
O   O30       1.0  0.08838  0.00907  0.68243  1.0000 -0.5615535636
O   O31       1.0  0.67336  0.68243  0.09405  1.0000 -0.5615535636
O   O32       1.0  0.49093  0.41162  0.81757  1.0000 -0.5615535636
O   O33       1.0  0.82664  0.92069  0.00907  1.0000 -0.5615535636
O   O34       1.0  0.81757  0.49093  0.41162  1.0000 -0.5615535636
O   O35       1.0  0.00907  0.82664  0.92069  1.0000 -0.5615535636
O   O36       1.0  0.68243  0.08838  0.00907  1.0000 -0.5615535636
O   O37       1.0  0.49093  0.57931  0.67336  1.0000 -0.5615535636
O   O38       1.0  0.82664  0.40595  0.81757  1.0000 -0.5615535636
O   O39       1.0  0.68243  0.09405  0.67336  1.0000 -0.5615535636
O   O40       1.0  0.09405  0.92069  0.41162  1.0000 -0.5615535636
O   O41       1.0  0.41162  0.09405  0.92069  1.0000 -0.5615535636
O   O42       1.0  0.92069  0.41162  0.09405  1.0000 -0.5615535636
O   O43       1.0  0.92069  0.00907  0.82664  1.0000 -0.5615535636
O   O44       1.0  0.81757  0.82664  0.40595  1.0000 -0.5615535636
O   O45       1.0  0.00907  0.68243  0.08838  1.0000 -0.5615535636
O   O46       1.0  0.67336  0.49093  0.57931  1.0000 -0.5615535636
O   O47       1.0  0.41162  0.81757  0.49093  1.0000 -0.5615535636
O   O48       1.0  0.09405  0.67336  0.68243  1.0000 -0.5615535636
O   O49       1.0  0.07541  0.54512  0.28723  1.0000 -0.4819731126
O   O50       1.0  0.54512  0.28723  0.07541  1.0000 -0.4819731126
O   O51       1.0  0.28723  0.07541  0.54512  1.0000 -0.4819731126
O   O52       1.0  0.54512  0.75789  0.46971  1.0000 -0.4819731126
O   O53       1.0  0.28723  0.71182  0.74211  1.0000 -0.4819731126
O   O54       1.0  0.07541  0.03029  0.78818  1.0000 -0.4819731126
O   O55       1.0  0.75789  0.78818  0.21277  1.0000 -0.4819731126
O   O56       1.0  0.46971  0.42459  0.71182  1.0000 -0.4819731126
O   O57       1.0  0.74211  0.95488  0.03029  1.0000 -0.4819731126
O   O58       1.0  0.71182  0.46971  0.42459  1.0000 -0.4819731126
O   O59       1.0  0.03029  0.74211  0.95488  1.0000 -0.4819731126
O   O60       1.0  0.78818  0.07541  0.03029  1.0000 -0.4819731126
O   O61       1.0  0.46971  0.54512  0.75789  1.0000 -0.4819731126
O   O62       1.0  0.74211  0.28723  0.71182  1.0000 -0.4819731126
O   O63       1.0  0.78818  0.21277  0.75789  1.0000 -0.4819731126
O   O64       1.0  0.21277  0.95488  0.42459  1.0000 -0.4819731126
O   O65       1.0  0.42459  0.21277  0.95488  1.0000 -0.4819731126
O   O66       1.0  0.95488  0.42459  0.21277  1.0000 -0.4819731126
O   O67       1.0  0.95488  0.03029  0.74211  1.0000 -0.4819731126
O   O68       1.0  0.71182  0.74211  0.28723  1.0000 -0.4819731126
O   O69       1.0  0.03029  0.78818  0.07541  1.0000 -0.4819731126
O   O70       1.0  0.75789  0.46971  0.54512  1.0000 -0.4819731126
O   O71       1.0  0.42459  0.71182  0.46971  1.0000 -0.4819731126
O   O72       1.0  0.21277  0.75789  0.78818  1.0000 -0.4819731126
