# DDEC6 charges by PACMAN v1.1 (https://github.com/mtap-research/PACMAN-charge/)
data_2003[Zn][nan]3[ASR]2
_chemical_formula_sum              "Zn8 H48 C48 O64"
_cell_length_a       18.9545
_cell_length_b       18.9545
_cell_length_c       5.7911
_cell_angle_alpha    90
_cell_angle_beta     90
_cell_angle_gamma    90

_symmetry_space_group_name_H-M    "P 1"
_symmetry_Int_Tables_number       1

loop_
  _symmetry_equiv_pos_as_xyz
  'x, y, z'

loop_
  _atom_site_type_symbol
  _atom_site_label
  _atom_site_symmetry_multiplicity
  _atom_site_fract_x
  _atom_site_fract_y
  _atom_site_fract_z
  _atom_site_occupancy
  _atom_site_charge
Zn  Zn1       1.0  0.72969  0.27031  0.75000  1.0000 0.9465049506
Zn  Zn2       1.0  0.27031  0.72969  0.25000  1.0000 0.9465049506
Zn  Zn3       1.0  0.77031  0.77031  0.00000  1.0000 0.9465049506
Zn  Zn4       1.0  0.22969  0.22969  0.50000  1.0000 0.9465049506
Zn  Zn5       1.0  0.77820  0.22180  0.25000  1.0000 0.9344131054
Zn  Zn6       1.0  0.22180  0.77820  0.75000  1.0000 0.9344131054
Zn  Zn7       1.0  0.72180  0.72180  0.50000  1.0000 0.9344131054
Zn  Zn8       1.0  0.27820  0.27820  0.00000  1.0000 0.9344131054
H   H1        1.0  0.75200  0.39800  0.58100  1.0000 0.3480615468
H   H2        1.0  0.24800  0.60200  0.08100  1.0000 0.3480615468
H   H3        1.0  0.89800  0.74800  0.83100  1.0000 0.3480615468
H   H4        1.0  0.10200  0.25200  0.33100  1.0000 0.3480615468
H   H5        1.0  0.25200  0.10200  0.66900  1.0000 0.3480615468
H   H6        1.0  0.74800  0.89800  0.16900  1.0000 0.3480615468
H   H7        1.0  0.39800  0.75200  0.41900  1.0000 0.3480615468
H   H8        1.0  0.60200  0.24800  0.91900  1.0000 0.3480615468
H   H9        1.0  0.69690  0.50630  0.02120  1.0000 0.1104971991
H   H10       1.0  0.30310  0.49370  0.52120  1.0000 0.1104971991
H   H11       1.0  0.00630  0.80310  0.27120  1.0000 0.1104971991
H   H12       1.0  0.99370  0.19690  0.77120  1.0000 0.1104971991
H   H13       1.0  0.19690  0.99370  0.22880  1.0000 0.1104971991
H   H14       1.0  0.80310  0.00630  0.72880  1.0000 0.1104971991
H   H15       1.0  0.50630  0.69690  0.97880  1.0000 0.1104971991
H   H16       1.0  0.49370  0.30310  0.47880  1.0000 0.1104971991
H   H17       1.0  0.78430  0.53800  0.58900  1.0000 0.1200222002
H   H18       1.0  0.21570  0.46200  0.08900  1.0000 0.1200222002
H   H19       1.0  0.03800  0.71570  0.83900  1.0000 0.1200222002
H   H20       1.0  0.96200  0.28430  0.33900  1.0000 0.1200222002
H   H21       1.0  0.28430  0.96200  0.66100  1.0000 0.1200222002
H   H22       1.0  0.71570  0.03800  0.16100  1.0000 0.1200222002
H   H23       1.0  0.53800  0.78430  0.41100  1.0000 0.1200222002
H   H24       1.0  0.46200  0.21570  0.91100  1.0000 0.1200222002
H   H25       1.0  0.74700  0.60500  0.29800  1.0000 0.3856222035
H   H26       1.0  0.25300  0.39500  0.79800  1.0000 0.3856222035
H   H27       1.0  0.10500  0.75300  0.54800  1.0000 0.3856222035
H   H28       1.0  0.89500  0.24700  0.04800  1.0000 0.3856222035
H   H29       1.0  0.24700  0.89500  0.95200  1.0000 0.3856222035
H   H30       1.0  0.75300  0.10500  0.45200  1.0000 0.3856222035
H   H31       1.0  0.60500  0.74700  0.70200  1.0000 0.3856222035
H   H32       1.0  0.39500  0.25300  0.20200  1.0000 0.3856222035
H   H33       1.0  0.79350  0.45090  0.82770  1.0000 0.1104971991
H   H34       1.0  0.20650  0.54910  0.32770  1.0000 0.1104971991
H   H35       1.0  0.95090  0.70650  0.07770  1.0000 0.1104971991
H   H36       1.0  0.04910  0.29350  0.57770  1.0000 0.1104971991
H   H37       1.0  0.29350  0.04910  0.42230  1.0000 0.1104971991
H   H38       1.0  0.70650  0.95090  0.92230  1.0000 0.1104971991
H   H39       1.0  0.45090  0.79350  0.17230  1.0000 0.1104971991
H   H40       1.0  0.54910  0.20650  0.67230  1.0000 0.1104971991
H   H41       1.0  0.67020  0.49380  0.53970  1.0000 0.1251399071
H   H42       1.0  0.32980  0.50620  0.03970  1.0000 0.1251399071
H   H43       1.0  0.99380  0.82980  0.78970  1.0000 0.1251399071
H   H44       1.0  0.00620  0.17020  0.28970  1.0000 0.1251399071
H   H45       1.0  0.17020  0.00620  0.71030  1.0000 0.1251399071
H   H46       1.0  0.82980  0.99380  0.21030  1.0000 0.1251399071
H   H47       1.0  0.49380  0.67020  0.46030  1.0000 0.1251399071
H   H48       1.0  0.50620  0.32980  0.96030  1.0000 0.1251399071
C   C1        1.0  0.75900  0.38090  0.08800  1.0000 0.5971121342
C   C2        1.0  0.24100  0.61910  0.58800  1.0000 0.5971121342
C   C3        1.0  0.88090  0.74100  0.33800  1.0000 0.5971121342
C   C4        1.0  0.11910  0.25900  0.83800  1.0000 0.5971121342
C   C5        1.0  0.25900  0.11910  0.16200  1.0000 0.5971121342
C   C6        1.0  0.74100  0.88090  0.66200  1.0000 0.5971121342
C   C7        1.0  0.38090  0.75900  0.91200  1.0000 0.5971121342
C   C8        1.0  0.61910  0.24100  0.41200  1.0000 0.5971121342
C   C9        1.0  0.68800  0.47610  0.88700  1.0000 0.077837838
C   C10       1.0  0.31200  0.52390  0.38700  1.0000 0.077837838
C   C11       1.0  0.97610  0.81200  0.13700  1.0000 0.077837838
C   C12       1.0  0.02390  0.18800  0.63700  1.0000 0.077837838
C   C13       1.0  0.18800  0.02390  0.36300  1.0000 0.077837838
C   C14       1.0  0.81200  0.97610  0.86300  1.0000 0.077837838
C   C15       1.0  0.47610  0.68800  0.11300  1.0000 0.077837838
C   C16       1.0  0.52390  0.31200  0.61300  1.0000 0.077837838
C   C17       1.0  0.74440  0.56880  0.62600  1.0000 -0.0151274394
C   C18       1.0  0.25560  0.43120  0.12600  1.0000 -0.0151274394
C   C19       1.0  0.06880  0.75560  0.87600  1.0000 -0.0151274394
C   C20       1.0  0.93120  0.24440  0.37600  1.0000 -0.0151274394
C   C21       1.0  0.24440  0.93120  0.62400  1.0000 -0.0151274394
C   C22       1.0  0.75560  0.06880  0.12400  1.0000 -0.0151274394
C   C23       1.0  0.56880  0.74440  0.37400  1.0000 -0.0151274394
C   C24       1.0  0.43120  0.25560  0.87400  1.0000 -0.0151274394
C   C25       1.0  0.76420  0.61560  0.83000  1.0000 0.6119535418
C   C26       1.0  0.23580  0.38440  0.33000  1.0000 0.6119535418
C   C27       1.0  0.11560  0.73580  0.08000  1.0000 0.6119535418
C   C28       1.0  0.88440  0.26420  0.58000  1.0000 0.6119535418
C   C29       1.0  0.26420  0.88440  0.42000  1.0000 0.6119535418
C   C30       1.0  0.73580  0.11560  0.92000  1.0000 0.6119535418
C   C31       1.0  0.61560  0.76420  0.17000  1.0000 0.6119535418
C   C32       1.0  0.38440  0.23580  0.67000  1.0000 0.6119535418
C   C33       1.0  0.75010  0.42490  0.86200  1.0000 -0.0128134171
C   C34       1.0  0.24990  0.57510  0.36200  1.0000 -0.0128134171
C   C35       1.0  0.92490  0.74990  0.11200  1.0000 -0.0128134171
C   C36       1.0  0.07510  0.25010  0.61200  1.0000 -0.0128134171
C   C37       1.0  0.25010  0.07510  0.38800  1.0000 -0.0128134171
C   C38       1.0  0.74990  0.92490  0.88800  1.0000 -0.0128134171
C   C39       1.0  0.42490  0.75010  0.13800  1.0000 -0.0128134171
C   C40       1.0  0.57510  0.24990  0.63800  1.0000 -0.0128134171
C   C41       1.0  0.67960  0.52340  0.67500  1.0000 0.077837838
C   C42       1.0  0.32040  0.47660  0.17500  1.0000 0.077837838
C   C43       1.0  0.02340  0.82040  0.92500  1.0000 0.077837838
C   C44       1.0  0.97660  0.17960  0.42500  1.0000 0.077837838
C   C45       1.0  0.17960  0.97660  0.57500  1.0000 0.077837838
C   C46       1.0  0.82040  0.02340  0.07500  1.0000 0.077837838
C   C47       1.0  0.52340  0.67960  0.32500  1.0000 0.077837838
C   C48       1.0  0.47660  0.32040  0.82500  1.0000 0.077837838
O   O1        1.0  0.75780  0.31630  0.06350  1.0000 -0.5097387879
O   O2        1.0  0.24220  0.68370  0.56350  1.0000 -0.5097387879
O   O3        1.0  0.81630  0.74220  0.31350  1.0000 -0.5097387879
O   O4        1.0  0.18370  0.25780  0.81350  1.0000 -0.5097387879
O   O5        1.0  0.25780  0.18370  0.18650  1.0000 -0.5097387879
O   O6        1.0  0.74220  0.81630  0.68650  1.0000 -0.5097387879
O   O7        1.0  0.31630  0.75780  0.93650  1.0000 -0.5097387879
O   O8        1.0  0.68370  0.24220  0.43650  1.0000 -0.5097387879
O   O9        1.0  0.76990  0.41280  0.26280  1.0000 -0.4787487834
O   O10       1.0  0.23010  0.58720  0.76280  1.0000 -0.4787487834
O   O11       1.0  0.91280  0.73010  0.51280  1.0000 -0.4787487834
O   O12       1.0  0.08720  0.26990  0.01280  1.0000 -0.4787487834
O   O13       1.0  0.26990  0.08720  0.98720  1.0000 -0.4787487834
O   O14       1.0  0.73010  0.91280  0.48720  1.0000 -0.4787487834
O   O15       1.0  0.41280  0.76990  0.73720  1.0000 -0.4787487834
O   O16       1.0  0.58720  0.23010  0.23720  1.0000 -0.4787487834
O   O17       1.0  0.73450  0.37630  0.67870  1.0000 -0.4167735278
O   O18       1.0  0.26550  0.62370  0.17870  1.0000 -0.4167735278
O   O19       1.0  0.87630  0.76550  0.92870  1.0000 -0.4167735278
O   O20       1.0  0.12370  0.23450  0.42870  1.0000 -0.4167735278
O   O21       1.0  0.23450  0.12370  0.57130  1.0000 -0.4167735278
O   O22       1.0  0.76550  0.87630  0.07130  1.0000 -0.4167735278
O   O23       1.0  0.37630  0.73450  0.32130  1.0000 -0.4167735278
O   O24       1.0  0.62370  0.26550  0.82130  1.0000 -0.4167735278
O   O25       1.0  0.62470  0.43830  0.92640  1.0000 -0.2706534414
O   O26       1.0  0.37530  0.56170  0.42640  1.0000 -0.2706534414
O   O27       1.0  0.93830  0.87530  0.17640  1.0000 -0.2706534414
O   O28       1.0  0.06170  0.12470  0.67640  1.0000 -0.2706534414
O   O29       1.0  0.12470  0.06170  0.32360  1.0000 -0.2706534414
O   O30       1.0  0.87530  0.93830  0.82360  1.0000 -0.2706534414
O   O31       1.0  0.43830  0.62470  0.07360  1.0000 -0.2706534414
O   O32       1.0  0.56170  0.37530  0.57360  1.0000 -0.2706534414
O   O33       1.0  0.62190  0.56940  0.70860  1.0000 -0.25884502
O   O34       1.0  0.37810  0.43060  0.20860  1.0000 -0.25884502
O   O35       1.0  0.06940  0.87810  0.95860  1.0000 -0.25884502
O   O36       1.0  0.93060  0.12190  0.45860  1.0000 -0.25884502
O   O37       1.0  0.12190  0.93060  0.54140  1.0000 -0.25884502
O   O38       1.0  0.87810  0.06940  0.04140  1.0000 -0.25884502
O   O39       1.0  0.56940  0.62190  0.29140  1.0000 -0.25884502
O   O40       1.0  0.43060  0.37810  0.79140  1.0000 -0.25884502
O   O41       1.0  0.72840  0.61330  0.42550  1.0000 -0.4328431262
O   O42       1.0  0.27160  0.38670  0.92550  1.0000 -0.4328431262
O   O43       1.0  0.11330  0.77160  0.67550  1.0000 -0.4328431262
O   O44       1.0  0.88670  0.22840  0.17550  1.0000 -0.4328431262
O   O45       1.0  0.22840  0.88670  0.82450  1.0000 -0.4328431262
O   O46       1.0  0.77160  0.11330  0.32450  1.0000 -0.4328431262
O   O47       1.0  0.61330  0.72840  0.57450  1.0000 -0.4328431262
O   O48       1.0  0.38670  0.27160  0.07450  1.0000 -0.4328431262
O   O49       1.0  0.75190  0.68220  0.80530  1.0000 -0.5710832252
O   O50       1.0  0.24810  0.31780  0.30530  1.0000 -0.5710832252
O   O51       1.0  0.18220  0.74810  0.05530  1.0000 -0.5710832252
O   O52       1.0  0.81780  0.25190  0.55530  1.0000 -0.5710832252
O   O53       1.0  0.25190  0.81780  0.44470  1.0000 -0.5710832252
O   O54       1.0  0.74810  0.18220  0.94470  1.0000 -0.5710832252
O   O55       1.0  0.68220  0.75190  0.19470  1.0000 -0.5710832252
O   O56       1.0  0.31780  0.24810  0.69470  1.0000 -0.5710832252
O   O57       1.0  0.78890  0.58700  0.00880  1.0000 -0.5384138672
O   O58       1.0  0.21110  0.41300  0.50880  1.0000 -0.5384138672
O   O59       1.0  0.08700  0.71110  0.25880  1.0000 -0.5384138672
O   O60       1.0  0.91300  0.28890  0.75880  1.0000 -0.5384138672
O   O61       1.0  0.28890  0.91300  0.24120  1.0000 -0.5384138672
O   O62       1.0  0.71110  0.08700  0.74120  1.0000 -0.5384138672
O   O63       1.0  0.58700  0.78890  0.99120  1.0000 -0.5384138672
O   O64       1.0  0.41300  0.21110  0.49120  1.0000 -0.5384138672
