# DDEC6 charges by PACMAN v1.1 (https://github.com/mtap-research/PACMAN-charge/)
data_2003[Zn][nan]3[ASR]3
_chemical_formula_sum              "Zn8 H48 C48 O64"
_cell_length_a       19.0427
_cell_length_b       19.0427
_cell_length_c       5.8108
_cell_angle_alpha    90
_cell_angle_beta     90
_cell_angle_gamma    90

_symmetry_space_group_name_H-M    "P 1"
_symmetry_Int_Tables_number       1

loop_
  _symmetry_equiv_pos_as_xyz
  'x, y, z'

loop_
  _atom_site_type_symbol
  _atom_site_label
  _atom_site_symmetry_multiplicity
  _atom_site_fract_x
  _atom_site_fract_y
  _atom_site_fract_z
  _atom_site_occupancy
  _atom_site_charge
Zn  Zn1       1.0  0.72958  0.27042  0.75000  1.0000 0.9588573559
Zn  Zn2       1.0  0.27042  0.72958  0.25000  1.0000 0.9588573559
Zn  Zn3       1.0  0.77042  0.77042  0.00000  1.0000 0.9588573559
Zn  Zn4       1.0  0.22958  0.22958  0.50000  1.0000 0.9588573559
Zn  Zn5       1.0  0.77748  0.22252  0.25000  1.0000 0.9309226855
Zn  Zn6       1.0  0.22252  0.77748  0.75000  1.0000 0.9309226855
Zn  Zn7       1.0  0.72252  0.72252  0.50000  1.0000 0.9309226855
Zn  Zn8       1.0  0.27748  0.27748  0.00000  1.0000 0.9309226855
H   H1        1.0  0.73200  0.39700  0.56500  1.0000 0.3695847898
H   H2        1.0  0.26800  0.60300  0.06500  1.0000 0.3695847898
H   H3        1.0  0.89700  0.76800  0.81500  1.0000 0.3695847898
H   H4        1.0  0.10300  0.23200  0.31500  1.0000 0.3695847898
H   H5        1.0  0.23200  0.10300  0.68500  1.0000 0.3695847898
H   H6        1.0  0.76800  0.89700  0.18500  1.0000 0.3695847898
H   H7        1.0  0.39700  0.73200  0.43500  1.0000 0.3695847898
H   H8        1.0  0.60300  0.26800  0.93500  1.0000 0.3695847898
H   H9        1.0  0.69470  0.50490  0.02350  1.0000 0.1116807669
H   H10       1.0  0.30530  0.49510  0.52350  1.0000 0.1116807669
H   H11       1.0  0.00490  0.80530  0.27350  1.0000 0.1116807669
H   H12       1.0  0.99510  0.19470  0.77350  1.0000 0.1116807669
H   H13       1.0  0.19470  0.99510  0.22650  1.0000 0.1116807669
H   H14       1.0  0.80530  0.00490  0.72650  1.0000 0.1116807669
H   H15       1.0  0.50490  0.69470  0.97650  1.0000 0.1116807669
H   H16       1.0  0.49510  0.30530  0.47650  1.0000 0.1116807669
H   H17       1.0  0.78420  0.53980  0.59280  1.0000 0.1181319756
H   H18       1.0  0.21580  0.46020  0.09280  1.0000 0.1181319756
H   H19       1.0  0.03980  0.71580  0.84280  1.0000 0.1181319756
H   H20       1.0  0.96020  0.28420  0.34280  1.0000 0.1181319756
H   H21       1.0  0.28420  0.96020  0.65720  1.0000 0.1181319756
H   H22       1.0  0.71580  0.03980  0.15720  1.0000 0.1181319756
H   H23       1.0  0.53980  0.78420  0.40720  1.0000 0.1181319756
H   H24       1.0  0.46020  0.21580  0.90720  1.0000 0.1181319756
H   H25       1.0  0.74800  0.61100  0.30300  1.0000 0.3848810776
H   H26       1.0  0.25200  0.38900  0.80300  1.0000 0.3848810776
H   H27       1.0  0.11100  0.75200  0.55300  1.0000 0.3848810776
H   H28       1.0  0.88900  0.24800  0.05300  1.0000 0.3848810776
H   H29       1.0  0.24800  0.88900  0.94700  1.0000 0.3848810776
H   H30       1.0  0.75200  0.11100  0.44700  1.0000 0.3848810776
H   H31       1.0  0.61100  0.74800  0.69700  1.0000 0.3848810776
H   H32       1.0  0.38900  0.25200  0.19700  1.0000 0.3848810776
H   H33       1.0  0.79250  0.45210  0.82820  1.0000 0.1181319756
H   H34       1.0  0.20750  0.54790  0.32820  1.0000 0.1181319756
H   H35       1.0  0.95210  0.70750  0.07820  1.0000 0.1181319756
H   H36       1.0  0.04790  0.29250  0.57820  1.0000 0.1181319756
H   H37       1.0  0.29250  0.04790  0.42180  1.0000 0.1181319756
H   H38       1.0  0.70750  0.95210  0.92180  1.0000 0.1181319756
H   H39       1.0  0.45210  0.79250  0.17180  1.0000 0.1181319756
H   H40       1.0  0.54790  0.20750  0.67180  1.0000 0.1181319756
H   H41       1.0  0.67330  0.49540  0.54230  1.0000 0.1181319756
H   H42       1.0  0.32670  0.50460  0.04230  1.0000 0.1181319756
H   H43       1.0  0.99540  0.82670  0.79230  1.0000 0.1181319756
H   H44       1.0  0.00460  0.17330  0.29230  1.0000 0.1181319756
H   H45       1.0  0.17330  0.00460  0.70770  1.0000 0.1181319756
H   H46       1.0  0.82670  0.99540  0.20770  1.0000 0.1181319756
H   H47       1.0  0.49540  0.67330  0.45770  1.0000 0.1181319756
H   H48       1.0  0.50460  0.32670  0.95770  1.0000 0.1181319756
C   C1        1.0  0.75920  0.38100  0.08900  1.0000 0.588936983
C   C2        1.0  0.24080  0.61900  0.58900  1.0000 0.588936983
C   C3        1.0  0.88100  0.74080  0.33900  1.0000 0.588936983
C   C4        1.0  0.11900  0.25920  0.83900  1.0000 0.588936983
C   C5        1.0  0.25920  0.11900  0.16100  1.0000 0.588936983
C   C6        1.0  0.74080  0.88100  0.66100  1.0000 0.588936983
C   C7        1.0  0.38100  0.75920  0.91100  1.0000 0.588936983
C   C8        1.0  0.61900  0.24080  0.41100  1.0000 0.588936983
C   C9        1.0  0.68630  0.47550  0.88800  1.0000 0.0960953667
C   C10       1.0  0.31370  0.52450  0.38800  1.0000 0.0960953667
C   C11       1.0  0.97550  0.81370  0.13800  1.0000 0.0960953667
C   C12       1.0  0.02450  0.18630  0.63800  1.0000 0.0960953667
C   C13       1.0  0.18630  0.02450  0.36200  1.0000 0.0960953667
C   C14       1.0  0.81370  0.97550  0.86200  1.0000 0.0960953667
C   C15       1.0  0.47550  0.68630  0.11200  1.0000 0.0960953667
C   C16       1.0  0.52450  0.31370  0.61200  1.0000 0.0960953667
C   C17       1.0  0.74370  0.56990  0.62700  1.0000 -0.0161116213
C   C18       1.0  0.25630  0.43010  0.12700  1.0000 -0.0161116213
C   C19       1.0  0.06990  0.75630  0.87700  1.0000 -0.0161116213
C   C20       1.0  0.93010  0.24370  0.37700  1.0000 -0.0161116213
C   C21       1.0  0.24370  0.93010  0.62300  1.0000 -0.0161116213
C   C22       1.0  0.75630  0.06990  0.12300  1.0000 -0.0161116213
C   C23       1.0  0.56990  0.74370  0.37300  1.0000 -0.0161116213
C   C24       1.0  0.43010  0.25630  0.87300  1.0000 -0.0161116213
C   C25       1.0  0.76200  0.61720  0.83200  1.0000 0.6102073773
C   C26       1.0  0.23800  0.38280  0.33200  1.0000 0.6102073773
C   C27       1.0  0.11720  0.73800  0.08200  1.0000 0.6102073773
C   C28       1.0  0.88280  0.26200  0.58200  1.0000 0.6102073773
C   C29       1.0  0.26200  0.88280  0.41800  1.0000 0.6102073773
C   C30       1.0  0.73800  0.11720  0.91800  1.0000 0.6102073773
C   C31       1.0  0.61720  0.76200  0.16800  1.0000 0.6102073773
C   C32       1.0  0.38280  0.23800  0.66800  1.0000 0.6102073773
C   C33       1.0  0.74960  0.42570  0.86400  1.0000 -0.0113730995
C   C34       1.0  0.25040  0.57430  0.36400  1.0000 -0.0113730995
C   C35       1.0  0.92570  0.75040  0.11400  1.0000 -0.0113730995
C   C36       1.0  0.07430  0.24960  0.61400  1.0000 -0.0113730995
C   C37       1.0  0.24960  0.07430  0.38600  1.0000 -0.0113730995
C   C38       1.0  0.75040  0.92570  0.88600  1.0000 -0.0113730995
C   C39       1.0  0.42570  0.74960  0.13600  1.0000 -0.0113730995
C   C40       1.0  0.57430  0.25040  0.63600  1.0000 -0.0113730995
C   C41       1.0  0.68200  0.52460  0.67800  1.0000 0.0671364277
C   C42       1.0  0.31800  0.47540  0.17800  1.0000 0.0671364277
C   C43       1.0  0.02460  0.81800  0.92800  1.0000 0.0671364277
C   C44       1.0  0.97540  0.18200  0.42800  1.0000 0.0671364277
C   C45       1.0  0.18200  0.97540  0.57200  1.0000 0.0671364277
C   C46       1.0  0.81800  0.02460  0.07200  1.0000 0.0671364277
C   C47       1.0  0.52460  0.68200  0.32200  1.0000 0.0671364277
C   C48       1.0  0.47540  0.31800  0.82200  1.0000 0.0671364277
O   O1        1.0  0.75620  0.31550  0.06000  1.0000 -0.5408011094
O   O2        1.0  0.24380  0.68450  0.56000  1.0000 -0.5408011094
O   O3        1.0  0.81550  0.74380  0.31000  1.0000 -0.5408011094
O   O4        1.0  0.18450  0.25620  0.81000  1.0000 -0.5408011094
O   O5        1.0  0.25620  0.18450  0.19000  1.0000 -0.5408011094
O   O6        1.0  0.74380  0.81550  0.69000  1.0000 -0.5408011094
O   O7        1.0  0.31550  0.75620  0.94000  1.0000 -0.5408011094
O   O8        1.0  0.68450  0.24380  0.44000  1.0000 -0.5408011094
O   O9        1.0  0.76930  0.41050  0.26200  1.0000 -0.4464061276
O   O10       1.0  0.23070  0.58950  0.76200  1.0000 -0.4464061276
O   O11       1.0  0.91050  0.73070  0.51200  1.0000 -0.4464061276
O   O12       1.0  0.08950  0.26930  0.01200  1.0000 -0.4464061276
O   O13       1.0  0.26930  0.08950  0.98800  1.0000 -0.4464061276
O   O14       1.0  0.73070  0.91050  0.48800  1.0000 -0.4464061276
O   O15       1.0  0.41050  0.76930  0.73800  1.0000 -0.4464061276
O   O16       1.0  0.58950  0.23070  0.23800  1.0000 -0.4464061276
O   O17       1.0  0.73410  0.37550  0.68260  1.0000 -0.4344221369
O   O18       1.0  0.26590  0.62450  0.18260  1.0000 -0.4344221369
O   O19       1.0  0.87550  0.76590  0.93260  1.0000 -0.4344221369
O   O20       1.0  0.12450  0.23410  0.43260  1.0000 -0.4344221369
O   O21       1.0  0.23410  0.12450  0.56740  1.0000 -0.4344221369
O   O22       1.0  0.76590  0.87550  0.06740  1.0000 -0.4344221369
O   O23       1.0  0.37550  0.73410  0.31740  1.0000 -0.4344221369
O   O24       1.0  0.62450  0.26590  0.81740  1.0000 -0.4344221369
O   O25       1.0  0.62610  0.43970  0.92520  1.0000 -0.3437296838
O   O26       1.0  0.37390  0.56030  0.42520  1.0000 -0.3437296838
O   O27       1.0  0.93970  0.87390  0.17520  1.0000 -0.3437296838
O   O28       1.0  0.06030  0.12610  0.67520  1.0000 -0.3437296838
O   O29       1.0  0.12610  0.06030  0.32480  1.0000 -0.3437296838
O   O30       1.0  0.87390  0.93970  0.82480  1.0000 -0.3437296838
O   O31       1.0  0.43970  0.62610  0.07480  1.0000 -0.3437296838
O   O32       1.0  0.56030  0.37390  0.57480  1.0000 -0.3437296838
O   O33       1.0  0.62100  0.57030  0.70930  1.0000 -0.2238362745
O   O34       1.0  0.37900  0.42970  0.20930  1.0000 -0.2238362745
O   O35       1.0  0.07030  0.87900  0.95930  1.0000 -0.2260566071
O   O36       1.0  0.92970  0.12100  0.45930  1.0000 -0.2238362745
O   O37       1.0  0.12100  0.92970  0.54070  1.0000 -0.2238362745
O   O38       1.0  0.87900  0.07030  0.04070  1.0000 -0.2238362745
O   O39       1.0  0.57030  0.62100  0.29070  1.0000 -0.2238362745
O   O40       1.0  0.42970  0.37900  0.79070  1.0000 -0.2238362745
O   O41       1.0  0.72880  0.61360  0.42440  1.0000 -0.4222422258
O   O42       1.0  0.27120  0.38640  0.92440  1.0000 -0.4222422258
O   O43       1.0  0.11360  0.77120  0.67440  1.0000 -0.4222422258
O   O44       1.0  0.88640  0.22880  0.17440  1.0000 -0.4222422258
O   O45       1.0  0.22880  0.88640  0.82560  1.0000 -0.4222422258
O   O46       1.0  0.77120  0.11360  0.32560  1.0000 -0.4222422258
O   O47       1.0  0.61360  0.72880  0.57560  1.0000 -0.4222422258
O   O48       1.0  0.38640  0.27120  0.07560  1.0000 -0.4222422258
O   O49       1.0  0.75340  0.68220  0.80590  1.0000 -0.5408011094
O   O50       1.0  0.24660  0.31780  0.30590  1.0000 -0.5408011094
O   O51       1.0  0.18220  0.74660  0.05590  1.0000 -0.5408011094
O   O52       1.0  0.81780  0.25340  0.55590  1.0000 -0.5408011094
O   O53       1.0  0.25340  0.81780  0.44410  1.0000 -0.5408011094
O   O54       1.0  0.74660  0.18220  0.94410  1.0000 -0.5408011094
O   O55       1.0  0.68220  0.75340  0.19410  1.0000 -0.5408011094
O   O56       1.0  0.31780  0.24660  0.69410  1.0000 -0.5408011094
O   O57       1.0  0.78640  0.58560  0.00900  1.0000 -0.5478078068
O   O58       1.0  0.21360  0.41440  0.50900  1.0000 -0.5478078068
O   O59       1.0  0.08560  0.71360  0.25900  1.0000 -0.5478078068
O   O60       1.0  0.91440  0.28640  0.75900  1.0000 -0.5478078068
O   O61       1.0  0.28640  0.91440  0.24100  1.0000 -0.5478078068
O   O62       1.0  0.71360  0.08560  0.74100  1.0000 -0.5478078068
O   O63       1.0  0.58560  0.78640  0.99100  1.0000 -0.5478078068
O   O64       1.0  0.41440  0.21360  0.49100  1.0000 -0.5478078068
