# DDEC6 charges by PACMAN v1.1 (https://github.com/mtap-research/PACMAN-charge/)
data_2003[Zn][nan]3[ASR]1
_chemical_formula_sum              "Zn8 H48 C48 O64"
_cell_length_a       19.0513
_cell_length_b       19.0513
_cell_length_c       5.8265
_cell_angle_alpha    90
_cell_angle_beta     90
_cell_angle_gamma    90

_symmetry_space_group_name_H-M    "P 1"
_symmetry_Int_Tables_number       1

loop_
  _symmetry_equiv_pos_as_xyz
  'x, y, z'

loop_
  _atom_site_type_symbol
  _atom_site_label
  _atom_site_symmetry_multiplicity
  _atom_site_fract_x
  _atom_site_fract_y
  _atom_site_fract_z
  _atom_site_occupancy
  _atom_site_charge
Zn  Zn1       1.0  0.72761  0.27239  0.75000  1.0000 0.9295311139
Zn  Zn2       1.0  0.27239  0.72761  0.25000  1.0000 0.9295311139
Zn  Zn3       1.0  0.77239  0.77239  0.00000  1.0000 0.9295311139
Zn  Zn4       1.0  0.22761  0.22761  0.50000  1.0000 0.9295311139
Zn  Zn5       1.0  0.77565  0.22435  0.25000  1.0000 0.9295311139
Zn  Zn6       1.0  0.22435  0.77565  0.75000  1.0000 0.9295311139
Zn  Zn7       1.0  0.72435  0.72435  0.50000  1.0000 0.9295311139
Zn  Zn8       1.0  0.27565  0.27565  0.00000  1.0000 0.9295311139
H   H1        1.0  0.76100  0.37600  0.59400  1.0000 0.3582901524
H   H2        1.0  0.23900  0.62400  0.09400  1.0000 0.3582901524
H   H3        1.0  0.87600  0.73900  0.84400  1.0000 0.3582901524
H   H4        1.0  0.12400  0.26100  0.34400  1.0000 0.3582901524
H   H5        1.0  0.26100  0.12400  0.65600  1.0000 0.3582901524
H   H6        1.0  0.73900  0.87600  0.15600  1.0000 0.3582901524
H   H7        1.0  0.37600  0.76100  0.40600  1.0000 0.3582901524
H   H8        1.0  0.62400  0.23900  0.90600  1.0000 0.3582901524
H   H9        1.0  0.69650  0.50700  0.02200  1.0000 0.1084381731
H   H10       1.0  0.30350  0.49300  0.52200  1.0000 0.1084381731
H   H11       1.0  0.00700  0.80350  0.27200  1.0000 0.1084381731
H   H12       1.0  0.99300  0.19650  0.77200  1.0000 0.1084381731
H   H13       1.0  0.19650  0.99300  0.22800  1.0000 0.1084381731
H   H14       1.0  0.80350  0.00700  0.72800  1.0000 0.1084381731
H   H15       1.0  0.50700  0.69650  0.97800  1.0000 0.1084381731
H   H16       1.0  0.49300  0.30350  0.47800  1.0000 0.1084381731
H   H17       1.0  0.78360  0.54000  0.59480  1.0000 0.1171978579
H   H18       1.0  0.21640  0.46000  0.09480  1.0000 0.1171978579
H   H19       1.0  0.04000  0.71640  0.84480  1.0000 0.1171978579
H   H20       1.0  0.96000  0.28360  0.34480  1.0000 0.1171978579
H   H21       1.0  0.28360  0.96000  0.65520  1.0000 0.1171978579
H   H22       1.0  0.71640  0.04000  0.15520  1.0000 0.1171978579
H   H23       1.0  0.54000  0.78360  0.40520  1.0000 0.1171978579
H   H24       1.0  0.46000  0.21640  0.90520  1.0000 0.1171978579
H   H25       1.0  0.75000  0.61000  0.31400  1.0000 0.3861276375
H   H26       1.0  0.25000  0.39000  0.81400  1.0000 0.3861276375
H   H27       1.0  0.11000  0.75000  0.56400  1.0000 0.3861276375
H   H28       1.0  0.89000  0.25000  0.06400  1.0000 0.3861276375
H   H29       1.0  0.25000  0.89000  0.93600  1.0000 0.3861276375
H   H30       1.0  0.75000  0.11000  0.43600  1.0000 0.3861276375
H   H31       1.0  0.61000  0.75000  0.68600  1.0000 0.3861276375
H   H32       1.0  0.39000  0.25000  0.18600  1.0000 0.3861276375
H   H33       1.0  0.79310  0.45040  0.82580  1.0000 0.1171978579
H   H34       1.0  0.20690  0.54960  0.32580  1.0000 0.1171978579
H   H35       1.0  0.95040  0.70690  0.07580  1.0000 0.1171978579
H   H36       1.0  0.04960  0.29310  0.57580  1.0000 0.1171978579
H   H37       1.0  0.29310  0.04960  0.42420  1.0000 0.1171978579
H   H38       1.0  0.70690  0.95040  0.92420  1.0000 0.1171978579
H   H39       1.0  0.45040  0.79310  0.17420  1.0000 0.1171978579
H   H40       1.0  0.54960  0.20690  0.67420  1.0000 0.1171978579
H   H41       1.0  0.67060  0.49670  0.54580  1.0000 0.1281134801
H   H42       1.0  0.32940  0.50330  0.04580  1.0000 0.1281134801
H   H43       1.0  0.99670  0.82940  0.79580  1.0000 0.1281134801
H   H44       1.0  0.00330  0.17060  0.29580  1.0000 0.1281134801
H   H45       1.0  0.17060  0.00330  0.70420  1.0000 0.1281134801
H   H46       1.0  0.82940  0.99670  0.20420  1.0000 0.1281134801
H   H47       1.0  0.49670  0.67060  0.45420  1.0000 0.1281134801
H   H48       1.0  0.50330  0.32940  0.95420  1.0000 0.1281134801
C   C1        1.0  0.75810  0.38250  0.08150  1.0000 0.6090849506
C   C2        1.0  0.24190  0.61750  0.58150  1.0000 0.6090849506
C   C3        1.0  0.88250  0.74190  0.33150  1.0000 0.6090849506
C   C4        1.0  0.11750  0.25810  0.83150  1.0000 0.6090849506
C   C5        1.0  0.25810  0.11750  0.16850  1.0000 0.6090849506
C   C6        1.0  0.74190  0.88250  0.66850  1.0000 0.6090849506
C   C7        1.0  0.38250  0.75810  0.91850  1.0000 0.6090849506
C   C8        1.0  0.61750  0.24190  0.41850  1.0000 0.6090849506
C   C9        1.0  0.68750  0.47790  0.88640  1.0000 0.0811218617
C   C10       1.0  0.31250  0.52210  0.38640  1.0000 0.0811218617
C   C11       1.0  0.97790  0.81250  0.13640  1.0000 0.0811218617
C   C12       1.0  0.02210  0.18750  0.63640  1.0000 0.0811218617
C   C13       1.0  0.18750  0.02210  0.36360  1.0000 0.0811218617
C   C14       1.0  0.81250  0.97790  0.86360  1.0000 0.0811218617
C   C15       1.0  0.47790  0.68750  0.11360  1.0000 0.0811218617
C   C16       1.0  0.52210  0.31250  0.61360  1.0000 0.0811218617
C   C17       1.0  0.74370  0.57060  0.63030  1.0000 -0.0132766934
C   C18       1.0  0.25630  0.42940  0.13030  1.0000 -0.0132766934
C   C19       1.0  0.07060  0.75630  0.88030  1.0000 -0.0132766934
C   C20       1.0  0.92940  0.24370  0.38030  1.0000 -0.0132766934
C   C21       1.0  0.24370  0.92940  0.61970  1.0000 -0.0132766934
C   C22       1.0  0.75630  0.07060  0.11970  1.0000 -0.0132766934
C   C23       1.0  0.57060  0.74370  0.36970  1.0000 -0.0132766934
C   C24       1.0  0.42940  0.25630  0.86970  1.0000 -0.0132766934
C   C25       1.0  0.76240  0.61750  0.83080  1.0000 0.5996422337
C   C26       1.0  0.23760  0.38250  0.33080  1.0000 0.5996422337
C   C27       1.0  0.11750  0.73760  0.08080  1.0000 0.5996422337
C   C28       1.0  0.88250  0.26240  0.58080  1.0000 0.5996422337
C   C29       1.0  0.26240  0.88250  0.41920  1.0000 0.5996422337
C   C30       1.0  0.73760  0.11750  0.91920  1.0000 0.5996422337
C   C31       1.0  0.61750  0.76240  0.16920  1.0000 0.5996422337
C   C32       1.0  0.38250  0.23760  0.66920  1.0000 0.5996422337
C   C33       1.0  0.74960  0.42500  0.85980  1.0000 -0.0132766934
C   C34       1.0  0.25040  0.57500  0.35980  1.0000 -0.0132766934
C   C35       1.0  0.92500  0.75040  0.10980  1.0000 -0.0132766934
C   C36       1.0  0.07500  0.24960  0.60980  1.0000 -0.0132766934
C   C37       1.0  0.24960  0.07500  0.39020  1.0000 -0.0132766934
C   C38       1.0  0.75040  0.92500  0.89020  1.0000 -0.0132766934
C   C39       1.0  0.42500  0.74960  0.14020  1.0000 -0.0132766934
C   C40       1.0  0.57500  0.25040  0.64020  1.0000 -0.0132766934
C   C41       1.0  0.67980  0.52600  0.68080  1.0000 0.0811218617
C   C42       1.0  0.32020  0.47400  0.18080  1.0000 0.0811218617
C   C43       1.0  0.02600  0.82020  0.93080  1.0000 0.0811218617
C   C44       1.0  0.97400  0.17980  0.43080  1.0000 0.0811218617
C   C45       1.0  0.17980  0.97400  0.56920  1.0000 0.0811218617
C   C46       1.0  0.82020  0.02600  0.06920  1.0000 0.0811218617
C   C47       1.0  0.52600  0.67980  0.31920  1.0000 0.0811218617
C   C48       1.0  0.47400  0.32020  0.81920  1.0000 0.0811218617
O   O1        1.0  0.75700  0.31620  0.06070  1.0000 -0.5589355959
O   O2        1.0  0.24300  0.68380  0.56070  1.0000 -0.5589355959
O   O3        1.0  0.81620  0.74300  0.31070  1.0000 -0.5589355959
O   O4        1.0  0.18380  0.25700  0.81070  1.0000 -0.5589355959
O   O5        1.0  0.25700  0.18380  0.18930  1.0000 -0.5589355959
O   O6        1.0  0.74300  0.81620  0.68930  1.0000 -0.5589355959
O   O7        1.0  0.31620  0.75700  0.93930  1.0000 -0.5589355959
O   O8        1.0  0.68380  0.24300  0.43930  1.0000 -0.5589355959
O   O9        1.0  0.76820  0.41540  0.26140  1.0000 -0.5079532994
O   O10       1.0  0.23180  0.58460  0.76140  1.0000 -0.5079532994
O   O11       1.0  0.91540  0.73180  0.51140  1.0000 -0.5079532994
O   O12       1.0  0.08460  0.26820  0.01140  1.0000 -0.5079532994
O   O13       1.0  0.26820  0.08460  0.98860  1.0000 -0.5079532994
O   O14       1.0  0.73180  0.91540  0.48860  1.0000 -0.5079532994
O   O15       1.0  0.41540  0.76820  0.73860  1.0000 -0.5079532994
O   O16       1.0  0.58460  0.23180  0.23860  1.0000 -0.5079532994
O   O17       1.0  0.73320  0.37790  0.67560  1.0000 -0.3878760768
O   O18       1.0  0.26680  0.62210  0.17560  1.0000 -0.3878760768
O   O19       1.0  0.87790  0.76680  0.92560  1.0000 -0.3878760768
O   O20       1.0  0.12210  0.23320  0.42560  1.0000 -0.3878760768
O   O21       1.0  0.23320  0.12210  0.57440  1.0000 -0.3878760768
O   O22       1.0  0.76680  0.87790  0.07440  1.0000 -0.3878760768
O   O23       1.0  0.37790  0.73320  0.32440  1.0000 -0.3878760768
O   O24       1.0  0.62210  0.26680  0.82440  1.0000 -0.3878760768
O   O25       1.0  0.62540  0.43990  0.92460  1.0000 -0.2741230672
O   O26       1.0  0.37460  0.56010  0.42460  1.0000 -0.2741230672
O   O27       1.0  0.93990  0.87460  0.17460  1.0000 -0.2741230672
O   O28       1.0  0.06010  0.12540  0.67460  1.0000 -0.2741230672
O   O29       1.0  0.12540  0.06010  0.32540  1.0000 -0.2741230672
O   O30       1.0  0.87460  0.93990  0.82540  1.0000 -0.2741230672
O   O31       1.0  0.43990  0.62540  0.07540  1.0000 -0.2741230672
O   O32       1.0  0.56010  0.37460  0.57540  1.0000 -0.2741230672
O   O33       1.0  0.62090  0.57080  0.71230  1.0000 -0.2469879521
O   O34       1.0  0.37910  0.42920  0.21230  1.0000 -0.2448722853
O   O35       1.0  0.07080  0.87910  0.96230  1.0000 -0.2469879521
O   O36       1.0  0.92920  0.12090  0.46230  1.0000 -0.2448722853
O   O37       1.0  0.12090  0.92920  0.53770  1.0000 -0.2469879521
O   O38       1.0  0.87910  0.07080  0.03770  1.0000 -0.2448722853
O   O39       1.0  0.57080  0.62090  0.28770  1.0000 -0.2469879521
O   O40       1.0  0.42920  0.37910  0.78770  1.0000 -0.2448722853
O   O41       1.0  0.72850  0.61480  0.43320  1.0000 -0.426650433
O   O42       1.0  0.27150  0.38520  0.93320  1.0000 -0.426650433
O   O43       1.0  0.11480  0.77150  0.68320  1.0000 -0.426650433
O   O44       1.0  0.88520  0.22850  0.18320  1.0000 -0.426650433
O   O45       1.0  0.22850  0.88520  0.81680  1.0000 -0.426650433
O   O46       1.0  0.77150  0.11480  0.31680  1.0000 -0.426650433
O   O47       1.0  0.61480  0.72850  0.56680  1.0000 -0.426650433
O   O48       1.0  0.38520  0.27150  0.06680  1.0000 -0.426650433
O   O49       1.0  0.75310  0.68420  0.80580  1.0000 -0.5704300536
O   O50       1.0  0.24690  0.31580  0.30580  1.0000 -0.5704300536
O   O51       1.0  0.18420  0.74690  0.05580  1.0000 -0.5704300536
O   O52       1.0  0.81580  0.25310  0.55580  1.0000 -0.5704300536
O   O53       1.0  0.25310  0.81580  0.44420  1.0000 -0.5704300536
O   O54       1.0  0.74690  0.18420  0.94420  1.0000 -0.5704300536
O   O55       1.0  0.68420  0.75310  0.19420  1.0000 -0.5704300536
O   O56       1.0  0.31580  0.24690  0.69420  1.0000 -0.5704300536
O   O57       1.0  0.78640  0.59140  0.00890  1.0000 -0.5174151493
O   O58       1.0  0.21360  0.40860  0.50890  1.0000 -0.5174151493
O   O59       1.0  0.09140  0.71360  0.25890  1.0000 -0.5174151493
O   O60       1.0  0.90860  0.28640  0.75890  1.0000 -0.5174151493
O   O61       1.0  0.28640  0.90860  0.24110  1.0000 -0.5174151493
O   O62       1.0  0.71360  0.09140  0.74110  1.0000 -0.5174151493
O   O63       1.0  0.59140  0.78640  0.99110  1.0000 -0.5174151493
O   O64       1.0  0.40860  0.21360  0.49110  1.0000 -0.5174151493
