# DDEC6 charges by PACMAN v1.1 (https://github.com/mtap-research/PACMAN-charge/)
data_2003[Co][kag]3[ASR]2
_chemical_formula_sum              "Co3 H84 C60 S6 N24 O18"
_cell_length_a       19.311
_cell_length_b       19.311
_cell_length_c       7.772
_cell_angle_alpha    90
_cell_angle_beta     90
_cell_angle_gamma    120

_symmetry_space_group_name_H-M    "P 1"
_symmetry_Int_Tables_number       1

loop_
  _symmetry_equiv_pos_as_xyz
  'x, y, z'

loop_
  _atom_site_type_symbol
  _atom_site_label
  _atom_site_symmetry_multiplicity
  _atom_site_fract_x
  _atom_site_fract_y
  _atom_site_fract_z
  _atom_site_occupancy
  _atom_site_charge
Co  Co1       1.0  0.45427  0.00000  0.50000  1.0000 0.8015677101
Co  Co2       1.0  0.00000  0.45427  0.50000  1.0000 0.8015677101
Co  Co3       1.0  0.54573  0.54573  0.50000  1.0000 0.8015677101
H   H1        1.0  0.28990  0.96180  0.32700  1.0000 0.2668563293
H   H2        1.0  0.03820  0.32810  0.32700  1.0000 0.2668563293
H   H3        1.0  0.96180  0.28990  0.67300  1.0000 0.2668563293
H   H4        1.0  0.67190  0.71010  0.32700  1.0000 0.2668563293
H   H5        1.0  0.71010  0.67190  0.67300  1.0000 0.2668563293
H   H6        1.0  0.32810  0.03820  0.67300  1.0000 0.2668563293
H   H7        1.0  0.11470  0.54350  0.19840  1.0000 0.2836626139
H   H8        1.0  0.45650  0.57120  0.19840  1.0000 0.2836626139
H   H9        1.0  0.54350  0.11470  0.80160  1.0000 0.2836626139
H   H10       1.0  0.42880  0.88530  0.19840  1.0000 0.2836626139
H   H11       1.0  0.88530  0.42880  0.80160  1.0000 0.2836626139
H   H12       1.0  0.57120  0.45650  0.80160  1.0000 0.2836626139
H   H13       1.0  0.37810  0.82680  0.64370  1.0000 0.1506243766
H   H14       1.0  0.17320  0.55130  0.64370  1.0000 0.1506243766
H   H15       1.0  0.82680  0.37810  0.35630  1.0000 0.1506243766
H   H16       1.0  0.44870  0.62190  0.64370  1.0000 0.1506243766
H   H17       1.0  0.62190  0.44870  0.35630  1.0000 0.1506243766
H   H18       1.0  0.55130  0.17320  0.35630  1.0000 0.1506243766
H   H19       1.0  0.33390  0.75060  0.52710  1.0000 0.1430387067
H   H20       1.0  0.24940  0.58330  0.52710  1.0000 0.1430387067
H   H21       1.0  0.75060  0.33390  0.47290  1.0000 0.1430387067
H   H22       1.0  0.41670  0.66610  0.52710  1.0000 0.1430387067
H   H23       1.0  0.66610  0.41670  0.47290  1.0000 0.1430387067
H   H24       1.0  0.58330  0.24940  0.47290  1.0000 0.1430387067
H   H25       1.0  0.29090  0.75970  0.68940  1.0000 0.156760592
H   H26       1.0  0.24030  0.53120  0.68940  1.0000 0.156760592
H   H27       1.0  0.75970  0.29090  0.31060  1.0000 0.156760592
H   H28       1.0  0.46880  0.70910  0.68940  1.0000 0.156760592
H   H29       1.0  0.70910  0.46880  0.31060  1.0000 0.156760592
H   H30       1.0  0.53120  0.24030  0.31060  1.0000 0.156760592
H   H31       1.0  0.17130  0.90420  0.16360  1.0000 0.156760592
H   H32       1.0  0.09580  0.26710  0.16360  1.0000 0.156760592
H   H33       1.0  0.90420  0.17130  0.83640  1.0000 0.156760592
H   H34       1.0  0.73290  0.82870  0.16360  1.0000 0.156760592
H   H35       1.0  0.82870  0.73290  0.83640  1.0000 0.156760592
H   H36       1.0  0.26710  0.09580  0.83640  1.0000 0.156760592
H   H37       1.0  0.10470  0.82710  0.25450  1.0000 0.1506243766
H   H38       1.0  0.17290  0.27760  0.25450  1.0000 0.1506243766
H   H39       1.0  0.82710  0.10470  0.74550  1.0000 0.1506243766
H   H40       1.0  0.72240  0.89530  0.25450  1.0000 0.1506243766
H   H41       1.0  0.89530  0.72240  0.74550  1.0000 0.1506243766
H   H42       1.0  0.27760  0.17290  0.74550  1.0000 0.1506243766
H   H43       1.0  0.15170  0.81960  0.09780  1.0000 0.1506243766
H   H44       1.0  0.18040  0.33210  0.09780  1.0000 0.1506243766
H   H45       1.0  0.81960  0.15170  0.90220  1.0000 0.1506243766
H   H46       1.0  0.66790  0.84830  0.09780  1.0000 0.1506243766
H   H47       1.0  0.84830  0.66790  0.90220  1.0000 0.1506243766
H   H48       1.0  0.33210  0.18040  0.90220  1.0000 0.1506243766
H   H49       1.0  0.04800  0.61160  0.71550  1.0000 0.1506243766
H   H50       1.0  0.38840  0.43640  0.71550  1.0000 0.1506243766
H   H51       1.0  0.61160  0.04800  0.28450  1.0000 0.1506243766
H   H52       1.0  0.56360  0.95200  0.71550  1.0000 0.1506243766
H   H53       1.0  0.95200  0.56360  0.28450  1.0000 0.1506243766
H   H54       1.0  0.43640  0.38840  0.28450  1.0000 0.1506243766
H   H55       1.0  0.06520  0.69590  0.65310  1.0000 0.1506243766
H   H56       1.0  0.30410  0.36930  0.65310  1.0000 0.1506243766
H   H57       1.0  0.69590  0.06520  0.34690  1.0000 0.1506243766
H   H58       1.0  0.63070  0.93480  0.65310  1.0000 0.1506243766
H   H59       1.0  0.93480  0.63070  0.34690  1.0000 0.1506243766
H   H60       1.0  0.36930  0.30410  0.34690  1.0000 0.1506243766
H   H61       1.0  0.13310  0.68650  0.74090  1.0000 0.1506243766
H   H62       1.0  0.31350  0.44660  0.74090  1.0000 0.1506243766
H   H63       1.0  0.68650  0.13310  0.25910  1.0000 0.1506243766
H   H64       1.0  0.55340  0.86690  0.74090  1.0000 0.1506243766
H   H65       1.0  0.86690  0.55340  0.25910  1.0000 0.1506243766
H   H66       1.0  0.44660  0.31350  0.25910  1.0000 0.1506243766
H   H67       1.0  0.20710  0.64250  0.00570  1.0000 0.156760592
H   H68       1.0  0.35750  0.56460  0.00570  1.0000 0.156760592
H   H69       1.0  0.64250  0.20710  0.99430  1.0000 0.156760592
H   H70       1.0  0.43540  0.79290  0.00570  1.0000 0.156760592
H   H71       1.0  0.79290  0.43540  0.99430  1.0000 0.156760592
H   H72       1.0  0.56460  0.35750  0.99430  1.0000 0.156760592
H   H73       1.0  0.27610  0.71390  0.10670  1.0000 0.156760592
H   H74       1.0  0.28610  0.56220  0.10670  1.0000 0.156760592
H   H75       1.0  0.71390  0.27610  0.89330  1.0000 0.156760592
H   H76       1.0  0.43780  0.72390  0.10670  1.0000 0.156760592
H   H77       1.0  0.72390  0.43780  0.89330  1.0000 0.156760592
H   H78       1.0  0.56220  0.28610  0.89330  1.0000 0.156760592
H   H79       1.0  0.20950  0.72480  0.01660  1.0000 0.156760592
H   H80       1.0  0.27520  0.48470  0.01660  1.0000 0.156760592
H   H81       1.0  0.72480  0.20950  0.98340  1.0000 0.156760592
H   H82       1.0  0.51530  0.79050  0.01660  1.0000 0.156760592
H   H83       1.0  0.79050  0.51530  0.98340  1.0000 0.156760592
H   H84       1.0  0.48470  0.27520  0.98340  1.0000 0.156760592
C   C1        1.0  0.21680  0.85200  0.31830  1.0000 0.2024628016
C   C2        1.0  0.14800  0.36480  0.31830  1.0000 0.2024628016
C   C3        1.0  0.85200  0.21680  0.68170  1.0000 0.2024628016
C   C4        1.0  0.63520  0.78320  0.31830  1.0000 0.2024628016
C   C5        1.0  0.78320  0.63520  0.68170  1.0000 0.2024628016
C   C6        1.0  0.36480  0.14800  0.68170  1.0000 0.2024628016
C   C7        1.0  0.22180  0.79140  0.40240  1.0000 -0.1210511683
C   C8        1.0  0.20860  0.43040  0.40240  1.0000 -0.1210511683
C   C9        1.0  0.79140  0.22180  0.59760  1.0000 -0.1210511683
C   C10       1.0  0.56960  0.77820  0.40240  1.0000 -0.1210511683
C   C11       1.0  0.77820  0.56960  0.59760  1.0000 -0.1210511683
C   C12       1.0  0.43040  0.20860  0.59760  1.0000 -0.1210511683
C   C13       1.0  0.29460  0.82880  0.49050  1.0000 0.2203715796
C   C14       1.0  0.17120  0.46580  0.49050  1.0000 0.2203715796
C   C15       1.0  0.82880  0.29460  0.50950  1.0000 0.2203715796
C   C16       1.0  0.53420  0.70540  0.49050  1.0000 0.2203715796
C   C17       1.0  0.70540  0.53420  0.50950  1.0000 0.2203715796
C   C18       1.0  0.46580  0.17120  0.50950  1.0000 0.2203715796
C   C19       1.0  0.32730  0.78780  0.59710  1.0000 -0.4784550104
C   C20       1.0  0.21220  0.53950  0.59710  1.0000 -0.4784550104
C   C21       1.0  0.78780  0.32730  0.40290  1.0000 -0.4784550104
C   C22       1.0  0.46050  0.67270  0.59710  1.0000 -0.4784550104
C   C23       1.0  0.67270  0.46050  0.40290  1.0000 -0.4784550104
C   C24       1.0  0.53950  0.21220  0.40290  1.0000 -0.4784550104
C   C25       1.0  0.15560  0.85060  0.19770  1.0000 -0.4538562331
C   C26       1.0  0.14940  0.30500  0.19770  1.0000 -0.4538562331
C   C27       1.0  0.85060  0.15560  0.80230  1.0000 -0.4538562331
C   C28       1.0  0.69500  0.84440  0.19770  1.0000 -0.4538562331
C   C29       1.0  0.84440  0.69500  0.80230  1.0000 -0.4538562331
C   C30       1.0  0.30500  0.14940  0.80230  1.0000 -0.4538562331
C   C31       1.0  0.17070  0.66070  0.24020  1.0000 0.2136123793
C   C32       1.0  0.33930  0.51000  0.24020  1.0000 0.2136123793
C   C33       1.0  0.66070  0.17070  0.75980  1.0000 0.2136123793
C   C34       1.0  0.49000  0.82930  0.24020  1.0000 0.2136123793
C   C35       1.0  0.82930  0.49000  0.75980  1.0000 0.2136123793
C   C36       1.0  0.51000  0.33930  0.75980  1.0000 0.2136123793
C   C37       1.0  0.16880  0.70410  0.38080  1.0000 -0.1412070364
C   C38       1.0  0.29590  0.46470  0.38080  1.0000 -0.1412070364
C   C39       1.0  0.70410  0.16880  0.61920  1.0000 -0.1412070364
C   C40       1.0  0.53530  0.83120  0.38080  1.0000 -0.1412070364
C   C41       1.0  0.83120  0.53530  0.61920  1.0000 -0.1412070364
C   C42       1.0  0.46470  0.29590  0.61920  1.0000 -0.1412070364
C   C43       1.0  0.11230  0.64670  0.49410  1.0000 0.2203715796
C   C44       1.0  0.35330  0.46560  0.49410  1.0000 0.2203715796
C   C45       1.0  0.64670  0.11230  0.50590  1.0000 0.2203715796
C   C46       1.0  0.53440  0.88770  0.49410  1.0000 0.2203715796
C   C47       1.0  0.88770  0.53440  0.50590  1.0000 0.2203715796
C   C48       1.0  0.46560  0.35330  0.50590  1.0000 0.2203715796
C   C49       1.0  0.08740  0.66150  0.66640  1.0000 -0.4742957883
C   C50       1.0  0.33850  0.42590  0.66640  1.0000 -0.4742957883
C   C51       1.0  0.66150  0.08740  0.33360  1.0000 -0.4742957883
C   C52       1.0  0.57410  0.91260  0.66640  1.0000 -0.4742957883
C   C53       1.0  0.91260  0.57410  0.33360  1.0000 -0.4742957883
C   C54       1.0  0.42590  0.33850  0.33360  1.0000 -0.4742957883
C   C55       1.0  0.22040  0.68800  0.07740  1.0000 -0.4876778556
C   C56       1.0  0.31200  0.53240  0.07740  1.0000 -0.4876778556
C   C57       1.0  0.68800  0.22040  0.92260  1.0000 -0.4876778556
C   C58       1.0  0.46760  0.77960  0.07740  1.0000 -0.4876778556
C   C59       1.0  0.77960  0.46760  0.92260  1.0000 -0.4876778556
C   C60       1.0  0.53240  0.31200  0.92260  1.0000 -0.4876778556
S   S1        1.0  0.37337  0.94876  0.91368  1.0000 0.9494886067
S   S2        1.0  0.05124  0.42461  0.91368  1.0000 0.9494886067
S   S3        1.0  0.94876  0.37337  0.08632  1.0000 0.9494886067
S   S4        1.0  0.57539  0.62663  0.91368  1.0000 0.9494886067
S   S5        1.0  0.62663  0.57539  0.08632  1.0000 0.9494886067
S   S6        1.0  0.42461  0.05124  0.08632  1.0000 0.9494886067
N   N1        1.0  0.33300  0.90860  0.46470  1.0000 -0.2712248447
N   N2        1.0  0.09140  0.42440  0.46470  1.0000 -0.2712248447
N   N3        1.0  0.90860  0.33300  0.53530  1.0000 -0.2712248447
N   N4        1.0  0.57560  0.66700  0.46470  1.0000 -0.2712248447
N   N5        1.0  0.66700  0.57560  0.53530  1.0000 -0.2712248447
N   N6        1.0  0.42440  0.09140  0.53530  1.0000 -0.2712248447
N   N7        1.0  0.28270  0.92090  0.36150  1.0000 -0.1412070364
N   N8        1.0  0.07910  0.36180  0.36150  1.0000 -0.1412070364
N   N9        1.0  0.92090  0.28270  0.63850  1.0000 -0.1412070364
N   N10       1.0  0.63820  0.71730  0.36150  1.0000 -0.1412070364
N   N11       1.0  0.71730  0.63820  0.63850  1.0000 -0.1412070364
N   N12       1.0  0.36180  0.07910  0.63850  1.0000 -0.1412070364
N   N13       1.0  0.11910  0.58450  0.27100  1.0000 -0.1540526731
N   N14       1.0  0.41550  0.53460  0.27100  1.0000 -0.1540526731
N   N15       1.0  0.58450  0.11910  0.72900  1.0000 -0.1540526731
N   N16       1.0  0.46540  0.88090  0.27100  1.0000 -0.1540526731
N   N17       1.0  0.88090  0.46540  0.72900  1.0000 -0.1540526731
N   N18       1.0  0.53460  0.41550  0.72900  1.0000 -0.1540526731
N   N19       1.0  0.08180  0.57360  0.42750  1.0000 -0.2574506335
N   N20       1.0  0.42640  0.50820  0.42750  1.0000 -0.2574506335
N   N21       1.0  0.57360  0.08180  0.57250  1.0000 -0.2574506335
N   N22       1.0  0.49180  0.91820  0.42750  1.0000 -0.2574506335
N   N23       1.0  0.91820  0.49180  0.57250  1.0000 -0.2574506335
N   N24       1.0  0.50820  0.42640  0.57250  1.0000 -0.2574506335
O   O1        1.0  0.30050  0.94270  0.85020  1.0000 -0.5183443658
O   O2        1.0  0.05730  0.35780  0.85020  1.0000 -0.5183443658
O   O3        1.0  0.94270  0.30050  0.14980  1.0000 -0.5183443658
O   O4        1.0  0.64220  0.69950  0.85020  1.0000 -0.5183443658
O   O5        1.0  0.69950  0.64220  0.14980  1.0000 -0.5183443658
O   O6        1.0  0.35780  0.05730  0.14980  1.0000 -0.5183443658
O   O7        1.0  0.36160  0.88150  0.01840  1.0000 -0.5183443658
O   O8        1.0  0.11850  0.48010  0.01840  1.0000 -0.5183443658
O   O9        1.0  0.88150  0.36160  0.98160  1.0000 -0.5183443658
O   O10       1.0  0.51990  0.63840  0.01840  1.0000 -0.5183443658
O   O11       1.0  0.63840  0.51990  0.98160  1.0000 -0.5183443658
O   O12       1.0  0.48010  0.11850  0.98160  1.0000 -0.5183443658
O   O13       1.0  0.43530  0.97100  0.78240  1.0000 -0.5710306598
O   O14       1.0  0.02900  0.46430  0.78240  1.0000 -0.5710306598
O   O15       1.0  0.97100  0.43530  0.21760  1.0000 -0.5710306598
O   O16       1.0  0.53570  0.56470  0.78240  1.0000 -0.5710306598
O   O17       1.0  0.56470  0.53570  0.21760  1.0000 -0.5710306598
O   O18       1.0  0.46430  0.02900  0.21760  1.0000 -0.5710306598
