# DDEC6 charges by PACMAN v1.1 (https://github.com/mtap-research/PACMAN-charge/)
data_2003[Zn][hex]3[ASR]1
_chemical_formula_sum              "Zn12 H128 C208 N8 O48"
_cell_length_a       14.532
_cell_length_b       18.184
_cell_length_c       25.037
_cell_angle_alpha    90
_cell_angle_beta     90
_cell_angle_gamma    90

_symmetry_space_group_name_H-M    "P 1"
_symmetry_Int_Tables_number       1

loop_
  _symmetry_equiv_pos_as_xyz
  'x, y, z'

loop_
  _atom_site_type_symbol
  _atom_site_label
  _atom_site_symmetry_multiplicity
  _atom_site_fract_x
  _atom_site_fract_y
  _atom_site_fract_z
  _atom_site_occupancy
  _atom_site_charge
Zn  Zn1       1.0  0.03536  0.55685  0.14808  1.0000 0.806618039
Zn  Zn2       1.0  0.96464  0.94315  0.14808  1.0000 0.806618039
Zn  Zn3       1.0  0.53536  0.94315  0.64808  1.0000 0.806618039
Zn  Zn4       1.0  0.46464  0.55685  0.64808  1.0000 0.806618039
Zn  Zn5       1.0  0.00000  0.75000  0.14837  1.0000 0.9701872063
Zn  Zn6       1.0  0.50000  0.75000  0.64837  1.0000 0.9701872063
Zn  Zn7       1.0  0.46464  0.05685  0.35192  1.0000 0.806618039
Zn  Zn8       1.0  0.53536  0.44315  0.35192  1.0000 0.806618039
Zn  Zn9       1.0  0.96464  0.44315  0.85192  1.0000 0.806618039
Zn  Zn10      1.0  0.03536  0.05685  0.85192  1.0000 0.806618039
Zn  Zn11      1.0  0.50000  0.25000  0.35163  1.0000 0.9701872063
Zn  Zn12      1.0  0.00000  0.25000  0.85163  1.0000 0.9701872063
H   H1        1.0  0.97880  0.43400  0.07460  1.0000 0.1045280352
H   H2        1.0  0.02120  0.06600  0.07460  1.0000 0.1045280352
H   H3        1.0  0.47880  0.06600  0.57460  1.0000 0.1045280352
H   H4        1.0  0.52120  0.43400  0.57460  1.0000 0.1045280352
H   H5        1.0  0.96280  0.30850  0.07350  1.0000 0.1283230302
H   H6        1.0  0.03720  0.19150  0.07350  1.0000 0.1283230302
H   H7        1.0  0.46280  0.19150  0.57350  1.0000 0.1283230302
H   H8        1.0  0.53720  0.30850  0.57350  1.0000 0.1283230302
H   H9        1.0  0.05400  0.30160  0.22360  1.0000 0.1283230302
H   H10       1.0  0.94600  0.19840  0.22360  1.0000 0.1283230302
H   H11       1.0  0.55400  0.19840  0.72360  1.0000 0.1283230302
H   H12       1.0  0.44600  0.30160  0.72360  1.0000 0.1283230302
H   H13       1.0  0.06950  0.42780  0.22110  1.0000 0.1116231679
H   H14       1.0  0.93050  0.07220  0.22110  1.0000 0.1116231679
H   H15       1.0  0.56950  0.07220  0.72110  1.0000 0.1116231679
H   H16       1.0  0.43050  0.42780  0.72110  1.0000 0.1116231679
H   H17       1.0  0.13090  0.97850  0.00870  1.0000 0.1164719077
H   H18       1.0  0.86910  0.52150  0.00870  1.0000 0.1164719077
H   H19       1.0  0.63090  0.52150  0.50870  1.0000 0.1164719077
H   H20       1.0  0.36910  0.97850  0.50870  1.0000 0.1164719077
H   H21       1.0  0.21540  0.97540  0.93060  1.0000 0.1116231679
H   H22       1.0  0.78460  0.52460  0.93060  1.0000 0.1116231679
H   H23       1.0  0.71540  0.52460  0.43060  1.0000 0.1116231679
H   H24       1.0  0.28460  0.97540  0.43060  1.0000 0.1116231679
H   H25       1.0  0.23100  0.75580  0.93970  1.0000 0.1045280352
H   H26       1.0  0.76900  0.74420  0.93970  1.0000 0.1045280352
H   H27       1.0  0.73100  0.74420  0.43970  1.0000 0.1045280352
H   H28       1.0  0.26900  0.75580  0.43970  1.0000 0.1045280352
H   H29       1.0  0.14660  0.75770  0.01810  1.0000 0.1283230302
H   H30       1.0  0.85340  0.74230  0.01810  1.0000 0.1283230302
H   H31       1.0  0.64660  0.74230  0.51810  1.0000 0.1283230302
H   H32       1.0  0.35340  0.75770  0.51810  1.0000 0.1283230302
H   H33       1.0  0.32180  0.96850  0.87590  1.0000 0.1116231679
H   H34       1.0  0.67820  0.53150  0.87590  1.0000 0.1116231679
H   H35       1.0  0.82180  0.53150  0.37590  1.0000 0.1116231679
H   H36       1.0  0.17820  0.96850  0.37590  1.0000 0.1116231679
H   H37       1.0  0.26540  0.76210  0.85640  1.0000 0.1116231679
H   H38       1.0  0.73460  0.73790  0.85640  1.0000 0.1116231679
H   H39       1.0  0.76540  0.73790  0.35640  1.0000 0.1116231679
H   H40       1.0  0.23460  0.76210  0.35640  1.0000 0.1116231679
H   H41       1.0  0.33940  0.58260  0.17160  1.0000 0.1164719077
H   H42       1.0  0.66060  0.91740  0.17160  1.0000 0.1164719077
H   H43       1.0  0.83940  0.91740  0.67160  1.0000 0.1164719077
H   H44       1.0  0.16060  0.58260  0.67160  1.0000 0.1164719077
H   H45       1.0  0.48420  0.62990  0.17490  1.0000 0.1116231679
H   H46       1.0  0.51580  0.87010  0.17490  1.0000 0.1116231679
H   H47       1.0  0.98420  0.87010  0.67490  1.0000 0.1116231679
H   H48       1.0  0.01580  0.62990  0.67490  1.0000 0.1116231679
H   H49       1.0  0.38650  0.83030  0.15110  1.0000 0.1116231679
H   H50       1.0  0.61350  0.66970  0.15110  1.0000 0.1116231679
H   H51       1.0  0.88650  0.66970  0.65110  1.0000 0.1116231679
H   H52       1.0  0.11350  0.83030  0.65110  1.0000 0.1116231679
H   H53       1.0  0.23940  0.78240  0.14340  1.0000 0.1283230302
H   H54       1.0  0.76060  0.71760  0.14340  1.0000 0.1283230302
H   H55       1.0  0.73940  0.71760  0.64340  1.0000 0.1283230302
H   H56       1.0  0.26060  0.78240  0.64340  1.0000 0.1283230302
H   H57       1.0  0.40090  0.96890  0.79740  1.0000 0.1164719077
H   H58       1.0  0.59910  0.53110  0.79740  1.0000 0.1164719077
H   H59       1.0  0.90090  0.53110  0.29740  1.0000 0.1164719077
H   H60       1.0  0.09910  0.96890  0.29740  1.0000 0.1164719077
H   H61       1.0  0.35950  0.76120  0.78270  1.0000 0.1283230302
H   H62       1.0  0.64050  0.73880  0.78270  1.0000 0.1283230302
H   H63       1.0  0.85950  0.73880  0.28270  1.0000 0.1283230302
H   H64       1.0  0.14050  0.76120  0.28270  1.0000 0.1283230302
H   H65       1.0  0.52120  0.93400  0.42540  1.0000 0.1045280352
H   H66       1.0  0.47880  0.56600  0.42540  1.0000 0.1045280352
H   H67       1.0  0.02120  0.56600  0.92540  1.0000 0.1045280352
H   H68       1.0  0.97880  0.93400  0.92540  1.0000 0.1045280352
H   H69       1.0  0.53720  0.80850  0.42650  1.0000 0.1283230302
H   H70       1.0  0.46280  0.69150  0.42650  1.0000 0.1283230302
H   H71       1.0  0.03720  0.69150  0.92650  1.0000 0.1283230302
H   H72       1.0  0.96280  0.80850  0.92650  1.0000 0.1283230302
H   H73       1.0  0.44600  0.80160  0.27640  1.0000 0.1283230302
H   H74       1.0  0.55400  0.69840  0.27640  1.0000 0.1283230302
H   H75       1.0  0.94600  0.69840  0.77640  1.0000 0.1283230302
H   H76       1.0  0.05400  0.80160  0.77640  1.0000 0.1283230302
H   H77       1.0  0.43050  0.92780  0.27890  1.0000 0.1116231679
H   H78       1.0  0.56950  0.57220  0.27890  1.0000 0.1116231679
H   H79       1.0  0.93050  0.57220  0.77890  1.0000 0.1116231679
H   H80       1.0  0.06950  0.92780  0.77890  1.0000 0.1116231679
H   H81       1.0  0.36910  0.47850  0.49130  1.0000 0.1164719077
H   H82       1.0  0.63090  0.02150  0.49130  1.0000 0.1164719077
H   H83       1.0  0.86910  0.02150  0.99130  1.0000 0.1164719077
H   H84       1.0  0.13090  0.47850  0.99130  1.0000 0.1164719077
H   H85       1.0  0.28460  0.47540  0.56940  1.0000 0.1116231679
H   H86       1.0  0.71540  0.02460  0.56940  1.0000 0.1116231679
H   H87       1.0  0.78460  0.02460  0.06940  1.0000 0.1116231679
H   H88       1.0  0.21540  0.47540  0.06940  1.0000 0.1116231679
H   H89       1.0  0.26900  0.25580  0.56030  1.0000 0.1045280352
H   H90       1.0  0.73100  0.24420  0.56030  1.0000 0.1045280352
H   H91       1.0  0.76900  0.24420  0.06030  1.0000 0.1045280352
H   H92       1.0  0.23100  0.25580  0.06030  1.0000 0.1045280352
H   H93       1.0  0.35340  0.25770  0.48190  1.0000 0.1283230302
H   H94       1.0  0.64660  0.24230  0.48190  1.0000 0.1283230302
H   H95       1.0  0.85340  0.24230  0.98190  1.0000 0.1283230302
H   H96       1.0  0.14660  0.25770  0.98190  1.0000 0.1283230302
H   H97       1.0  0.17820  0.46850  0.62410  1.0000 0.1116231679
H   H98       1.0  0.82180  0.03150  0.62410  1.0000 0.1116231679
H   H99       1.0  0.67820  0.03150  0.12410  1.0000 0.1116231679
H   H100      1.0  0.32180  0.46850  0.12410  1.0000 0.1116231679
H   H101      1.0  0.23460  0.26210  0.64360  1.0000 0.1116231679
H   H102      1.0  0.76540  0.23790  0.64360  1.0000 0.1116231679
H   H103      1.0  0.73460  0.23790  0.14360  1.0000 0.1116231679
H   H104      1.0  0.26540  0.26210  0.14360  1.0000 0.1116231679
H   H105      1.0  0.16060  0.08260  0.32840  1.0000 0.1164719077
H   H106      1.0  0.83940  0.41740  0.32840  1.0000 0.1164719077
H   H107      1.0  0.66060  0.41740  0.82840  1.0000 0.1164719077
H   H108      1.0  0.33940  0.08260  0.82840  1.0000 0.1164719077
H   H109      1.0  0.01580  0.12990  0.32510  1.0000 0.1116231679
H   H110      1.0  0.98420  0.37010  0.32510  1.0000 0.1116231679
H   H111      1.0  0.51580  0.37010  0.82510  1.0000 0.1116231679
H   H112      1.0  0.48420  0.12990  0.82510  1.0000 0.1116231679
H   H113      1.0  0.11350  0.33030  0.34890  1.0000 0.1116231679
H   H114      1.0  0.88650  0.16970  0.34890  1.0000 0.1116231679
H   H115      1.0  0.61350  0.16970  0.84890  1.0000 0.1116231679
H   H116      1.0  0.38650  0.33030  0.84890  1.0000 0.1116231679
H   H117      1.0  0.26060  0.28240  0.35660  1.0000 0.1283230302
H   H118      1.0  0.73940  0.21760  0.35660  1.0000 0.1283230302
H   H119      1.0  0.76060  0.21760  0.85660  1.0000 0.1283230302
H   H120      1.0  0.23940  0.28240  0.85660  1.0000 0.1283230302
H   H121      1.0  0.09910  0.46890  0.70260  1.0000 0.1164719077
H   H122      1.0  0.90090  0.03110  0.70260  1.0000 0.1164719077
H   H123      1.0  0.59910  0.03110  0.20260  1.0000 0.1164719077
H   H124      1.0  0.40090  0.46890  0.20260  1.0000 0.1164719077
H   H125      1.0  0.14050  0.26120  0.71730  1.0000 0.1283230302
H   H126      1.0  0.85950  0.23880  0.71730  1.0000 0.1283230302
H   H127      1.0  0.64050  0.23880  0.21730  1.0000 0.1283230302
H   H128      1.0  0.35950  0.26120  0.21730  1.0000 0.1283230302
C   C1        1.0  0.99410  0.40710  0.10490  1.0000 0.0860893471
C   C2        1.0  0.00590  0.09290  0.10490  1.0000 0.0860893471
C   C3        1.0  0.49410  0.09290  0.60490  1.0000 0.0860893471
C   C4        1.0  0.50590  0.40710  0.60490  1.0000 0.0860893471
C   C5        1.0  0.98400  0.33170  0.10430  1.0000 -0.1886470872
C   C6        1.0  0.01600  0.16830  0.10430  1.0000 -0.1886470872
C   C7        1.0  0.48400  0.16830  0.60430  1.0000 -0.1886470872
C   C8        1.0  0.51600  0.33170  0.60430  1.0000 -0.1886470872
C   C9        1.0  0.00490  0.29050  0.14860  1.0000 0.1045280352
C   C10       1.0  0.99510  0.20950  0.14860  1.0000 0.1045280352
C   C11       1.0  0.50490  0.20950  0.64860  1.0000 0.1045280352
C   C12       1.0  0.49510  0.29050  0.64860  1.0000 0.1045280352
C   C13       1.0  0.03800  0.32740  0.19290  1.0000 -0.1988621014
C   C14       1.0  0.96200  0.17260  0.19290  1.0000 -0.1988621014
C   C15       1.0  0.53800  0.17260  0.69290  1.0000 -0.1988621014
C   C16       1.0  0.46200  0.32740  0.69290  1.0000 -0.1988621014
C   C17       1.0  0.04720  0.40340  0.19110  1.0000 0.0708076065
C   C18       1.0  0.95280  0.09660  0.19110  1.0000 0.0708076065
C   C19       1.0  0.54720  0.09660  0.69110  1.0000 0.0708076065
C   C20       1.0  0.45280  0.40340  0.69110  1.0000 0.0708076065
C   C21       1.0  0.12680  0.86760  0.02010  1.0000 -0.0446008206
C   C22       1.0  0.87320  0.63240  0.02010  1.0000 -0.0446008206
C   C23       1.0  0.62680  0.63240  0.52010  1.0000 -0.0446008206
C   C24       1.0  0.37320  0.86760  0.52010  1.0000 -0.0446008206
C   C25       1.0  0.15000  0.93370  0.99460  1.0000 -0.1229693028
C   C26       1.0  0.85000  0.56630  0.99460  1.0000 -0.1229693028
C   C27       1.0  0.65000  0.56630  0.49460  1.0000 -0.1229693028
C   C28       1.0  0.35000  0.93370  0.49460  1.0000 -0.1229693028
C   C29       1.0  0.20170  0.93170  0.94820  1.0000 -0.1503138574
C   C30       1.0  0.79830  0.56830  0.94820  1.0000 -0.1503138574
C   C31       1.0  0.70170  0.56830  0.44820  1.0000 -0.1503138574
C   C32       1.0  0.29830  0.93170  0.44820  1.0000 -0.1503138574
C   C33       1.0  0.23350  0.86520  0.92720  1.0000 0.0708076065
C   C34       1.0  0.76650  0.63480  0.92720  1.0000 0.0708076065
C   C35       1.0  0.73350  0.63480  0.42720  1.0000 0.0708076065
C   C36       1.0  0.26650  0.86520  0.42720  1.0000 0.0708076065
C   C37       1.0  0.21100  0.80050  0.95360  1.0000 -0.1607738207
C   C38       1.0  0.78900  0.69950  0.95360  1.0000 -0.1607738207
C   C39       1.0  0.71100  0.69950  0.45360  1.0000 -0.1607738207
C   C40       1.0  0.28900  0.80050  0.45360  1.0000 -0.1607738207
C   C41       1.0  0.15930  0.80140  0.00030  1.0000 -0.1229693028
C   C42       1.0  0.84070  0.69860  0.00030  1.0000 -0.1229693028
C   C43       1.0  0.65930  0.69860  0.50030  1.0000 -0.1229693028
C   C44       1.0  0.34070  0.80140  0.50030  1.0000 -0.1229693028
C   C45       1.0  0.28800  0.86450  0.87710  1.0000 0.0708076065
C   C46       1.0  0.71200  0.63550  0.87710  1.0000 0.0708076065
C   C47       1.0  0.78800  0.63550  0.37710  1.0000 0.0708076065
C   C48       1.0  0.21200  0.86450  0.37710  1.0000 0.0708076065
C   C49       1.0  0.32720  0.92460  0.85710  1.0000 -0.1721017169
C   C50       1.0  0.67280  0.57540  0.85710  1.0000 -0.1721017169
C   C51       1.0  0.82720  0.57540  0.35710  1.0000 -0.1721017169
C   C52       1.0  0.17280  0.92460  0.35710  1.0000 -0.1721017169
C   C53       1.0  0.29610  0.80490  0.84670  1.0000 -0.1769496756
C   C54       1.0  0.70390  0.69510  0.84670  1.0000 -0.1769496756
C   C55       1.0  0.79610  0.69510  0.34670  1.0000 -0.1769496756
C   C56       1.0  0.20390  0.80490  0.34670  1.0000 -0.1769496756
C   C57       1.0  0.17820  0.64660  0.15120  1.0000 0.5435179366
C   C58       1.0  0.82180  0.85340  0.15120  1.0000 0.5435179366
C   C59       1.0  0.67820  0.85340  0.65120  1.0000 0.5435179366
C   C60       1.0  0.32180  0.64660  0.65120  1.0000 0.5435179366
C   C61       1.0  0.27380  0.67720  0.15570  1.0000 -0.0207772835
C   C62       1.0  0.72620  0.82280  0.15570  1.0000 -0.0207772835
C   C63       1.0  0.77380  0.82280  0.65570  1.0000 -0.0207772835
C   C64       1.0  0.22620  0.67720  0.65570  1.0000 -0.0207772835
C   C65       1.0  0.34830  0.63270  0.16610  1.0000 -0.1119360534
C   C66       1.0  0.65170  0.86730  0.16610  1.0000 -0.1119360534
C   C67       1.0  0.84830  0.86730  0.66610  1.0000 -0.1119360534
C   C68       1.0  0.15170  0.63270  0.66610  1.0000 -0.1119360534
C   C69       1.0  0.43500  0.66130  0.16830  1.0000 -0.1607738207
C   C70       1.0  0.56500  0.83870  0.16830  1.0000 -0.1607738207
C   C71       1.0  0.93500  0.83870  0.66830  1.0000 -0.1607738207
C   C72       1.0  0.06500  0.66130  0.66830  1.0000 -0.1607738207
C   C73       1.0  0.45200  0.73490  0.16110  1.0000 0.0708076065
C   C74       1.0  0.54800  0.76510  0.16110  1.0000 0.0708076065
C   C75       1.0  0.95200  0.76510  0.66110  1.0000 0.0708076065
C   C76       1.0  0.04800  0.73490  0.66110  1.0000 0.0708076065
C   C77       1.0  0.37770  0.77970  0.15370  1.0000 -0.1503138574
C   C78       1.0  0.62230  0.72030  0.15370  1.0000 -0.1503138574
C   C79       1.0  0.87770  0.72030  0.65370  1.0000 -0.1503138574
C   C80       1.0  0.12230  0.77970  0.65370  1.0000 -0.1503138574
C   C81       1.0  0.28880  0.75110  0.14990  1.0000 -0.1035224604
C   C82       1.0  0.71120  0.74890  0.14990  1.0000 -0.1035224604
C   C83       1.0  0.78880  0.74890  0.64990  1.0000 -0.1035224604
C   C84       1.0  0.21120  0.75110  0.64990  1.0000 -0.1035224604
C   C85       1.0  0.43690  0.86760  0.72920  1.0000 0.5701117856
C   C86       1.0  0.56310  0.63240  0.72920  1.0000 0.5701117856
C   C87       1.0  0.93690  0.63240  0.22920  1.0000 0.5701117856
C   C88       1.0  0.06310  0.86760  0.22920  1.0000 0.5701117856
C   C89       1.0  0.38760  0.86570  0.78060  1.0000 -0.0335799001
C   C90       1.0  0.61240  0.63430  0.78060  1.0000 -0.0335799001
C   C91       1.0  0.88760  0.63430  0.28060  1.0000 -0.0335799001
C   C92       1.0  0.11240  0.86570  0.28060  1.0000 -0.0335799001
C   C93       1.0  0.37580  0.92480  0.80940  1.0000 -0.1119360534
C   C94       1.0  0.62420  0.57520  0.80940  1.0000 -0.1119360534
C   C95       1.0  0.87580  0.57520  0.30940  1.0000 -0.1119360534
C   C96       1.0  0.12420  0.92480  0.30940  1.0000 -0.1119360534
C   C97       1.0  0.34980  0.80540  0.80040  1.0000 -0.1119360534
C   C98       1.0  0.65020  0.69460  0.80040  1.0000 -0.1119360534
C   C99       1.0  0.84980  0.69460  0.30040  1.0000 -0.1119360534
C   C100      1.0  0.15020  0.80540  0.30040  1.0000 -0.1119360534
C   C101      1.0  0.06750  0.86830  0.06900  1.0000 0.5609068615
C   C102      1.0  0.93250  0.63170  0.06900  1.0000 0.5609068615
C   C103      1.0  0.56750  0.63170  0.56900  1.0000 0.5609068615
C   C104      1.0  0.43250  0.86830  0.56900  1.0000 0.5609068615
C   C105      1.0  0.50590  0.90710  0.39510  1.0000 0.0860893471
C   C106      1.0  0.49410  0.59290  0.39510  1.0000 0.0860893471
C   C107      1.0  0.00590  0.59290  0.89510  1.0000 0.0860893471
C   C108      1.0  0.99410  0.90710  0.89510  1.0000 0.0860893471
C   C109      1.0  0.51600  0.83170  0.39570  1.0000 -0.1886470872
C   C110      1.0  0.48400  0.66830  0.39570  1.0000 -0.1886470872
C   C111      1.0  0.01600  0.66830  0.89570  1.0000 -0.1886470872
C   C112      1.0  0.98400  0.83170  0.89570  1.0000 -0.1886470872
C   C113      1.0  0.49510  0.79050  0.35140  1.0000 0.1045280352
C   C114      1.0  0.50490  0.70950  0.35140  1.0000 0.1045280352
C   C115      1.0  0.99510  0.70950  0.85140  1.0000 0.1045280352
C   C116      1.0  0.00490  0.79050  0.85140  1.0000 0.1045280352
C   C117      1.0  0.46200  0.82740  0.30710  1.0000 -0.1988621014
C   C118      1.0  0.53800  0.67260  0.30710  1.0000 -0.1988621014
C   C119      1.0  0.96200  0.67260  0.80710  1.0000 -0.1988621014
C   C120      1.0  0.03800  0.82740  0.80710  1.0000 -0.1988621014
C   C121      1.0  0.45280  0.90340  0.30890  1.0000 0.0708076065
C   C122      1.0  0.54720  0.59660  0.30890  1.0000 0.0708076065
C   C123      1.0  0.95280  0.59660  0.80890  1.0000 0.0708076065
C   C124      1.0  0.04720  0.90340  0.80890  1.0000 0.0708076065
C   C125      1.0  0.37320  0.36760  0.47990  1.0000 -0.0446008206
C   C126      1.0  0.62680  0.13240  0.47990  1.0000 -0.0446008206
C   C127      1.0  0.87320  0.13240  0.97990  1.0000 -0.0446008206
C   C128      1.0  0.12680  0.36760  0.97990  1.0000 -0.0446008206
C   C129      1.0  0.35000  0.43370  0.50540  1.0000 -0.1229693028
C   C130      1.0  0.65000  0.06630  0.50540  1.0000 -0.1229693028
C   C131      1.0  0.85000  0.06630  0.00540  1.0000 -0.1229693028
C   C132      1.0  0.15000  0.43370  0.00540  1.0000 -0.1229693028
C   C133      1.0  0.29830  0.43170  0.55180  1.0000 -0.1503138574
C   C134      1.0  0.70170  0.06830  0.55180  1.0000 -0.1503138574
C   C135      1.0  0.79830  0.06830  0.05180  1.0000 -0.1503138574
C   C136      1.0  0.20170  0.43170  0.05180  1.0000 -0.1503138574
C   C137      1.0  0.26650  0.36520  0.57280  1.0000 0.0708076065
C   C138      1.0  0.73350  0.13480  0.57280  1.0000 0.0708076065
C   C139      1.0  0.76650  0.13480  0.07280  1.0000 0.0708076065
C   C140      1.0  0.23350  0.36520  0.07280  1.0000 0.0708076065
C   C141      1.0  0.28900  0.30050  0.54640  1.0000 -0.1607738207
C   C142      1.0  0.71100  0.19950  0.54640  1.0000 -0.1607738207
C   C143      1.0  0.78900  0.19950  0.04640  1.0000 -0.1607738207
C   C144      1.0  0.21100  0.30050  0.04640  1.0000 -0.1607738207
C   C145      1.0  0.34070  0.30140  0.49970  1.0000 -0.1229693028
C   C146      1.0  0.65930  0.19860  0.49970  1.0000 -0.1229693028
C   C147      1.0  0.84070  0.19860  0.99970  1.0000 -0.1229693028
C   C148      1.0  0.15930  0.30140  0.99970  1.0000 -0.1229693028
C   C149      1.0  0.21200  0.36450  0.62290  1.0000 0.0708076065
C   C150      1.0  0.78800  0.13550  0.62290  1.0000 0.0708076065
C   C151      1.0  0.71200  0.13550  0.12290  1.0000 0.0708076065
C   C152      1.0  0.28800  0.36450  0.12290  1.0000 0.0708076065
C   C153      1.0  0.17280  0.42460  0.64290  1.0000 -0.1721017169
C   C154      1.0  0.82720  0.07540  0.64290  1.0000 -0.1721017169
C   C155      1.0  0.67280  0.07540  0.14290  1.0000 -0.1721017169
C   C156      1.0  0.32720  0.42460  0.14290  1.0000 -0.1721017169
C   C157      1.0  0.20390  0.30490  0.65330  1.0000 -0.1769496756
C   C158      1.0  0.79610  0.19510  0.65330  1.0000 -0.1769496756
C   C159      1.0  0.70390  0.19510  0.15330  1.0000 -0.1769496756
C   C160      1.0  0.29610  0.30490  0.15330  1.0000 -0.1769496756
C   C161      1.0  0.32180  0.14660  0.34880  1.0000 0.5435179366
C   C162      1.0  0.67820  0.35340  0.34880  1.0000 0.5435179366
C   C163      1.0  0.82180  0.35340  0.84880  1.0000 0.5435179366
C   C164      1.0  0.17820  0.14660  0.84880  1.0000 0.5435179366
C   C165      1.0  0.22620  0.17720  0.34430  1.0000 -0.0207772835
C   C166      1.0  0.77380  0.32280  0.34430  1.0000 -0.0207772835
C   C167      1.0  0.72620  0.32280  0.84430  1.0000 -0.0207772835
C   C168      1.0  0.27380  0.17720  0.84430  1.0000 -0.0207772835
C   C169      1.0  0.15170  0.13270  0.33390  1.0000 -0.1119360534
C   C170      1.0  0.84830  0.36730  0.33390  1.0000 -0.1119360534
C   C171      1.0  0.65170  0.36730  0.83390  1.0000 -0.1119360534
C   C172      1.0  0.34830  0.13270  0.83390  1.0000 -0.1119360534
C   C173      1.0  0.06500  0.16130  0.33170  1.0000 -0.1607738207
C   C174      1.0  0.93500  0.33870  0.33170  1.0000 -0.1607738207
C   C175      1.0  0.56500  0.33870  0.83170  1.0000 -0.1607738207
C   C176      1.0  0.43500  0.16130  0.83170  1.0000 -0.1607738207
C   C177      1.0  0.04800  0.23490  0.33890  1.0000 0.0708076065
C   C178      1.0  0.95200  0.26510  0.33890  1.0000 0.0708076065
C   C179      1.0  0.54800  0.26510  0.83890  1.0000 0.0708076065
C   C180      1.0  0.45200  0.23490  0.83890  1.0000 0.0708076065
C   C181      1.0  0.12230  0.27970  0.34630  1.0000 -0.1503138574
C   C182      1.0  0.87770  0.22030  0.34630  1.0000 -0.1503138574
C   C183      1.0  0.62230  0.22030  0.84630  1.0000 -0.1503138574
C   C184      1.0  0.37770  0.27970  0.84630  1.0000 -0.1503138574
C   C185      1.0  0.21120  0.25110  0.35010  1.0000 -0.1035224604
C   C186      1.0  0.78880  0.24890  0.35010  1.0000 -0.1035224604
C   C187      1.0  0.71120  0.24890  0.85010  1.0000 -0.1035224604
C   C188      1.0  0.28880  0.25110  0.85010  1.0000 -0.1035224604
C   C189      1.0  0.06310  0.36760  0.77080  1.0000 0.5701117856
C   C190      1.0  0.93690  0.13240  0.77080  1.0000 0.5701117856
C   C191      1.0  0.56310  0.13240  0.27080  1.0000 0.5701117856
C   C192      1.0  0.43690  0.36760  0.27080  1.0000 0.5701117856
C   C193      1.0  0.11240  0.36570  0.71940  1.0000 -0.0335799001
C   C194      1.0  0.88760  0.13430  0.71940  1.0000 -0.0335799001
C   C195      1.0  0.61240  0.13430  0.21940  1.0000 -0.0335799001
C   C196      1.0  0.38760  0.36570  0.21940  1.0000 -0.0335799001
C   C197      1.0  0.12420  0.42480  0.69060  1.0000 -0.1119360534
C   C198      1.0  0.87580  0.07520  0.69060  1.0000 -0.1119360534
C   C199      1.0  0.62420  0.07520  0.19060  1.0000 -0.1119360534
C   C200      1.0  0.37580  0.42480  0.19060  1.0000 -0.1119360534
C   C201      1.0  0.15020  0.30540  0.69960  1.0000 -0.1119360534
C   C202      1.0  0.84980  0.19460  0.69960  1.0000 -0.1119360534
C   C203      1.0  0.65020  0.19460  0.19960  1.0000 -0.1119360534
C   C204      1.0  0.34980  0.30540  0.19960  1.0000 -0.1119360534
C   C205      1.0  0.43250  0.36830  0.43100  1.0000 0.5609068615
C   C206      1.0  0.56750  0.13170  0.43100  1.0000 0.5609068615
C   C207      1.0  0.93250  0.13170  0.93100  1.0000 0.5609068615
C   C208      1.0  0.06750  0.36830  0.93100  1.0000 0.5609068615
N   N1        1.0  0.02520  0.44280  0.14819  1.0000 -0.2338242656
N   N2        1.0  0.97480  0.05720  0.14819  1.0000 -0.2338242656
N   N3        1.0  0.52520  0.05720  0.64819  1.0000 -0.2338242656
N   N4        1.0  0.47480  0.44280  0.64819  1.0000 -0.2338242656
N   N5        1.0  0.47480  0.94280  0.35181  1.0000 -0.2338242656
N   N6        1.0  0.52520  0.55720  0.35181  1.0000 -0.2338242656
N   N7        1.0  0.97480  0.55720  0.85181  1.0000 -0.2338242656
N   N8        1.0  0.02520  0.94280  0.85181  1.0000 -0.2338242656
O   O1        1.0  0.16640  0.57940  0.15290  1.0000 -0.4804042051
O   O2        1.0  0.83360  0.92060  0.15290  1.0000 -0.4804042051
O   O3        1.0  0.66640  0.92060  0.65290  1.0000 -0.4804042051
O   O4        1.0  0.33360  0.57940  0.65290  1.0000 -0.4804042051
O   O5        1.0  0.47000  0.92600  0.71437  1.0000 -0.4920901912
O   O6        1.0  0.53000  0.57400  0.71437  1.0000 -0.4920901912
O   O7        1.0  0.97000  0.57400  0.21437  1.0000 -0.4920901912
O   O8        1.0  0.03000  0.92600  0.21437  1.0000 -0.4920901912
O   O9        1.0  0.03270  0.92780  0.08261  1.0000 -0.5267291102
O   O10       1.0  0.96730  0.57220  0.08261  1.0000 -0.5267291102
O   O11       1.0  0.53270  0.57220  0.58261  1.0000 -0.5267291102
O   O12       1.0  0.46730  0.92780  0.58261  1.0000 -0.5267291102
O   O13       1.0  0.05600  0.81120  0.09220  1.0000 -0.4978734808
O   O14       1.0  0.94400  0.68880  0.09220  1.0000 -0.4978734808
O   O15       1.0  0.55600  0.68880  0.59220  1.0000 -0.4978734808
O   O16       1.0  0.44400  0.81120  0.59220  1.0000 -0.4978734808
O   O17       1.0  0.11520  0.68540  0.14530  1.0000 -0.4559132116
O   O18       1.0  0.88480  0.81460  0.14530  1.0000 -0.4559132116
O   O19       1.0  0.61520  0.81460  0.64530  1.0000 -0.4559132116
O   O20       1.0  0.38480  0.68540  0.64530  1.0000 -0.4559132116
O   O21       1.0  0.44460  0.81240  0.70420  1.0000 -0.4804042051
O   O22       1.0  0.55540  0.68760  0.70420  1.0000 -0.4804042051
O   O23       1.0  0.94460  0.68760  0.20420  1.0000 -0.4804042051
O   O24       1.0  0.05540  0.81240  0.20420  1.0000 -0.4804042051
O   O25       1.0  0.33360  0.07940  0.34710  1.0000 -0.4804042051
O   O26       1.0  0.66640  0.42060  0.34710  1.0000 -0.4804042051
O   O27       1.0  0.83360  0.42060  0.84710  1.0000 -0.4804042051
O   O28       1.0  0.16640  0.07940  0.84710  1.0000 -0.4804042051
O   O29       1.0  0.03000  0.42600  0.78563  1.0000 -0.4920901912
O   O30       1.0  0.97000  0.07400  0.78563  1.0000 -0.4920901912
O   O31       1.0  0.53000  0.07400  0.28563  1.0000 -0.4920901912
O   O32       1.0  0.47000  0.42600  0.28563  1.0000 -0.4920901912
O   O33       1.0  0.46730  0.42780  0.41739  1.0000 -0.5267291102
O   O34       1.0  0.53270  0.07220  0.41739  1.0000 -0.5267291102
O   O35       1.0  0.96730  0.07220  0.91739  1.0000 -0.5267291102
O   O36       1.0  0.03270  0.42780  0.91739  1.0000 -0.5267291102
O   O37       1.0  0.44400  0.31120  0.40780  1.0000 -0.4978734808
O   O38       1.0  0.55600  0.18880  0.40780  1.0000 -0.4978734808
O   O39       1.0  0.94400  0.18880  0.90780  1.0000 -0.4978734808
O   O40       1.0  0.05600  0.31120  0.90780  1.0000 -0.4978734808
O   O41       1.0  0.38480  0.18540  0.35470  1.0000 -0.4547938066
O   O42       1.0  0.61520  0.31460  0.35470  1.0000 -0.4559132116
O   O43       1.0  0.88480  0.31460  0.85470  1.0000 -0.4559132116
O   O44       1.0  0.11520  0.18540  0.85470  1.0000 -0.4547938066
O   O45       1.0  0.05540  0.31240  0.79580  1.0000 -0.4804042051
O   O46       1.0  0.94460  0.18760  0.79580  1.0000 -0.4804042051
O   O47       1.0  0.55540  0.18760  0.29580  1.0000 -0.4804042051
O   O48       1.0  0.44460  0.31240  0.29580  1.0000 -0.4804042051
