# DDEC6 charges by PACMAN v1.1 (https://github.com/mtap-research/PACMAN-charge/)
data_2004[Mn][dia]3[ASR]1
_chemical_formula_sum              "Mn12 H24 C24 O48"
_cell_length_a       11.6495
_cell_length_b       10.1279
_cell_length_c       18.6135
_cell_angle_alpha    90
_cell_angle_beta     127.056
_cell_angle_gamma    90

_symmetry_space_group_name_H-M    "P 1"
_symmetry_Int_Tables_number       1

loop_
  _symmetry_equiv_pos_as_xyz
  'x, y, z'

loop_
  _atom_site_type_symbol
  _atom_site_label
  _atom_site_symmetry_multiplicity
  _atom_site_fract_x
  _atom_site_fract_y
  _atom_site_fract_z
  _atom_site_occupancy
  _atom_site_charge
Mn  Mn1       1.0  0.62568  0.91559  0.86885  1.0000 0.9670406324
Mn  Mn2       1.0  0.37432  0.41559  0.63115  1.0000 0.9670406324
Mn  Mn3       1.0  0.37432  0.08441  0.13115  1.0000 0.9670406324
Mn  Mn4       1.0  0.62568  0.58441  0.36885  1.0000 0.9670406324
Mn  Mn5       1.0  0.42447  0.10029  0.68492  1.0000 0.9759979439
Mn  Mn6       1.0  0.57553  0.60029  0.81508  1.0000 0.9759979439
Mn  Mn7       1.0  0.57553  0.89971  0.31508  1.0000 0.9759979439
Mn  Mn8       1.0  0.42447  0.39971  0.18492  1.0000 0.9759979439
Mn  Mn9       1.0  0.50000  0.00000  0.00000  1.0000 0.9922827822
Mn  Mn10      1.0  0.50000  0.50000  0.50000  1.0000 0.9922827822
Mn  Mn11      1.0  0.00000  0.00000  0.00000  1.0000 1.0001419527
Mn  Mn12      1.0  0.00000  0.50000  0.50000  1.0000 1.0001419527
H   H1        1.0  0.49930  0.74940  0.63540  1.0000 0.0907577635
H   H2        1.0  0.50070  0.24940  0.86460  1.0000 0.0907577635
H   H3        1.0  0.50070  0.25060  0.36460  1.0000 0.0907577635
H   H4        1.0  0.49930  0.75060  0.13540  1.0000 0.0907577635
H   H5        1.0  0.21350  0.02340  0.73500  1.0000 0.0907577635
H   H6        1.0  0.78650  0.52340  0.76500  1.0000 0.0907577635
H   H7        1.0  0.78650  0.97660  0.26500  1.0000 0.0907577635
H   H8        1.0  0.21350  0.47660  0.23500  1.0000 0.0907577635
H   H9        1.0  0.51140  0.61880  0.95740  1.0000 0.0907577635
H   H10       1.0  0.48860  0.11880  0.54260  1.0000 0.0907577635
H   H11       1.0  0.48860  0.38120  0.04260  1.0000 0.0907577635
H   H12       1.0  0.51140  0.88120  0.45740  1.0000 0.0907577635
H   H13       1.0  0.74320  0.18770  0.76770  1.0000 0.0907577635
H   H14       1.0  0.25680  0.68770  0.73230  1.0000 0.0907577635
H   H15       1.0  0.25680  0.81230  0.23230  1.0000 0.0907577635
H   H16       1.0  0.74320  0.31230  0.26770  1.0000 0.0907577635
H   H17       1.0  0.77010  0.15760  0.07120  1.0000 0.0907577635
H   H18       1.0  0.22990  0.65760  0.42880  1.0000 0.0907577635
H   H19       1.0  0.22990  0.84240  0.92880  1.0000 0.0907577635
H   H20       1.0  0.77010  0.34240  0.57120  1.0000 0.0907577635
H   H21       1.0  0.98120  0.70210  0.98700  1.0000 0.0959622343
H   H22       1.0  0.01880  0.20210  0.51300  1.0000 0.0959622343
H   H23       1.0  0.01880  0.29790  0.01300  1.0000 0.0959622343
H   H24       1.0  0.98120  0.79790  0.48700  1.0000 0.0959622343
C   C1        1.0  0.50200  0.81860  0.67085  1.0000 0.4853873072
C   C2        1.0  0.49800  0.31860  0.82915  1.0000 0.4803803903
C   C3        1.0  0.49800  0.18140  0.32915  1.0000 0.4803803903
C   C4        1.0  0.50200  0.68140  0.17085  1.0000 0.4803803903
C   C5        1.0  0.30750  0.00730  0.78850  1.0000 0.4600544738
C   C6        1.0  0.69250  0.50730  0.71150  1.0000 0.4600544738
C   C7        1.0  0.69250  0.99270  0.21150  1.0000 0.4600544738
C   C8        1.0  0.30750  0.49270  0.28850  1.0000 0.4600544738
C   C9        1.0  0.52470  0.70930  0.95092  1.0000 0.4600544738
C   C10       1.0  0.47530  0.20930  0.54908  1.0000 0.4600544738
C   C11       1.0  0.47530  0.29070  0.04908  1.0000 0.4600544738
C   C12       1.0  0.52470  0.79070  0.45092  1.0000 0.4600544738
C   C13       1.0  0.76230  0.12740  0.81283  1.0000 0.4600544738
C   C14       1.0  0.23770  0.62740  0.68717  1.0000 0.4600544738
C   C15       1.0  0.23770  0.87260  0.18717  1.0000 0.4600544738
C   C16       1.0  0.76230  0.37260  0.31283  1.0000 0.4600544738
C   C17       1.0  0.77460  0.10170  0.03191  1.0000 0.4803803903
C   C18       1.0  0.22540  0.60170  0.46809  1.0000 0.4803803903
C   C19       1.0  0.22540  0.89830  0.96809  1.0000 0.4803803903
C   C20       1.0  0.77460  0.39830  0.53191  1.0000 0.4803803903
C   C21       1.0  0.88060  0.71840  0.94778  1.0000 0.4853873072
C   C22       1.0  0.11940  0.21840  0.55222  1.0000 0.4853873072
C   C23       1.0  0.11940  0.28160  0.05222  1.0000 0.4803803903
C   C24       1.0  0.88060  0.78160  0.44778  1.0000 0.4853873072
O   O1        1.0  0.56083  0.79272  0.75272  1.0000 -0.5586291659
O   O2        1.0  0.43917  0.29272  0.74728  1.0000 -0.5586291659
O   O3        1.0  0.43917  0.20728  0.24728  1.0000 -0.5586291659
O   O4        1.0  0.56083  0.70728  0.25272  1.0000 -0.5586291659
O   O5        1.0  0.44726  0.92548  0.63233  1.0000 -0.5021297293
O   O6        1.0  0.55274  0.42548  0.86767  1.0000 -0.5021297293
O   O7        1.0  0.55274  0.07452  0.36767  1.0000 -0.5021297293
O   O8        1.0  0.44726  0.57452  0.13233  1.0000 -0.5021297293
O   O9        1.0  0.40807  0.99950  0.78070  1.0000 -0.5586291659
O   O10       1.0  0.59193  0.49950  0.71930  1.0000 -0.5586291659
O   O11       1.0  0.59193  0.00050  0.21930  1.0000 -0.5586291659
O   O12       1.0  0.40807  0.50050  0.28070  1.0000 -0.5586291659
O   O13       1.0  0.31994  0.99627  0.85825  1.0000 -0.491526268
O   O14       1.0  0.68006  0.49627  0.64175  1.0000 -0.491526268
O   O15       1.0  0.68006  0.00373  0.14175  1.0000 -0.491526268
O   O16       1.0  0.31994  0.50373  0.35825  1.0000 -0.491526268
O   O17       1.0  0.54755  0.73732  0.89391  1.0000 -0.5586291659
O   O18       1.0  0.45245  0.23732  0.60609  1.0000 -0.5586291659
O   O19       1.0  0.45245  0.26268  0.10609  1.0000 -0.5586291659
O   O20       1.0  0.54755  0.76268  0.39391  1.0000 -0.5586291659
O   O21       1.0  0.51825  0.78908  0.99856  1.0000 -0.5021297293
O   O22       1.0  0.48175  0.28908  0.50144  1.0000 -0.5021297293
O   O23       1.0  0.48175  0.21092  0.00144  1.0000 -0.5021297293
O   O24       1.0  0.51825  0.71092  0.49856  1.0000 -0.5021297293
O   O25       1.0  0.65409  0.07601  0.80253  1.0000 -0.5586291659
O   O26       1.0  0.34591  0.57601  0.69747  1.0000 -0.5586291659
O   O27       1.0  0.34591  0.92399  0.19747  1.0000 -0.5586291659
O   O28       1.0  0.65409  0.42399  0.30253  1.0000 -0.5586291659
O   O29       1.0  0.88909  0.10724  0.87512  1.0000 -0.4813332516
O   O30       1.0  0.11091  0.60724  0.62488  1.0000 -0.4813332516
O   O31       1.0  0.11091  0.89276  0.12488  1.0000 -0.4813332516
O   O32       1.0  0.88909  0.39276  0.37512  1.0000 -0.4813332516
O   O33       1.0  0.66531  0.02882  0.97885  1.0000 -0.5586291659
O   O34       1.0  0.33469  0.52882  0.52115  1.0000 -0.5586291659
O   O35       1.0  0.33469  0.97118  0.02115  1.0000 -0.5586291659
O   O36       1.0  0.66531  0.47118  0.47885  1.0000 -0.5586291659
O   O37       1.0  0.88379  0.10695  0.03739  1.0000 -0.491526268
O   O38       1.0  0.11621  0.60695  0.46261  1.0000 -0.491526268
O   O39       1.0  0.11621  0.89305  0.96261  1.0000 -0.491526268
O   O40       1.0  0.88379  0.39305  0.53739  1.0000 -0.491526268
O   O41       1.0  0.84096  0.83768  0.94018  1.0000 -0.5513927
O   O42       1.0  0.15904  0.33768  0.55982  1.0000 -0.5513927
O   O43       1.0  0.15904  0.16232  0.05982  1.0000 -0.5513927
O   O44       1.0  0.84096  0.66232  0.44018  1.0000 -0.5513927
O   O45       1.0  0.80212  0.62173  0.90954  1.0000 -0.5021297293
O   O46       1.0  0.19788  0.12173  0.59046  1.0000 -0.5021297293
O   O47       1.0  0.19788  0.37827  0.09046  1.0000 -0.5021297293
O   O48       1.0  0.80212  0.87827  0.40954  1.0000 -0.5021297293
