# DDEC6 charges by PACMAN v1.1 (https://github.com/mtap-research/PACMAN-charge/)
data_2004[Al][bpq]3[ASR]2
_chemical_formula_sum              "Al16 H80 C128 O80"
_cell_length_a       13.217
_cell_length_b       22.0432
_cell_length_c       22.0432
_cell_angle_alpha    71.0797
_cell_angle_beta     72.5547
_cell_angle_gamma    72.5545

_symmetry_space_group_name_H-M    "P 1"
_symmetry_Int_Tables_number       1

loop_
  _symmetry_equiv_pos_as_xyz
  'x, y, z'

loop_
  _atom_site_type_symbol
  _atom_site_label
  _atom_site_symmetry_multiplicity
  _atom_site_fract_x
  _atom_site_fract_y
  _atom_site_fract_z
  _atom_site_occupancy
  _atom_site_charge
Al  Al1       1.0  0.25322  0.25145  0.00027  1.0000 1.611256928
Al  Al2       1.0  0.00378  0.25094  0.00003  1.0000 1.611256928
Al  Al3       1.0  0.75322  0.25145  0.00027  1.0000 1.611256928
Al  Al4       1.0  0.50378  0.25094  0.00003  1.0000 1.611256928
Al  Al5       1.0  0.25322  0.75145  0.00027  1.0000 1.611256928
Al  Al6       1.0  0.00378  0.75094  0.00003  1.0000 1.611256928
Al  Al7       1.0  0.75322  0.75145  0.00027  1.0000 1.611256928
Al  Al8       1.0  0.50378  0.75094  0.00003  1.0000 1.611256928
Al  Al9       1.0  0.25322  0.25145  0.50027  1.0000 1.611256928
Al  Al10      1.0  0.00378  0.25094  0.50003  1.0000 1.611256928
Al  Al11      1.0  0.75322  0.25145  0.50027  1.0000 1.611256928
Al  Al12      1.0  0.50378  0.25094  0.50003  1.0000 1.611256928
Al  Al13      1.0  0.25322  0.75145  0.50027  1.0000 1.611256928
Al  Al14      1.0  0.00378  0.75094  0.50003  1.0000 1.611256928
Al  Al15      1.0  0.75322  0.75145  0.50027  1.0000 1.611256928
Al  Al16      1.0  0.50378  0.75094  0.50003  1.0000 1.611256928
H   H1        1.0  0.13389  0.05786  0.00544  1.0000 0.1063615487
H   H2        1.0  0.12093  0.24605  0.19334  1.0000 0.1063615487
H   H3        1.0  0.05970  0.25368  0.30700  1.0000 0.1063615487
H   H4        1.0  0.19545  0.44514  0.49480  1.0000 0.1063615487
H   H5        1.0  0.36993  0.44501  0.49508  1.0000 0.1063615487
H   H6        1.0  0.38539  0.25409  0.30715  1.0000 0.1063615487
H   H7        1.0  0.44627  0.24578  0.19336  1.0000 0.1063615487
H   H8        1.0  0.30834  0.05820  0.00512  1.0000 0.1063615487
H   H9        1.0  0.37660  0.31503  0.44061  1.0000 0.4457120344
H   H10       1.0  0.12403  0.19444  0.06579  1.0000 0.4457120344
H   H11       1.0  0.63389  0.05786  0.00544  1.0000 0.1063615487
H   H12       1.0  0.62093  0.24605  0.19334  1.0000 0.1063615487
H   H13       1.0  0.55970  0.25368  0.30700  1.0000 0.1063615487
H   H14       1.0  0.69545  0.44514  0.49480  1.0000 0.1063615487
H   H15       1.0  0.86993  0.44501  0.49508  1.0000 0.1063615487
H   H16       1.0  0.88539  0.25409  0.30715  1.0000 0.1063615487
H   H17       1.0  0.94627  0.24578  0.19336  1.0000 0.1063615487
H   H18       1.0  0.80834  0.05820  0.00512  1.0000 0.1063615487
H   H19       1.0  0.87660  0.31503  0.44061  1.0000 0.4457120344
H   H20       1.0  0.62403  0.19444  0.06579  1.0000 0.4457120344
H   H21       1.0  0.13389  0.55786  0.00544  1.0000 0.1063615487
H   H22       1.0  0.12093  0.74605  0.19334  1.0000 0.1063615487
H   H23       1.0  0.05970  0.75368  0.30700  1.0000 0.1063615487
H   H24       1.0  0.19545  0.94514  0.49480  1.0000 0.1063615487
H   H25       1.0  0.36993  0.94501  0.49508  1.0000 0.1063615487
H   H26       1.0  0.38539  0.75409  0.30715  1.0000 0.1063615487
H   H27       1.0  0.44627  0.74578  0.19336  1.0000 0.1063615487
H   H28       1.0  0.30834  0.55820  0.00512  1.0000 0.1063615487
H   H29       1.0  0.37660  0.81503  0.44061  1.0000 0.4457120344
H   H30       1.0  0.12403  0.69444  0.06579  1.0000 0.4457120344
H   H31       1.0  0.63389  0.55786  0.00544  1.0000 0.1063615487
H   H32       1.0  0.62093  0.74605  0.19334  1.0000 0.1063615487
H   H33       1.0  0.55970  0.75368  0.30700  1.0000 0.1063615487
H   H34       1.0  0.69545  0.94514  0.49480  1.0000 0.1063615487
H   H35       1.0  0.86993  0.94501  0.49508  1.0000 0.1063615487
H   H36       1.0  0.88539  0.75409  0.30715  1.0000 0.1063615487
H   H37       1.0  0.94627  0.74578  0.19336  1.0000 0.1063615487
H   H38       1.0  0.80834  0.55820  0.00512  1.0000 0.1063615487
H   H39       1.0  0.87660  0.81503  0.44061  1.0000 0.4457120344
H   H40       1.0  0.62403  0.69444  0.06579  1.0000 0.4457120344
H   H41       1.0  0.13389  0.05786  0.50544  1.0000 0.1063615487
H   H42       1.0  0.12093  0.24605  0.69334  1.0000 0.1063615487
H   H43       1.0  0.05970  0.25368  0.80700  1.0000 0.1063615487
H   H44       1.0  0.19545  0.44514  0.99480  1.0000 0.1063615487
H   H45       1.0  0.36993  0.44501  0.99508  1.0000 0.1063615487
H   H46       1.0  0.38539  0.25409  0.80715  1.0000 0.1063615487
H   H47       1.0  0.44627  0.24578  0.69336  1.0000 0.1063615487
H   H48       1.0  0.30834  0.05820  0.50512  1.0000 0.1063615487
H   H49       1.0  0.37660  0.31503  0.94061  1.0000 0.4457120344
H   H50       1.0  0.12403  0.19444  0.56579  1.0000 0.4457120344
H   H51       1.0  0.63389  0.05786  0.50544  1.0000 0.1063615487
H   H52       1.0  0.62093  0.24605  0.69334  1.0000 0.1063615487
H   H53       1.0  0.55970  0.25368  0.80700  1.0000 0.1063615487
H   H54       1.0  0.69545  0.44514  0.99480  1.0000 0.1063615487
H   H55       1.0  0.86993  0.44501  0.99508  1.0000 0.1063615487
H   H56       1.0  0.88539  0.25409  0.80715  1.0000 0.1063615487
H   H57       1.0  0.94627  0.24578  0.69336  1.0000 0.1063615487
H   H58       1.0  0.80834  0.05820  0.50512  1.0000 0.1063615487
H   H59       1.0  0.87660  0.31503  0.94061  1.0000 0.4457120344
H   H60       1.0  0.62403  0.19444  0.56579  1.0000 0.4457120344
H   H61       1.0  0.13389  0.55786  0.50544  1.0000 0.1063615487
H   H62       1.0  0.12093  0.74605  0.69334  1.0000 0.1063615487
H   H63       1.0  0.05970  0.75368  0.80700  1.0000 0.1063615487
H   H64       1.0  0.19545  0.94514  0.99480  1.0000 0.1063615487
H   H65       1.0  0.36993  0.94501  0.99508  1.0000 0.1063615487
H   H66       1.0  0.38539  0.75409  0.80715  1.0000 0.1063615487
H   H67       1.0  0.44627  0.74578  0.69336  1.0000 0.1063615487
H   H68       1.0  0.30834  0.55820  0.50512  1.0000 0.1063615487
H   H69       1.0  0.37660  0.81503  0.94061  1.0000 0.4457120344
H   H70       1.0  0.12403  0.69444  0.56579  1.0000 0.4457120344
H   H71       1.0  0.63389  0.55786  0.50544  1.0000 0.1063615487
H   H72       1.0  0.62093  0.74605  0.69334  1.0000 0.1063615487
H   H73       1.0  0.55970  0.75368  0.80700  1.0000 0.1063615487
H   H74       1.0  0.69545  0.94514  0.99480  1.0000 0.1063615487
H   H75       1.0  0.86993  0.94501  0.99508  1.0000 0.1063615487
H   H76       1.0  0.88539  0.75409  0.80715  1.0000 0.1063615487
H   H77       1.0  0.94627  0.74578  0.69336  1.0000 0.1063615487
H   H78       1.0  0.80834  0.55820  0.50512  1.0000 0.1063615487
H   H79       1.0  0.87660  0.81503  0.94061  1.0000 0.4457120344
H   H80       1.0  0.62403  0.69444  0.56579  1.0000 0.4457120344
C   C1        1.0  0.07535  0.03414  0.00276  1.0000 -0.0922898313
C   C2        1.0  0.17982  0.24703  0.21771  1.0000 -0.0922898313
C   C3        1.0  0.14468  0.25136  0.28333  1.0000 -0.0922898313
C   C4        1.0  0.11105  0.46926  0.49625  1.0000 -0.0922898313
C   C5        1.0  0.42895  0.46914  0.49632  1.0000 -0.0922898313
C   C6        1.0  0.32696  0.25148  0.28334  1.0000 -0.0922898313
C   C7        1.0  0.36201  0.24691  0.21777  1.0000 -0.0922898313
C   C8        1.0  0.39317  0.03422  0.00264  1.0000 -0.0922898313
C   C9        1.0  0.46594  0.06789  0.00578  1.0000 -0.0335830348
C   C10       1.0  0.43017  0.13877  0.00768  1.0000 0.6583913237
C   C11       1.0  0.28901  0.24509  0.18362  1.0000 -0.0335830348
C   C12       1.0  0.32477  0.24490  0.11226  1.0000 0.6583913237
C   C13       1.0  0.21784  0.25334  0.31743  1.0000 -0.0335830348
C   C14       1.0  0.18174  0.25495  0.38843  1.0000 0.6583913237
C   C15       1.0  0.03872  0.43535  0.49311  1.0000 -0.0335830348
C   C16       1.0  0.07594  0.36404  0.49194  1.0000 0.6583913237
C   C17       1.0  0.57535  0.03414  0.00276  1.0000 -0.0922898313
C   C18       1.0  0.67982  0.24703  0.21771  1.0000 -0.0922898313
C   C19       1.0  0.64468  0.25136  0.28333  1.0000 -0.0922898313
C   C20       1.0  0.61105  0.46926  0.49625  1.0000 -0.0922898313
C   C21       1.0  0.92895  0.46914  0.49632  1.0000 -0.0922898313
C   C22       1.0  0.82696  0.25148  0.28334  1.0000 -0.0922898313
C   C23       1.0  0.86201  0.24691  0.21777  1.0000 -0.0922898313
C   C24       1.0  0.89317  0.03422  0.00264  1.0000 -0.0922898313
C   C25       1.0  0.96594  0.06789  0.00578  1.0000 -0.0335830348
C   C26       1.0  0.93017  0.13877  0.00768  1.0000 0.6583913237
C   C27       1.0  0.78901  0.24509  0.18362  1.0000 -0.0335830348
C   C28       1.0  0.82477  0.24490  0.11226  1.0000 0.6583913237
C   C29       1.0  0.71784  0.25334  0.31743  1.0000 -0.0335830348
C   C30       1.0  0.68174  0.25495  0.38843  1.0000 0.6583913237
C   C31       1.0  0.53872  0.43535  0.49311  1.0000 -0.0335830348
C   C32       1.0  0.57594  0.36404  0.49194  1.0000 0.6583913237
C   C33       1.0  0.07535  0.53414  0.00276  1.0000 -0.0922898313
C   C34       1.0  0.17982  0.74703  0.21771  1.0000 -0.0922898313
C   C35       1.0  0.14468  0.75136  0.28333  1.0000 -0.0922898313
C   C36       1.0  0.11105  0.96926  0.49625  1.0000 -0.0922898313
C   C37       1.0  0.42895  0.96914  0.49632  1.0000 -0.0922898313
C   C38       1.0  0.32696  0.75148  0.28334  1.0000 -0.0922898313
C   C39       1.0  0.36201  0.74691  0.21777  1.0000 -0.0922898313
C   C40       1.0  0.39317  0.53422  0.00264  1.0000 -0.0922898313
C   C41       1.0  0.46594  0.56789  0.00578  1.0000 -0.0335830348
C   C42       1.0  0.43017  0.63877  0.00768  1.0000 0.6583913237
C   C43       1.0  0.28901  0.74509  0.18362  1.0000 -0.0335830348
C   C44       1.0  0.32477  0.74490  0.11226  1.0000 0.6583913237
C   C45       1.0  0.21784  0.75334  0.31743  1.0000 -0.0335830348
C   C46       1.0  0.18174  0.75495  0.38843  1.0000 0.6583913237
C   C47       1.0  0.03872  0.93535  0.49311  1.0000 -0.0335830348
C   C48       1.0  0.07594  0.86404  0.49194  1.0000 0.6583913237
C   C49       1.0  0.57535  0.53414  0.00276  1.0000 -0.0922898313
C   C50       1.0  0.67982  0.74703  0.21771  1.0000 -0.0922898313
C   C51       1.0  0.64468  0.75136  0.28333  1.0000 -0.0922898313
C   C52       1.0  0.61105  0.96926  0.49625  1.0000 -0.0922898313
C   C53       1.0  0.92895  0.96914  0.49632  1.0000 -0.0922898313
C   C54       1.0  0.82696  0.75148  0.28334  1.0000 -0.0922898313
C   C55       1.0  0.86201  0.74691  0.21777  1.0000 -0.0922898313
C   C56       1.0  0.89317  0.53422  0.00264  1.0000 -0.0922898313
C   C57       1.0  0.96594  0.56789  0.00578  1.0000 -0.0335830348
C   C58       1.0  0.93017  0.63877  0.00768  1.0000 0.6583913237
C   C59       1.0  0.78901  0.74509  0.18362  1.0000 -0.0353386283
C   C60       1.0  0.82477  0.74490  0.11226  1.0000 0.6583913237
C   C61       1.0  0.71784  0.75334  0.31743  1.0000 -0.0335830348
C   C62       1.0  0.68174  0.75495  0.38843  1.0000 0.6583913237
C   C63       1.0  0.53872  0.93535  0.49311  1.0000 -0.0335830348
C   C64       1.0  0.57594  0.86404  0.49194  1.0000 0.6583913237
C   C65       1.0  0.07535  0.03414  0.50276  1.0000 -0.0922898313
C   C66       1.0  0.17982  0.24703  0.71771  1.0000 -0.0922898313
C   C67       1.0  0.14468  0.25136  0.78333  1.0000 -0.0922898313
C   C68       1.0  0.11105  0.46926  0.99625  1.0000 -0.0922898313
C   C69       1.0  0.42895  0.46914  0.99632  1.0000 -0.0922898313
C   C70       1.0  0.32696  0.25148  0.78334  1.0000 -0.0922898313
C   C71       1.0  0.36201  0.24691  0.71777  1.0000 -0.0922898313
C   C72       1.0  0.39317  0.03422  0.50264  1.0000 -0.0922898313
C   C73       1.0  0.46594  0.06789  0.50578  1.0000 -0.0335830348
C   C74       1.0  0.43017  0.13877  0.50768  1.0000 0.6583913237
C   C75       1.0  0.28901  0.24509  0.68362  1.0000 -0.0353386283
C   C76       1.0  0.32477  0.24490  0.61226  1.0000 0.6583913237
C   C77       1.0  0.21784  0.25334  0.81743  1.0000 -0.0335830348
C   C78       1.0  0.18174  0.25495  0.88843  1.0000 0.6583913237
C   C79       1.0  0.03872  0.43535  0.99311  1.0000 -0.0335830348
C   C80       1.0  0.07594  0.36404  0.99194  1.0000 0.6583913237
C   C81       1.0  0.57535  0.03414  0.50276  1.0000 -0.0922898313
C   C82       1.0  0.67982  0.24703  0.71771  1.0000 -0.0922898313
C   C83       1.0  0.64468  0.25136  0.78333  1.0000 -0.0922898313
C   C84       1.0  0.61105  0.46926  0.99625  1.0000 -0.0922898313
C   C85       1.0  0.92895  0.46914  0.99632  1.0000 -0.0922898313
C   C86       1.0  0.82696  0.25148  0.78334  1.0000 -0.0922898313
C   C87       1.0  0.86201  0.24691  0.71777  1.0000 -0.0922898313
C   C88       1.0  0.89317  0.03422  0.50264  1.0000 -0.0922898313
C   C89       1.0  0.96594  0.06789  0.50578  1.0000 -0.0353386283
C   C90       1.0  0.93017  0.13877  0.50768  1.0000 0.6583913237
C   C91       1.0  0.78901  0.24509  0.68362  1.0000 -0.0353386283
C   C92       1.0  0.82477  0.24490  0.61226  1.0000 0.6583913237
C   C93       1.0  0.71784  0.25334  0.81743  1.0000 -0.0335830348
C   C94       1.0  0.68174  0.25495  0.88843  1.0000 0.6583913237
C   C95       1.0  0.53872  0.43535  0.99311  1.0000 -0.0335830348
C   C96       1.0  0.57594  0.36404  0.99194  1.0000 0.6583913237
C   C97       1.0  0.07535  0.53414  0.50276  1.0000 -0.0922898313
C   C98       1.0  0.17982  0.74703  0.71771  1.0000 -0.0922898313
C   C99       1.0  0.14468  0.75136  0.78333  1.0000 -0.0922898313
C   C100      1.0  0.11105  0.96926  0.99625  1.0000 -0.0922898313
C   C101      1.0  0.42895  0.96914  0.99632  1.0000 -0.0922898313
C   C102      1.0  0.32696  0.75148  0.78334  1.0000 -0.0922898313
C   C103      1.0  0.36201  0.74691  0.71777  1.0000 -0.0922898313
C   C104      1.0  0.39317  0.53422  0.50264  1.0000 -0.0922898313
C   C105      1.0  0.46594  0.56789  0.50578  1.0000 -0.0335830348
C   C106      1.0  0.43017  0.63877  0.50768  1.0000 0.6583913237
C   C107      1.0  0.28901  0.74509  0.68362  1.0000 -0.0335830348
C   C108      1.0  0.32477  0.74490  0.61226  1.0000 0.6583913237
C   C109      1.0  0.21784  0.75334  0.81743  1.0000 -0.0335830348
C   C110      1.0  0.18174  0.75495  0.88843  1.0000 0.6583913237
C   C111      1.0  0.03872  0.93535  0.99311  1.0000 -0.0335830348
C   C112      1.0  0.07594  0.86404  0.99194  1.0000 0.6583913237
C   C113      1.0  0.57535  0.53414  0.50276  1.0000 -0.0922898313
C   C114      1.0  0.67982  0.74703  0.71771  1.0000 -0.0922898313
C   C115      1.0  0.64468  0.75136  0.78333  1.0000 -0.0922898313
C   C116      1.0  0.61105  0.96926  0.99625  1.0000 -0.0922898313
C   C117      1.0  0.92895  0.96914  0.99632  1.0000 -0.0922898313
C   C118      1.0  0.82696  0.75148  0.78334  1.0000 -0.0922898313
C   C119      1.0  0.86201  0.74691  0.71777  1.0000 -0.0922898313
C   C120      1.0  0.89317  0.53422  0.50264  1.0000 -0.0922898313
C   C121      1.0  0.96594  0.56789  0.50578  1.0000 -0.0335830348
C   C122      1.0  0.93017  0.63877  0.50768  1.0000 0.6583913237
C   C123      1.0  0.78901  0.74509  0.68362  1.0000 -0.0353386283
C   C124      1.0  0.82477  0.74490  0.61226  1.0000 0.6583913237
C   C125      1.0  0.71784  0.75334  0.81743  1.0000 -0.0335830348
C   C126      1.0  0.68174  0.75495  0.88843  1.0000 0.6583913237
C   C127      1.0  0.53872  0.93535  0.99311  1.0000 -0.0335830348
C   C128      1.0  0.57594  0.86404  0.99194  1.0000 0.6583913237
O   O1        1.0  0.32980  0.16825  0.00764  1.0000 -0.6067287802
O   O2        1.0  0.42520  0.24529  0.08281  1.0000 -0.6067287802
O   O3        1.0  0.25270  0.25543  0.41765  1.0000 -0.6067287802
O   O4        1.0  0.00484  0.33434  0.49239  1.0000 -0.6067287802
O   O5        1.0  0.17642  0.33491  0.49289  1.0000 -0.6067287802
O   O6        1.0  0.08135  0.25454  0.41757  1.0000 -0.6067287802
O   O7        1.0  0.25293  0.24589  0.08303  1.0000 -0.6033233355
O   O8        1.0  0.00232  0.16795  0.00653  1.0000 -0.6067287802
O   O9        1.0  0.37785  0.28006  0.47279  1.0000 -0.9379402523
O   O10       1.0  0.12679  0.22507  0.02958  1.0000 -0.9379402523
O   O11       1.0  0.82980  0.16825  0.00764  1.0000 -0.6033233355
O   O12       1.0  0.92520  0.24529  0.08281  1.0000 -0.6067287802
O   O13       1.0  0.75270  0.25543  0.41765  1.0000 -0.6067287802
O   O14       1.0  0.50484  0.33434  0.49239  1.0000 -0.6067287802
O   O15       1.0  0.67642  0.33491  0.49289  1.0000 -0.6067287802
O   O16       1.0  0.58135  0.25454  0.41757  1.0000 -0.6067287802
O   O17       1.0  0.75293  0.24589  0.08303  1.0000 -0.6033233355
O   O18       1.0  0.50232  0.16795  0.00653  1.0000 -0.6067287802
O   O19       1.0  0.87785  0.28006  0.47279  1.0000 -0.9379402523
O   O20       1.0  0.62679  0.22507  0.02958  1.0000 -0.9379402523
O   O21       1.0  0.32980  0.66825  0.00764  1.0000 -0.6067287802
O   O22       1.0  0.42520  0.74529  0.08281  1.0000 -0.6067287802
O   O23       1.0  0.25270  0.75543  0.41765  1.0000 -0.6067287802
O   O24       1.0  0.00484  0.83434  0.49239  1.0000 -0.6067287802
O   O25       1.0  0.17642  0.83491  0.49289  1.0000 -0.6067287802
O   O26       1.0  0.08135  0.75454  0.41757  1.0000 -0.6067287802
O   O27       1.0  0.25293  0.74589  0.08303  1.0000 -0.6033233355
O   O28       1.0  0.00232  0.66795  0.00653  1.0000 -0.6067287802
O   O29       1.0  0.37785  0.78006  0.47279  1.0000 -0.9379402523
O   O30       1.0  0.12679  0.72507  0.02958  1.0000 -0.9379402523
O   O31       1.0  0.82980  0.66825  0.00764  1.0000 -0.6067287802
O   O32       1.0  0.92520  0.74529  0.08281  1.0000 -0.6067287802
O   O33       1.0  0.75270  0.75543  0.41765  1.0000 -0.6067287802
O   O34       1.0  0.50484  0.83434  0.49239  1.0000 -0.6067287802
O   O35       1.0  0.67642  0.83491  0.49289  1.0000 -0.6067287802
O   O36       1.0  0.58135  0.75454  0.41757  1.0000 -0.6067287802
O   O37       1.0  0.75293  0.74589  0.08303  1.0000 -0.6033233355
O   O38       1.0  0.50232  0.66795  0.00653  1.0000 -0.6067287802
O   O39       1.0  0.87785  0.78006  0.47279  1.0000 -0.9379402523
O   O40       1.0  0.62679  0.72507  0.02958  1.0000 -0.9346547939
O   O41       1.0  0.32980  0.16825  0.50764  1.0000 -0.6067287802
O   O42       1.0  0.42520  0.24529  0.58281  1.0000 -0.6067287802
O   O43       1.0  0.25270  0.25543  0.91765  1.0000 -0.6067287802
O   O44       1.0  0.00484  0.33434  0.99239  1.0000 -0.6067287802
O   O45       1.0  0.17642  0.33491  0.99289  1.0000 -0.6067287802
O   O46       1.0  0.08135  0.25454  0.91757  1.0000 -0.6067287802
O   O47       1.0  0.25293  0.24589  0.58303  1.0000 -0.6033233355
O   O48       1.0  0.00232  0.16795  0.50653  1.0000 -0.6067287802
O   O49       1.0  0.37785  0.28006  0.97279  1.0000 -0.9379402523
O   O50       1.0  0.12679  0.22507  0.52958  1.0000 -0.9346547939
O   O51       1.0  0.82980  0.16825  0.50764  1.0000 -0.6067287802
O   O52       1.0  0.92520  0.24529  0.58281  1.0000 -0.6067287802
O   O53       1.0  0.75270  0.25543  0.91765  1.0000 -0.6067287802
O   O54       1.0  0.50484  0.33434  0.99239  1.0000 -0.6067287802
O   O55       1.0  0.67642  0.33491  0.99289  1.0000 -0.6067287802
O   O56       1.0  0.58135  0.25454  0.91757  1.0000 -0.6067287802
O   O57       1.0  0.75293  0.24589  0.58303  1.0000 -0.6033233355
O   O58       1.0  0.50232  0.16795  0.50653  1.0000 -0.6067287802
O   O59       1.0  0.87785  0.28006  0.97279  1.0000 -0.9379402523
O   O60       1.0  0.62679  0.22507  0.52958  1.0000 -0.9346547939
O   O61       1.0  0.32980  0.66825  0.50764  1.0000 -0.6067287802
O   O62       1.0  0.42520  0.74529  0.58281  1.0000 -0.6067287802
O   O63       1.0  0.25270  0.75543  0.91765  1.0000 -0.6067287802
O   O64       1.0  0.00484  0.83434  0.99239  1.0000 -0.6067287802
O   O65       1.0  0.17642  0.83491  0.99289  1.0000 -0.6067287802
O   O66       1.0  0.08135  0.75454  0.91757  1.0000 -0.6067287802
O   O67       1.0  0.25293  0.74589  0.58303  1.0000 -0.6033233355
O   O68       1.0  0.00232  0.66795  0.50653  1.0000 -0.6067287802
O   O69       1.0  0.37785  0.78006  0.97279  1.0000 -0.9379402523
O   O70       1.0  0.12679  0.72507  0.52958  1.0000 -0.9379402523
O   O71       1.0  0.82980  0.66825  0.50764  1.0000 -0.6067287802
O   O72       1.0  0.92520  0.74529  0.58281  1.0000 -0.6067287802
O   O73       1.0  0.75270  0.75543  0.91765  1.0000 -0.6067287802
O   O74       1.0  0.50484  0.83434  0.99239  1.0000 -0.6067287802
O   O75       1.0  0.67642  0.83491  0.99289  1.0000 -0.6067287802
O   O76       1.0  0.58135  0.75454  0.91757  1.0000 -0.6067287802
O   O77       1.0  0.75293  0.74589  0.58303  1.0000 -0.6033233355
O   O78       1.0  0.50232  0.66795  0.50653  1.0000 -0.6067287802
O   O79       1.0  0.87785  0.78006  0.97279  1.0000 -0.9379402523
O   O80       1.0  0.62679  0.72507  0.52958  1.0000 -0.9379402523
