# DDEC6 charges by PACMAN v1.1 (https://github.com/mtap-research/PACMAN-charge/)
data_2004[Zn][nan]3[ASR]4
_chemical_formula_sum              "Zn72 H160 C192 O272"
_cell_length_a       20.713
_cell_length_b       20.713
_cell_length_c       20.713
_cell_angle_alpha    90
_cell_angle_beta     90
_cell_angle_gamma    90

_symmetry_space_group_name_H-M    "P 1"
_symmetry_Int_Tables_number       1

loop_
  _symmetry_equiv_pos_as_xyz
  'x, y, z'

loop_
  _atom_site_type_symbol
  _atom_site_label
  _atom_site_symmetry_multiplicity
  _atom_site_fract_x
  _atom_site_fract_y
  _atom_site_fract_z
  _atom_site_occupancy
  _atom_site_charge
Zn  Zn1       1.0  0.60043  0.85257  0.82660  1.0000 0.9039433547
Zn  Zn2       1.0  0.44045  0.73624  0.99184  1.0000 0.8891607869
Zn  Zn3       1.0  0.84851  0.88132  0.96617  1.0000 0.8318779566
Zn  Zn4       1.0  0.82660  0.60043  0.85257  1.0000 0.9039433547
Zn  Zn5       1.0  0.99184  0.44045  0.73624  1.0000 0.8891607869
Zn  Zn6       1.0  0.96617  0.84851  0.88132  1.0000 0.8477278598
Zn  Zn7       1.0  0.85257  0.82660  0.60043  1.0000 0.9039433547
Zn  Zn8       1.0  0.73624  0.99184  0.44045  1.0000 0.8891607869
Zn  Zn9       1.0  0.88132  0.96617  0.84851  1.0000 0.8660142594
Zn  Zn10      1.0  0.89957  0.14743  0.32660  1.0000 0.9039433547
Zn  Zn11      1.0  0.05955  0.26376  0.49184  1.0000 0.8891607869
Zn  Zn12      1.0  0.65149  0.11868  0.46617  1.0000 0.8318779566
Zn  Zn13      1.0  0.67340  0.39957  0.35257  1.0000 0.9039433547
Zn  Zn14      1.0  0.50816  0.55955  0.23624  1.0000 0.8891607869
Zn  Zn15      1.0  0.53383  0.15149  0.38132  1.0000 0.8477278598
Zn  Zn16      1.0  0.64743  0.17340  0.10043  1.0000 0.9039433547
Zn  Zn17      1.0  0.76376  0.00816  0.94045  1.0000 0.8891607869
Zn  Zn18      1.0  0.61868  0.03383  0.34851  1.0000 0.8660142594
Zn  Zn19      1.0  0.39957  0.35257  0.67340  1.0000 0.9039433547
Zn  Zn20      1.0  0.55955  0.23624  0.50816  1.0000 0.8891607869
Zn  Zn21      1.0  0.15149  0.38132  0.53383  1.0000 0.8318779566
Zn  Zn22      1.0  0.17340  0.10043  0.64743  1.0000 0.9039433547
Zn  Zn23      1.0  0.00816  0.94045  0.76376  1.0000 0.8891607869
Zn  Zn24      1.0  0.03383  0.34851  0.61868  1.0000 0.8477278598
Zn  Zn25      1.0  0.14743  0.32660  0.89957  1.0000 0.9039433547
Zn  Zn26      1.0  0.26376  0.49184  0.05955  1.0000 0.8891607869
Zn  Zn27      1.0  0.11868  0.46617  0.65149  1.0000 0.8660142594
Zn  Zn28      1.0  0.10043  0.64743  0.17340  1.0000 0.9039433547
Zn  Zn29      1.0  0.94045  0.76376  0.00816  1.0000 0.8891607869
Zn  Zn30      1.0  0.34851  0.61868  0.03383  1.0000 0.8318779566
Zn  Zn31      1.0  0.32660  0.89957  0.14743  1.0000 0.9039433547
Zn  Zn32      1.0  0.49184  0.05955  0.26376  1.0000 0.8891607869
Zn  Zn33      1.0  0.46617  0.65149  0.11868  1.0000 0.8477278598
Zn  Zn34      1.0  0.35257  0.67340  0.39957  1.0000 0.9039433547
Zn  Zn35      1.0  0.23624  0.50816  0.55955  1.0000 0.8891607869
Zn  Zn36      1.0  0.38132  0.53383  0.15149  1.0000 0.8660142594
Zn  Zn37      1.0  0.39957  0.14743  0.17340  1.0000 0.9039433547
Zn  Zn38      1.0  0.55955  0.26376  0.00816  1.0000 0.8891607869
Zn  Zn39      1.0  0.15149  0.11868  0.03383  1.0000 0.8318779566
Zn  Zn40      1.0  0.17340  0.39957  0.14743  1.0000 0.9039433547
Zn  Zn41      1.0  0.00816  0.55955  0.26376  1.0000 0.8891607869
Zn  Zn42      1.0  0.03383  0.15149  0.11868  1.0000 0.8477278598
Zn  Zn43      1.0  0.14743  0.17340  0.39957  1.0000 0.9039433547
Zn  Zn44      1.0  0.26376  0.00816  0.55955  1.0000 0.8891607869
Zn  Zn45      1.0  0.11868  0.03383  0.15149  1.0000 0.8660142594
Zn  Zn46      1.0  0.10043  0.85257  0.67340  1.0000 0.9039433547
Zn  Zn47      1.0  0.94045  0.73624  0.50816  1.0000 0.8891607869
Zn  Zn48      1.0  0.34851  0.88132  0.53383  1.0000 0.8318779566
Zn  Zn49      1.0  0.32660  0.60043  0.64743  1.0000 0.9039433547
Zn  Zn50      1.0  0.49184  0.44045  0.76376  1.0000 0.8891607869
Zn  Zn51      1.0  0.46617  0.84851  0.61868  1.0000 0.8477278598
Zn  Zn52      1.0  0.35257  0.82660  0.89957  1.0000 0.9039433547
Zn  Zn53      1.0  0.23624  0.99184  0.05955  1.0000 0.8891607869
Zn  Zn54      1.0  0.38132  0.96617  0.65149  1.0000 0.8660142594
Zn  Zn55      1.0  0.60043  0.64743  0.32660  1.0000 0.9039433547
Zn  Zn56      1.0  0.44045  0.76376  0.49184  1.0000 0.8891607869
Zn  Zn57      1.0  0.84851  0.61868  0.46617  1.0000 0.8318779566
Zn  Zn58      1.0  0.82660  0.89957  0.35257  1.0000 0.9039433547
Zn  Zn59      1.0  0.99184  0.05955  0.23624  1.0000 0.8891607869
Zn  Zn60      1.0  0.96617  0.65149  0.38132  1.0000 0.8477278598
Zn  Zn61      1.0  0.85257  0.67340  0.10043  1.0000 0.9039433547
Zn  Zn62      1.0  0.73624  0.50816  0.94045  1.0000 0.8891607869
Zn  Zn63      1.0  0.88132  0.53383  0.34851  1.0000 0.8660142594
Zn  Zn64      1.0  0.89957  0.35257  0.82660  1.0000 0.9039433547
Zn  Zn65      1.0  0.05955  0.23624  0.99184  1.0000 0.8891607869
Zn  Zn66      1.0  0.65149  0.38132  0.96617  1.0000 0.8318779566
Zn  Zn67      1.0  0.67340  0.10043  0.85257  1.0000 0.9039433547
Zn  Zn68      1.0  0.50816  0.94045  0.73624  1.0000 0.8891607869
Zn  Zn69      1.0  0.53383  0.34851  0.88132  1.0000 0.8477278598
Zn  Zn70      1.0  0.64743  0.32660  0.60043  1.0000 0.9039433547
Zn  Zn71      1.0  0.76376  0.49184  0.44045  1.0000 0.8891607869
Zn  Zn72      1.0  0.61868  0.46617  0.84851  1.0000 0.8660142594
H   H1        1.0  0.61378  0.69139  0.87572  1.0000 0.0764310473
H   H2        1.0  0.65129  0.69050  0.00181  1.0000 0.0969566503
H   H3        1.0  0.68746  0.79784  0.00799  1.0000 0.1101325662
H   H4        1.0  0.76559  0.79757  0.88305  1.0000 0.0427442216
H   H5        1.0  0.97492  0.44330  0.64250  1.0000 0.3126435973
H   H6        1.0  0.02320  0.49158  0.64250  1.0000 0.2889415496
H   H7        1.0  0.18158  0.36670  0.63330  1.0000 0.2980381348
H   H8        1.0  0.87572  0.61378  0.69139  1.0000 0.0764310473
H   H9        1.0  0.00181  0.65129  0.69050  1.0000 0.0969566503
H   H10       1.0  0.00799  0.68746  0.79784  1.0000 0.1101325662
H   H11       1.0  0.88305  0.76559  0.79757  1.0000 0.0548274242
H   H12       1.0  0.64250  0.97492  0.44330  1.0000 0.3126435973
H   H13       1.0  0.64250  0.02320  0.49158  1.0000 0.2889415496
H   H14       1.0  0.63330  0.18158  0.36670  1.0000 0.2980381348
H   H15       1.0  0.69139  0.87572  0.61378  1.0000 0.0764310473
H   H16       1.0  0.69050  0.00181  0.65129  1.0000 0.0969566503
H   H17       1.0  0.79784  0.00799  0.68746  1.0000 0.1101325662
H   H18       1.0  0.79757  0.88305  0.76559  1.0000 0.0614269623
H   H19       1.0  0.44330  0.64250  0.97492  1.0000 0.3126435973
H   H20       1.0  0.49158  0.64250  0.02320  1.0000 0.2889415496
H   H21       1.0  0.88622  0.30861  0.37572  1.0000 0.0764310473
H   H22       1.0  0.84871  0.30950  0.50181  1.0000 0.0969566503
H   H23       1.0  0.81254  0.20216  0.50799  1.0000 0.1101325662
H   H24       1.0  0.73441  0.20243  0.38305  1.0000 0.0427442216
H   H25       1.0  0.52508  0.55670  0.14250  1.0000 0.3126435973
H   H26       1.0  0.47680  0.50842  0.14250  1.0000 0.2889415496
H   H27       1.0  0.31842  0.63330  0.13330  1.0000 0.2980381348
H   H28       1.0  0.62428  0.38622  0.19139  1.0000 0.0764310473
H   H29       1.0  0.49819  0.34871  0.19050  1.0000 0.0969566503
H   H30       1.0  0.49201  0.31254  0.29784  1.0000 0.1101325662
H   H31       1.0  0.61695  0.23441  0.29757  1.0000 0.0548274242
H   H32       1.0  0.85750  0.02508  0.94330  1.0000 0.3126435973
H   H33       1.0  0.85750  0.97680  0.99158  1.0000 0.2889415496
H   H34       1.0  0.86670  0.81842  0.86670  1.0000 0.2980381348
H   H35       1.0  0.80861  0.12428  0.11378  1.0000 0.0764310473
H   H36       1.0  0.80950  0.99819  0.15129  1.0000 0.0969566503
H   H37       1.0  0.70216  0.99201  0.18746  1.0000 0.1101325662
H   H38       1.0  0.70243  0.11695  0.26559  1.0000 0.0614269623
H   H39       1.0  0.05670  0.35750  0.47492  1.0000 0.3126435973
H   H40       1.0  0.00842  0.35750  0.52320  1.0000 0.2889415496
H   H41       1.0  0.38622  0.19139  0.62428  1.0000 0.0764310473
H   H42       1.0  0.34871  0.19050  0.49819  1.0000 0.0969566503
H   H43       1.0  0.31254  0.29784  0.49201  1.0000 0.1101325662
H   H44       1.0  0.23441  0.29757  0.61695  1.0000 0.0427442216
H   H45       1.0  0.02508  0.94330  0.85750  1.0000 0.3126435973
H   H46       1.0  0.97680  0.99158  0.85750  1.0000 0.2889415496
H   H47       1.0  0.81842  0.86670  0.86670  1.0000 0.2980381348
H   H48       1.0  0.12428  0.11378  0.80861  1.0000 0.0764310473
H   H49       1.0  0.99819  0.15129  0.80950  1.0000 0.0969566503
H   H50       1.0  0.99201  0.18746  0.70216  1.0000 0.1101325662
H   H51       1.0  0.11695  0.26559  0.70243  1.0000 0.0548274242
H   H52       1.0  0.35750  0.47492  0.05670  1.0000 0.3126435973
H   H53       1.0  0.35750  0.52320  0.00842  1.0000 0.2889415496
H   H54       1.0  0.36670  0.68158  0.13330  1.0000 0.2980381348
H   H55       1.0  0.30861  0.37572  0.88622  1.0000 0.0764310473
H   H56       1.0  0.30950  0.50181  0.84871  1.0000 0.0969566503
H   H57       1.0  0.20216  0.50799  0.81254  1.0000 0.1101325662
H   H58       1.0  0.20243  0.38305  0.73441  1.0000 0.0614269623
H   H59       1.0  0.55670  0.14250  0.52508  1.0000 0.3126435973
H   H60       1.0  0.50842  0.14250  0.47680  1.0000 0.2889415496
H   H61       1.0  0.11378  0.80861  0.12428  1.0000 0.0764310473
H   H62       1.0  0.15129  0.80950  0.99819  1.0000 0.0969566503
H   H63       1.0  0.18746  0.70216  0.99201  1.0000 0.1101325662
H   H64       1.0  0.26559  0.70243  0.11695  1.0000 0.0427442216
H   H65       1.0  0.47492  0.05670  0.35750  1.0000 0.3126435973
H   H66       1.0  0.52320  0.00842  0.35750  1.0000 0.2889415496
H   H67       1.0  0.68158  0.13330  0.36670  1.0000 0.2980381348
H   H68       1.0  0.37572  0.88622  0.30861  1.0000 0.0764310473
H   H69       1.0  0.50181  0.84871  0.30950  1.0000 0.0969566503
H   H70       1.0  0.50799  0.81254  0.20216  1.0000 0.1101325662
H   H71       1.0  0.38305  0.73441  0.20243  1.0000 0.0548274242
H   H72       1.0  0.14250  0.52508  0.55670  1.0000 0.3126435973
H   H73       1.0  0.14250  0.47680  0.50842  1.0000 0.2889415496
H   H74       1.0  0.13330  0.31842  0.63330  1.0000 0.2980381348
H   H75       1.0  0.19139  0.62428  0.38622  1.0000 0.0764310473
H   H76       1.0  0.19050  0.49819  0.34871  1.0000 0.0969566503
H   H77       1.0  0.29784  0.49201  0.31254  1.0000 0.1101325662
H   H78       1.0  0.29757  0.61695  0.23441  1.0000 0.0614269623
H   H79       1.0  0.94330  0.85750  0.02508  1.0000 0.3126435973
H   H80       1.0  0.99158  0.85750  0.97680  1.0000 0.2889415496
H   H81       1.0  0.38622  0.30861  0.12428  1.0000 0.0764310473
H   H82       1.0  0.34871  0.30950  0.99819  1.0000 0.0969566503
H   H83       1.0  0.31254  0.20216  0.99201  1.0000 0.1101325662
H   H84       1.0  0.23441  0.20243  0.11695  1.0000 0.0427442216
H   H85       1.0  0.02508  0.55670  0.35750  1.0000 0.3126435973
H   H86       1.0  0.97680  0.50842  0.35750  1.0000 0.2889415496
H   H87       1.0  0.81842  0.63330  0.36670  1.0000 0.2980381348
H   H88       1.0  0.12428  0.38622  0.30861  1.0000 0.0764310473
H   H89       1.0  0.99819  0.34871  0.30950  1.0000 0.0969566503
H   H90       1.0  0.99201  0.31254  0.20216  1.0000 0.1101325662
H   H91       1.0  0.11695  0.23441  0.20243  1.0000 0.0548274242
H   H92       1.0  0.35750  0.02508  0.55670  1.0000 0.3126435973
H   H93       1.0  0.35750  0.97680  0.50842  1.0000 0.2889415496
H   H94       1.0  0.36670  0.81842  0.63330  1.0000 0.2980381348
H   H95       1.0  0.30861  0.12428  0.38622  1.0000 0.0764310473
H   H96       1.0  0.30950  0.99819  0.34871  1.0000 0.0969566503
H   H97       1.0  0.20216  0.99201  0.31254  1.0000 0.1101325662
H   H98       1.0  0.20243  0.11695  0.23441  1.0000 0.0614269623
H   H99       1.0  0.55670  0.35750  0.02508  1.0000 0.3126435973
H   H100      1.0  0.50842  0.35750  0.97680  1.0000 0.2889415496
H   H101      1.0  0.11378  0.69139  0.62428  1.0000 0.0764310473
H   H102      1.0  0.15129  0.69050  0.49819  1.0000 0.0969566503
H   H103      1.0  0.18746  0.79784  0.49201  1.0000 0.1101325662
H   H104      1.0  0.26559  0.79757  0.61695  1.0000 0.0427442216
H   H105      1.0  0.47492  0.44330  0.85750  1.0000 0.3126435973
H   H106      1.0  0.52320  0.49158  0.85750  1.0000 0.2889415496
H   H107      1.0  0.68158  0.36670  0.86670  1.0000 0.2980381348
H   H108      1.0  0.37572  0.61378  0.80861  1.0000 0.0764310473
H   H109      1.0  0.50181  0.65129  0.80950  1.0000 0.0969566503
H   H110      1.0  0.50799  0.68746  0.70216  1.0000 0.1101325662
H   H111      1.0  0.38305  0.76559  0.70243  1.0000 0.0548274242
H   H112      1.0  0.14250  0.97492  0.05670  1.0000 0.3126435973
H   H113      1.0  0.14250  0.02320  0.00842  1.0000 0.2889415496
H   H114      1.0  0.13330  0.18158  0.13330  1.0000 0.2980381348
H   H115      1.0  0.19139  0.87572  0.88622  1.0000 0.0764310473
H   H116      1.0  0.19050  0.00181  0.84871  1.0000 0.0969566503
H   H117      1.0  0.29784  0.00799  0.81254  1.0000 0.1101325662
H   H118      1.0  0.29757  0.88305  0.73441  1.0000 0.0614269623
H   H119      1.0  0.94330  0.64250  0.52508  1.0000 0.3126435973
H   H120      1.0  0.99158  0.64250  0.47680  1.0000 0.2889415496
H   H121      1.0  0.61378  0.80861  0.37572  1.0000 0.0764310473
H   H122      1.0  0.65129  0.80950  0.50181  1.0000 0.0969566503
H   H123      1.0  0.68746  0.70216  0.50799  1.0000 0.1101325662
H   H124      1.0  0.76559  0.70243  0.38305  1.0000 0.0427442216
H   H125      1.0  0.97492  0.05670  0.14250  1.0000 0.3126435973
H   H126      1.0  0.02320  0.00842  0.14250  1.0000 0.2889415496
H   H127      1.0  0.18158  0.13330  0.13330  1.0000 0.2980381348
H   H128      1.0  0.87572  0.88622  0.19139  1.0000 0.0764310473
H   H129      1.0  0.00181  0.84871  0.19050  1.0000 0.0969566503
H   H130      1.0  0.00799  0.81254  0.29784  1.0000 0.1101325662
H   H131      1.0  0.88305  0.73441  0.29757  1.0000 0.0548274242
H   H132      1.0  0.64250  0.52508  0.94330  1.0000 0.3126435973
H   H133      1.0  0.64250  0.47680  0.99158  1.0000 0.2889415496
H   H134      1.0  0.63330  0.31842  0.86670  1.0000 0.2980381348
H   H135      1.0  0.69139  0.62428  0.11378  1.0000 0.0764310473
H   H136      1.0  0.69050  0.49819  0.15129  1.0000 0.0969566503
H   H137      1.0  0.79784  0.49201  0.18746  1.0000 0.1101325662
H   H138      1.0  0.79757  0.61695  0.26559  1.0000 0.0614269623
H   H139      1.0  0.44330  0.85750  0.47492  1.0000 0.3126435973
H   H140      1.0  0.49158  0.85750  0.52320  1.0000 0.2889415496
H   H141      1.0  0.88622  0.19139  0.87572  1.0000 0.0764310473
H   H142      1.0  0.84871  0.19050  0.00181  1.0000 0.0969566503
H   H143      1.0  0.81254  0.29784  0.00799  1.0000 0.1101325662
H   H144      1.0  0.73441  0.29757  0.88305  1.0000 0.0427442216
H   H145      1.0  0.52508  0.94330  0.64250  1.0000 0.3126435973
H   H146      1.0  0.47680  0.99158  0.64250  1.0000 0.2889415496
H   H147      1.0  0.31842  0.86670  0.63330  1.0000 0.2980381348
H   H148      1.0  0.62428  0.11378  0.69139  1.0000 0.0764310473
H   H149      1.0  0.49819  0.15129  0.69050  1.0000 0.0969566503
H   H150      1.0  0.49201  0.18746  0.79784  1.0000 0.1101325662
H   H151      1.0  0.61695  0.26559  0.79757  1.0000 0.0548274242
H   H152      1.0  0.85750  0.47492  0.44330  1.0000 0.3126435973
H   H153      1.0  0.85750  0.52320  0.49158  1.0000 0.2889415496
H   H154      1.0  0.86670  0.68158  0.36670  1.0000 0.2980381348
H   H155      1.0  0.80861  0.37572  0.61378  1.0000 0.0764310473
H   H156      1.0  0.80950  0.50181  0.65129  1.0000 0.0969566503
H   H157      1.0  0.70216  0.50799  0.68746  1.0000 0.1101325662
H   H158      1.0  0.70243  0.38305  0.76559  1.0000 0.0614269623
H   H159      1.0  0.05670  0.14250  0.97492  1.0000 0.3126435973
H   H160      1.0  0.00842  0.14250  0.02320  1.0000 0.2889415496
C   C1        1.0  0.63010  0.73310  0.90770  1.0000 0.0233109014
C   C2        1.0  0.57080  0.76580  0.93720  1.0000 0.5202228077
C   C3        1.0  0.67760  0.70840  0.95690  1.0000 -0.1600820972
C   C4        1.0  0.71640  0.65340  0.92590  1.0000 0.5805579323
C   C5        1.0  0.71710  0.76810  0.97240  1.0000 -0.1533057517
C   C6        1.0  0.78190  0.75480  0.00480  1.0000 0.5930084014
C   C7        1.0  0.71740  0.80560  0.90840  1.0000 0.0082027799
C   C8        1.0  0.70660  0.87780  0.91720  1.0000 0.5380344936
C   C9        1.0  0.90770  0.63010  0.73310  1.0000 0.0233109014
C   C10       1.0  0.93720  0.57080  0.76580  1.0000 0.5202228077
C   C11       1.0  0.95690  0.67760  0.70840  1.0000 -0.1600820972
C   C12       1.0  0.92590  0.71640  0.65340  1.0000 0.5805579323
C   C13       1.0  0.97240  0.71710  0.76810  1.0000 -0.1533057517
C   C14       1.0  0.00480  0.78190  0.75480  1.0000 0.5930084014
C   C15       1.0  0.90840  0.71740  0.80560  1.0000 0.0082027799
C   C16       1.0  0.91720  0.70660  0.87780  1.0000 0.5380344936
C   C17       1.0  0.73310  0.90770  0.63010  1.0000 0.0233109014
C   C18       1.0  0.76580  0.93720  0.57080  1.0000 0.5202228077
C   C19       1.0  0.70840  0.95690  0.67760  1.0000 -0.1600820972
C   C20       1.0  0.65340  0.92590  0.71640  1.0000 0.5805579323
C   C21       1.0  0.76810  0.97240  0.71710  1.0000 -0.1600820972
C   C22       1.0  0.75480  0.00480  0.78190  1.0000 0.5930084014
C   C23       1.0  0.80560  0.90840  0.71740  1.0000 0.0082027799
C   C24       1.0  0.87780  0.91720  0.70660  1.0000 0.5466520139
C   C25       1.0  0.86990  0.26690  0.40770  1.0000 0.0233109014
C   C26       1.0  0.92920  0.23420  0.43720  1.0000 0.5202228077
C   C27       1.0  0.82240  0.29160  0.45690  1.0000 -0.1600820972
C   C28       1.0  0.78360  0.34660  0.42590  1.0000 0.5805579323
C   C29       1.0  0.78290  0.23190  0.47240  1.0000 -0.1533057517
C   C30       1.0  0.71810  0.24520  0.50480  1.0000 0.5930084014
C   C31       1.0  0.78260  0.19440  0.40840  1.0000 0.0082027799
C   C32       1.0  0.79340  0.12220  0.41720  1.0000 0.5380344936
C   C33       1.0  0.59230  0.36990  0.23310  1.0000 0.0233109014
C   C34       1.0  0.56280  0.42920  0.26580  1.0000 0.5202228077
C   C35       1.0  0.54310  0.32240  0.20840  1.0000 -0.1600820972
C   C36       1.0  0.57410  0.28360  0.15340  1.0000 0.5805579323
C   C37       1.0  0.52760  0.28290  0.26810  1.0000 -0.1533057517
C   C38       1.0  0.49520  0.21810  0.25480  1.0000 0.5930084014
C   C39       1.0  0.59160  0.28260  0.30560  1.0000 0.0082027799
C   C40       1.0  0.58280  0.29340  0.37780  1.0000 0.5380344936
C   C41       1.0  0.76690  0.09230  0.13010  1.0000 0.0233109014
C   C42       1.0  0.73420  0.06280  0.07080  1.0000 0.5202228077
C   C43       1.0  0.79160  0.04310  0.17760  1.0000 -0.1600820972
C   C44       1.0  0.84660  0.07410  0.21640  1.0000 0.5805579323
C   C45       1.0  0.73190  0.02760  0.21710  1.0000 -0.1600820972
C   C46       1.0  0.74520  0.99520  0.28190  1.0000 0.5930084014
C   C47       1.0  0.69440  0.09160  0.21740  1.0000 0.0082027799
C   C48       1.0  0.62220  0.08280  0.20660  1.0000 0.5466520139
C   C49       1.0  0.36990  0.23310  0.59230  1.0000 0.0233109014
C   C50       1.0  0.42920  0.26580  0.56280  1.0000 0.5202228077
C   C51       1.0  0.32240  0.20840  0.54310  1.0000 -0.1600820972
C   C52       1.0  0.28360  0.15340  0.57410  1.0000 0.5805579323
C   C53       1.0  0.28290  0.26810  0.52760  1.0000 -0.1533057517
C   C54       1.0  0.21810  0.25480  0.49520  1.0000 0.5930084014
C   C55       1.0  0.28260  0.30560  0.59160  1.0000 0.0082027799
C   C56       1.0  0.29340  0.37780  0.58280  1.0000 0.5380344936
C   C57       1.0  0.09230  0.13010  0.76690  1.0000 0.0233109014
C   C58       1.0  0.06280  0.07080  0.73420  1.0000 0.5202228077
C   C59       1.0  0.04310  0.17760  0.79160  1.0000 -0.1600820972
C   C60       1.0  0.07410  0.21640  0.84660  1.0000 0.5805579323
C   C61       1.0  0.02760  0.21710  0.73190  1.0000 -0.1533057517
C   C62       1.0  0.99520  0.28190  0.74520  1.0000 0.5930084014
C   C63       1.0  0.09160  0.21740  0.69440  1.0000 0.0082027799
C   C64       1.0  0.08280  0.20660  0.62220  1.0000 0.5380344936
C   C65       1.0  0.26690  0.40770  0.86990  1.0000 0.0233109014
C   C66       1.0  0.23420  0.43720  0.92920  1.0000 0.5202228077
C   C67       1.0  0.29160  0.45690  0.82240  1.0000 -0.1600820972
C   C68       1.0  0.34660  0.42590  0.78360  1.0000 0.5805579323
C   C69       1.0  0.23190  0.47240  0.78290  1.0000 -0.1600820972
C   C70       1.0  0.24520  0.50480  0.71810  1.0000 0.5930084014
C   C71       1.0  0.19440  0.40840  0.78260  1.0000 0.0082027799
C   C72       1.0  0.12220  0.41720  0.79340  1.0000 0.5466520139
C   C73       1.0  0.13010  0.76690  0.09230  1.0000 0.0233109014
C   C74       1.0  0.07080  0.73420  0.06280  1.0000 0.5202228077
C   C75       1.0  0.17760  0.79160  0.04310  1.0000 -0.1600820972
C   C76       1.0  0.21640  0.84660  0.07410  1.0000 0.5805579323
C   C77       1.0  0.21710  0.73190  0.02760  1.0000 -0.1533057517
C   C78       1.0  0.28190  0.74520  0.99520  1.0000 0.5930084014
C   C79       1.0  0.21740  0.69440  0.09160  1.0000 0.0082027799
C   C80       1.0  0.20660  0.62220  0.08280  1.0000 0.5380344936
C   C81       1.0  0.40770  0.86990  0.26690  1.0000 0.0233109014
C   C82       1.0  0.43720  0.92920  0.23420  1.0000 0.5202228077
C   C83       1.0  0.45690  0.82240  0.29160  1.0000 -0.1600820972
C   C84       1.0  0.42590  0.78360  0.34660  1.0000 0.5805579323
C   C85       1.0  0.47240  0.78290  0.23190  1.0000 -0.1533057517
C   C86       1.0  0.50480  0.71810  0.24520  1.0000 0.5930084014
C   C87       1.0  0.40840  0.78260  0.19440  1.0000 0.0082027799
C   C88       1.0  0.41720  0.79340  0.12220  1.0000 0.5380344936
C   C89       1.0  0.23310  0.59230  0.36990  1.0000 0.0233109014
C   C90       1.0  0.26580  0.56280  0.42920  1.0000 0.5202228077
C   C91       1.0  0.20840  0.54310  0.32240  1.0000 -0.1600820972
C   C92       1.0  0.15340  0.57410  0.28360  1.0000 0.5805579323
C   C93       1.0  0.26810  0.52760  0.28290  1.0000 -0.1600820972
C   C94       1.0  0.25480  0.49520  0.21810  1.0000 0.5930084014
C   C95       1.0  0.30560  0.59160  0.28260  1.0000 0.0082027799
C   C96       1.0  0.37780  0.58280  0.29340  1.0000 0.5466520139
C   C97       1.0  0.36990  0.26690  0.09230  1.0000 0.0233109014
C   C98       1.0  0.42920  0.23420  0.06280  1.0000 0.5202228077
C   C99       1.0  0.32240  0.29160  0.04310  1.0000 -0.1600820972
C   C100      1.0  0.28360  0.34660  0.07410  1.0000 0.5805579323
C   C101      1.0  0.28290  0.23190  0.02760  1.0000 -0.1533057517
C   C102      1.0  0.21810  0.24520  0.99520  1.0000 0.5930084014
C   C103      1.0  0.28260  0.19440  0.09160  1.0000 0.0082027799
C   C104      1.0  0.29340  0.12220  0.08280  1.0000 0.5380344936
C   C105      1.0  0.09230  0.36990  0.26690  1.0000 0.0233109014
C   C106      1.0  0.06280  0.42920  0.23420  1.0000 0.5202228077
C   C107      1.0  0.04310  0.32240  0.29160  1.0000 -0.1600820972
C   C108      1.0  0.07410  0.28360  0.34660  1.0000 0.5805579323
C   C109      1.0  0.02760  0.28290  0.23190  1.0000 -0.1533057517
C   C110      1.0  0.99520  0.21810  0.24520  1.0000 0.5930084014
C   C111      1.0  0.09160  0.28260  0.19440  1.0000 0.0082027799
C   C112      1.0  0.08280  0.29340  0.12220  1.0000 0.5380344936
C   C113      1.0  0.26690  0.09230  0.36990  1.0000 0.0233109014
C   C114      1.0  0.23420  0.06280  0.42920  1.0000 0.5202228077
C   C115      1.0  0.29160  0.04310  0.32240  1.0000 -0.1600820972
C   C116      1.0  0.34660  0.07410  0.28360  1.0000 0.5805579323
C   C117      1.0  0.23190  0.02760  0.28290  1.0000 -0.1600820972
C   C118      1.0  0.24520  0.99520  0.21810  1.0000 0.5930084014
C   C119      1.0  0.19440  0.09160  0.28260  1.0000 0.0082027799
C   C120      1.0  0.12220  0.08280  0.29340  1.0000 0.5466520139
C   C121      1.0  0.13010  0.73310  0.59230  1.0000 0.0233109014
C   C122      1.0  0.07080  0.76580  0.56280  1.0000 0.5202228077
C   C123      1.0  0.17760  0.70840  0.54310  1.0000 -0.1600820972
C   C124      1.0  0.21640  0.65340  0.57410  1.0000 0.5805579323
C   C125      1.0  0.21710  0.76810  0.52760  1.0000 -0.1533057517
C   C126      1.0  0.28190  0.75480  0.49520  1.0000 0.5930084014
C   C127      1.0  0.21740  0.80560  0.59160  1.0000 0.0082027799
C   C128      1.0  0.20660  0.87780  0.58280  1.0000 0.5380344936
C   C129      1.0  0.40770  0.63010  0.76690  1.0000 0.0233109014
C   C130      1.0  0.43720  0.57080  0.73420  1.0000 0.5202228077
C   C131      1.0  0.45690  0.67760  0.79160  1.0000 -0.1600820972
C   C132      1.0  0.42590  0.71640  0.84660  1.0000 0.5805579323
C   C133      1.0  0.47240  0.71710  0.73190  1.0000 -0.1533057517
C   C134      1.0  0.50480  0.78190  0.74520  1.0000 0.5930084014
C   C135      1.0  0.40840  0.71740  0.69440  1.0000 0.0082027799
C   C136      1.0  0.41720  0.70660  0.62220  1.0000 0.5380344936
C   C137      1.0  0.23310  0.90770  0.86990  1.0000 0.0233109014
C   C138      1.0  0.26580  0.93720  0.92920  1.0000 0.5202228077
C   C139      1.0  0.20840  0.95690  0.82240  1.0000 -0.1600820972
C   C140      1.0  0.15340  0.92590  0.78360  1.0000 0.5805579323
C   C141      1.0  0.26810  0.97240  0.78290  1.0000 -0.1600820972
C   C142      1.0  0.25480  0.00480  0.71810  1.0000 0.5930084014
C   C143      1.0  0.30560  0.90840  0.78260  1.0000 0.0082027799
C   C144      1.0  0.37780  0.91720  0.79340  1.0000 0.5466520139
C   C145      1.0  0.63010  0.76690  0.40770  1.0000 0.0233109014
C   C146      1.0  0.57080  0.73420  0.43720  1.0000 0.5202228077
C   C147      1.0  0.67760  0.79160  0.45690  1.0000 -0.1600820972
C   C148      1.0  0.71640  0.84660  0.42590  1.0000 0.5805579323
C   C149      1.0  0.71710  0.73190  0.47240  1.0000 -0.1533057517
C   C150      1.0  0.78190  0.74520  0.50480  1.0000 0.5930084014
C   C151      1.0  0.71740  0.69440  0.40840  1.0000 0.0082027799
C   C152      1.0  0.70660  0.62220  0.41720  1.0000 0.5380344936
C   C153      1.0  0.90770  0.86990  0.23310  1.0000 0.0233109014
C   C154      1.0  0.93720  0.92920  0.26580  1.0000 0.5202228077
C   C155      1.0  0.95690  0.82240  0.20840  1.0000 -0.1600820972
C   C156      1.0  0.92590  0.78360  0.15340  1.0000 0.5805579323
C   C157      1.0  0.97240  0.78290  0.26810  1.0000 -0.1533057517
C   C158      1.0  0.00480  0.71810  0.25480  1.0000 0.5930084014
C   C159      1.0  0.90840  0.78260  0.30560  1.0000 0.0082027799
C   C160      1.0  0.91720  0.79340  0.37780  1.0000 0.5380344936
C   C161      1.0  0.73310  0.59230  0.13010  1.0000 0.0233109014
C   C162      1.0  0.76580  0.56280  0.07080  1.0000 0.5202228077
C   C163      1.0  0.70840  0.54310  0.17760  1.0000 -0.1600820972
C   C164      1.0  0.65340  0.57410  0.21640  1.0000 0.5805579323
C   C165      1.0  0.76810  0.52760  0.21710  1.0000 -0.1600820972
C   C166      1.0  0.75480  0.49520  0.28190  1.0000 0.5930084014
C   C167      1.0  0.80560  0.59160  0.21740  1.0000 0.0082027799
C   C168      1.0  0.87780  0.58280  0.20660  1.0000 0.5466520139
C   C169      1.0  0.86990  0.23310  0.90770  1.0000 0.0233109014
C   C170      1.0  0.92920  0.26580  0.93720  1.0000 0.5202228077
C   C171      1.0  0.82240  0.20840  0.95690  1.0000 -0.1600820972
C   C172      1.0  0.78360  0.15340  0.92590  1.0000 0.5805579323
C   C173      1.0  0.78290  0.26810  0.97240  1.0000 -0.1533057517
C   C174      1.0  0.71810  0.25480  0.00480  1.0000 0.5930084014
C   C175      1.0  0.78260  0.30560  0.90840  1.0000 0.0082027799
C   C176      1.0  0.79340  0.37780  0.91720  1.0000 0.5380344936
C   C177      1.0  0.59230  0.13010  0.73310  1.0000 0.0233109014
C   C178      1.0  0.56280  0.07080  0.76580  1.0000 0.5202228077
C   C179      1.0  0.54310  0.17760  0.70840  1.0000 -0.1600820972
C   C180      1.0  0.57410  0.21640  0.65340  1.0000 0.5805579323
C   C181      1.0  0.52760  0.21710  0.76810  1.0000 -0.1533057517
C   C182      1.0  0.49520  0.28190  0.75480  1.0000 0.5930084014
C   C183      1.0  0.59160  0.21740  0.80560  1.0000 0.0082027799
C   C184      1.0  0.58280  0.20660  0.87780  1.0000 0.5380344936
C   C185      1.0  0.76690  0.40770  0.63010  1.0000 0.0233109014
C   C186      1.0  0.73420  0.43720  0.57080  1.0000 0.5202228077
C   C187      1.0  0.79160  0.45690  0.67760  1.0000 -0.1600820972
C   C188      1.0  0.84660  0.42590  0.71640  1.0000 0.5805579323
C   C189      1.0  0.73190  0.47240  0.71710  1.0000 -0.1600820972
C   C190      1.0  0.74520  0.50480  0.78190  1.0000 0.5930084014
C   C191      1.0  0.69440  0.40840  0.71740  1.0000 0.0082027799
C   C192      1.0  0.62220  0.41720  0.70660  1.0000 0.5466520139
O   O1        1.0  0.66630  0.77870  0.86930  1.0000 -0.2429411016
O   O2        1.0  0.55180  0.81730  0.91320  1.0000 -0.4315019128
O   O3        1.0  0.54290  0.73650  0.98250  1.0000 -0.5616841248
O   O4        1.0  0.69750  0.59860  0.93720  1.0000 -0.5369611707
O   O5        1.0  0.76200  0.66680  0.88820  1.0000 -0.5071697913
O   O6        1.0  0.77890  0.71770  0.05140  1.0000 -0.5071697913
O   O7        1.0  0.83170  0.78290  0.98570  1.0000 -0.5814288832
O   O8        1.0  0.74810  0.90700  0.94990  1.0000 -0.5616841248
O   O9        1.0  0.65730  0.90430  0.89340  1.0000 -0.4185823341
O   O10       1.0  0.53520  0.92350  0.82700  1.0000 -0.4383040333
O   O11       1.0  0.44330  0.64250  0.02320  1.0000 -0.7123993016
O   O12       1.0  0.86930  0.66630  0.77870  1.0000 -0.245708196
O   O13       1.0  0.91320  0.55180  0.81730  1.0000 -0.4315019128
O   O14       1.0  0.98250  0.54290  0.73650  1.0000 -0.5616841248
O   O15       1.0  0.93720  0.69750  0.59860  1.0000 -0.5369611707
O   O16       1.0  0.88820  0.76200  0.66680  1.0000 -0.5071697913
O   O17       1.0  0.05140  0.77890  0.71770  1.0000 -0.5071697913
O   O18       1.0  0.98570  0.83170  0.78290  1.0000 -0.57164753
O   O19       1.0  0.94990  0.74810  0.90700  1.0000 -0.5616841248
O   O20       1.0  0.89340  0.65730  0.90430  1.0000 -0.4185823341
O   O21       1.0  0.82700  0.53520  0.92350  1.0000 -0.4383040333
O   O22       1.0  0.02320  0.44330  0.64250  1.0000 -0.7123993016
O   O23       1.0  0.77870  0.86930  0.66630  1.0000 -0.245708196
O   O24       1.0  0.81730  0.91320  0.55180  1.0000 -0.4315019128
O   O25       1.0  0.73650  0.98250  0.54290  1.0000 -0.5616841248
O   O26       1.0  0.59860  0.93720  0.69750  1.0000 -0.5369611707
O   O27       1.0  0.66680  0.88820  0.76200  1.0000 -0.5071697913
O   O28       1.0  0.71770  0.05140  0.77890  1.0000 -0.5071697913
O   O29       1.0  0.78290  0.98570  0.83170  1.0000 -0.5814288832
O   O30       1.0  0.90700  0.94990  0.74810  1.0000 -0.5520327142
O   O31       1.0  0.90430  0.89340  0.65730  1.0000 -0.4185823341
O   O32       1.0  0.92350  0.82700  0.53520  1.0000 -0.4383040333
O   O33       1.0  0.64250  0.02320  0.44330  1.0000 -0.7123993016
O   O34       1.0  0.86670  0.86670  0.86670  1.0000 -0.7014320544
O   O35       1.0  0.83370  0.22130  0.36930  1.0000 -0.2429411016
O   O36       1.0  0.94820  0.18270  0.41320  1.0000 -0.4315019128
O   O37       1.0  0.95710  0.26350  0.48250  1.0000 -0.5616841248
O   O38       1.0  0.80250  0.40140  0.43720  1.0000 -0.5369611707
O   O39       1.0  0.73800  0.33320  0.38820  1.0000 -0.5071697913
O   O40       1.0  0.72110  0.28230  0.55140  1.0000 -0.5071697913
O   O41       1.0  0.66830  0.21710  0.48570  1.0000 -0.5814288832
O   O42       1.0  0.75190  0.09300  0.44990  1.0000 -0.5616841248
O   O43       1.0  0.84270  0.09570  0.39340  1.0000 -0.4185823341
O   O44       1.0  0.96480  0.07650  0.32700  1.0000 -0.4383040333
O   O45       1.0  0.05670  0.35750  0.52320  1.0000 -0.7123993016
O   O46       1.0  0.63070  0.33370  0.27870  1.0000 -0.245708196
O   O47       1.0  0.58680  0.44820  0.31730  1.0000 -0.4315019128
O   O48       1.0  0.51750  0.45710  0.23650  1.0000 -0.5616841248
O   O49       1.0  0.56280  0.30250  0.09860  1.0000 -0.5369611707
O   O50       1.0  0.61180  0.23800  0.16680  1.0000 -0.5071697913
O   O51       1.0  0.44860  0.22110  0.21770  1.0000 -0.5071697913
O   O52       1.0  0.51430  0.16830  0.28290  1.0000 -0.57164753
O   O53       1.0  0.55010  0.25190  0.40700  1.0000 -0.5616841248
O   O54       1.0  0.60660  0.34270  0.40430  1.0000 -0.4185823341
O   O55       1.0  0.67300  0.46480  0.42350  1.0000 -0.4383040333
O   O56       1.0  0.47680  0.55670  0.14250  1.0000 -0.7123993016
O   O57       1.0  0.72130  0.13070  0.16630  1.0000 -0.245708196
O   O58       1.0  0.68270  0.08680  0.05180  1.0000 -0.4315019128
O   O59       1.0  0.76350  0.01750  0.04290  1.0000 -0.5616841248
O   O60       1.0  0.90140  0.06280  0.19750  1.0000 -0.5369611707
O   O61       1.0  0.83320  0.11180  0.26200  1.0000 -0.5071697913
O   O62       1.0  0.78230  0.94860  0.27890  1.0000 -0.5071697913
O   O63       1.0  0.71710  0.01430  0.33170  1.0000 -0.5814288832
O   O64       1.0  0.59300  0.05010  0.24810  1.0000 -0.5520327142
O   O65       1.0  0.59570  0.10660  0.15730  1.0000 -0.4185823341
O   O66       1.0  0.57650  0.17300  0.03520  1.0000 -0.4383040333
O   O67       1.0  0.85750  0.97680  0.94330  1.0000 -0.7123993016
O   O68       1.0  0.63330  0.13330  0.36670  1.0000 -0.7014320544
O   O69       1.0  0.33370  0.27870  0.63070  1.0000 -0.2429411016
O   O70       1.0  0.44820  0.31730  0.58680  1.0000 -0.4315019128
O   O71       1.0  0.45710  0.23650  0.51750  1.0000 -0.5616841248
O   O72       1.0  0.30250  0.09860  0.56280  1.0000 -0.5369611707
O   O73       1.0  0.23800  0.16680  0.61180  1.0000 -0.5071697913
O   O74       1.0  0.22110  0.21770  0.44860  1.0000 -0.5071697913
O   O75       1.0  0.16830  0.28290  0.51430  1.0000 -0.5814288832
O   O76       1.0  0.25190  0.40700  0.55010  1.0000 -0.5616841248
O   O77       1.0  0.34270  0.40430  0.60660  1.0000 -0.4185823341
O   O78       1.0  0.46480  0.42350  0.67300  1.0000 -0.4383040333
O   O79       1.0  0.55670  0.14250  0.47680  1.0000 -0.7123993016
O   O80       1.0  0.13070  0.16630  0.72130  1.0000 -0.245708196
O   O81       1.0  0.08680  0.05180  0.68270  1.0000 -0.4315019128
O   O82       1.0  0.01750  0.04290  0.76350  1.0000 -0.5616841248
O   O83       1.0  0.06280  0.19750  0.90140  1.0000 -0.5369611707
O   O84       1.0  0.11180  0.26200  0.83320  1.0000 -0.5071697913
O   O85       1.0  0.94860  0.27890  0.78230  1.0000 -0.5071697913
O   O86       1.0  0.01430  0.33170  0.71710  1.0000 -0.57164753
O   O87       1.0  0.05010  0.24810  0.59300  1.0000 -0.5616841248
O   O88       1.0  0.10660  0.15730  0.59570  1.0000 -0.4185823341
O   O89       1.0  0.17300  0.03520  0.57650  1.0000 -0.4383040333
O   O90       1.0  0.97680  0.94330  0.85750  1.0000 -0.7123993016
O   O91       1.0  0.22130  0.36930  0.83370  1.0000 -0.245708196
O   O92       1.0  0.18270  0.41320  0.94820  1.0000 -0.4315019128
O   O93       1.0  0.26350  0.48250  0.95710  1.0000 -0.5616841248
O   O94       1.0  0.40140  0.43720  0.80250  1.0000 -0.5369611707
O   O95       1.0  0.33320  0.38820  0.73800  1.0000 -0.5071697913
O   O96       1.0  0.28230  0.55140  0.72110  1.0000 -0.5071697913
O   O97       1.0  0.21710  0.48570  0.66830  1.0000 -0.5814288832
O   O98       1.0  0.09300  0.44990  0.75190  1.0000 -0.5520327142
O   O99       1.0  0.09570  0.39340  0.84270  1.0000 -0.4185823341
O   O100      1.0  0.07650  0.32700  0.96480  1.0000 -0.4383040333
O   O101      1.0  0.35750  0.52320  0.05670  1.0000 -0.7123993016
O   O102      1.0  0.13330  0.36670  0.63330  1.0000 -0.7014320544
O   O103      1.0  0.16630  0.72130  0.13070  1.0000 -0.2429411016
O   O104      1.0  0.05180  0.68270  0.08680  1.0000 -0.4315019128
O   O105      1.0  0.04290  0.76350  0.01750  1.0000 -0.5616841248
O   O106      1.0  0.19750  0.90140  0.06280  1.0000 -0.5369611707
O   O107      1.0  0.26200  0.83320  0.11180  1.0000 -0.5071697913
O   O108      1.0  0.27890  0.78230  0.94860  1.0000 -0.5071697913
O   O109      1.0  0.33170  0.71710  0.01430  1.0000 -0.5814288832
O   O110      1.0  0.24810  0.59300  0.05010  1.0000 -0.5616841248
O   O111      1.0  0.15730  0.59570  0.10660  1.0000 -0.4185823341
O   O112      1.0  0.03520  0.57650  0.17300  1.0000 -0.4383040333
O   O113      1.0  0.94330  0.85750  0.97680  1.0000 -0.7123993016
O   O114      1.0  0.36930  0.83370  0.22130  1.0000 -0.245708196
O   O115      1.0  0.41320  0.94820  0.18270  1.0000 -0.4315019128
O   O116      1.0  0.48250  0.95710  0.26350  1.0000 -0.5616841248
O   O117      1.0  0.43720  0.80250  0.40140  1.0000 -0.5369611707
O   O118      1.0  0.38820  0.73800  0.33320  1.0000 -0.5071697913
O   O119      1.0  0.55140  0.72110  0.28230  1.0000 -0.5071697913
O   O120      1.0  0.48570  0.66830  0.21710  1.0000 -0.57164753
O   O121      1.0  0.44990  0.75190  0.09300  1.0000 -0.5616841248
O   O122      1.0  0.39340  0.84270  0.09570  1.0000 -0.4185823341
O   O123      1.0  0.32700  0.96480  0.07650  1.0000 -0.4383040333
O   O124      1.0  0.52320  0.05670  0.35750  1.0000 -0.7123993016
O   O125      1.0  0.27870  0.63070  0.33370  1.0000 -0.245708196
O   O126      1.0  0.31730  0.58680  0.44820  1.0000 -0.4315019128
O   O127      1.0  0.23650  0.51750  0.45710  1.0000 -0.5616841248
O   O128      1.0  0.09860  0.56280  0.30250  1.0000 -0.5369611707
O   O129      1.0  0.16680  0.61180  0.23800  1.0000 -0.5071697913
O   O130      1.0  0.21770  0.44860  0.22110  1.0000 -0.5071697913
O   O131      1.0  0.28290  0.51430  0.16830  1.0000 -0.5814288832
O   O132      1.0  0.40700  0.55010  0.25190  1.0000 -0.5520327142
O   O133      1.0  0.40430  0.60660  0.34270  1.0000 -0.4185823341
O   O134      1.0  0.42350  0.67300  0.46480  1.0000 -0.4383040333
O   O135      1.0  0.14250  0.47680  0.55670  1.0000 -0.7123993016
O   O136      1.0  0.36670  0.63330  0.13330  1.0000 -0.7014320544
O   O137      1.0  0.33370  0.22130  0.13070  1.0000 -0.2429411016
O   O138      1.0  0.44820  0.18270  0.08680  1.0000 -0.4315019128
O   O139      1.0  0.45710  0.26350  0.01750  1.0000 -0.5616841248
O   O140      1.0  0.30250  0.40140  0.06280  1.0000 -0.5369611707
O   O141      1.0  0.23800  0.33320  0.11180  1.0000 -0.5071697913
O   O142      1.0  0.22110  0.28230  0.94860  1.0000 -0.5071697913
O   O143      1.0  0.16830  0.21710  0.01430  1.0000 -0.5814288832
O   O144      1.0  0.25190  0.09300  0.05010  1.0000 -0.5616841248
O   O145      1.0  0.34270  0.09570  0.10660  1.0000 -0.4185823341
O   O146      1.0  0.46480  0.07650  0.17300  1.0000 -0.4383040333
O   O147      1.0  0.55670  0.35750  0.97680  1.0000 -0.7123993016
O   O148      1.0  0.13070  0.33370  0.22130  1.0000 -0.245708196
O   O149      1.0  0.08680  0.44820  0.18270  1.0000 -0.4315019128
O   O150      1.0  0.01750  0.45710  0.26350  1.0000 -0.5616841248
O   O151      1.0  0.06280  0.30250  0.40140  1.0000 -0.5369611707
O   O152      1.0  0.11180  0.23800  0.33320  1.0000 -0.5071697913
O   O153      1.0  0.94860  0.22110  0.28230  1.0000 -0.5071697913
O   O154      1.0  0.01430  0.16830  0.21710  1.0000 -0.57164753
O   O155      1.0  0.05010  0.25190  0.09300  1.0000 -0.5616841248
O   O156      1.0  0.10660  0.34270  0.09570  1.0000 -0.4185823341
O   O157      1.0  0.17300  0.46480  0.07650  1.0000 -0.4383040333
O   O158      1.0  0.97680  0.55670  0.35750  1.0000 -0.7123993016
O   O159      1.0  0.22130  0.13070  0.33370  1.0000 -0.245708196
O   O160      1.0  0.18270  0.08680  0.44820  1.0000 -0.4315019128
O   O161      1.0  0.26350  0.01750  0.45710  1.0000 -0.5616841248
O   O162      1.0  0.40140  0.06280  0.30250  1.0000 -0.5369611707
O   O163      1.0  0.33320  0.11180  0.23800  1.0000 -0.5071697913
O   O164      1.0  0.28230  0.94860  0.22110  1.0000 -0.5071697913
O   O165      1.0  0.21710  0.01430  0.16830  1.0000 -0.5814288832
O   O166      1.0  0.09300  0.05010  0.25190  1.0000 -0.5520327142
O   O167      1.0  0.09570  0.10660  0.34270  1.0000 -0.4185823341
O   O168      1.0  0.07650  0.17300  0.46480  1.0000 -0.4383040333
O   O169      1.0  0.35750  0.97680  0.55670  1.0000 -0.7123993016
O   O170      1.0  0.13330  0.13330  0.13330  1.0000 -0.7014320544
O   O171      1.0  0.16630  0.77870  0.63070  1.0000 -0.2429411016
O   O172      1.0  0.05180  0.81730  0.58680  1.0000 -0.4315019128
O   O173      1.0  0.04290  0.73650  0.51750  1.0000 -0.5616841248
O   O174      1.0  0.19750  0.59860  0.56280  1.0000 -0.5369611707
O   O175      1.0  0.26200  0.66680  0.61180  1.0000 -0.5071697913
O   O176      1.0  0.27890  0.71770  0.44860  1.0000 -0.5071697913
O   O177      1.0  0.33170  0.78290  0.51430  1.0000 -0.5814288832
O   O178      1.0  0.24810  0.90700  0.55010  1.0000 -0.5616841248
O   O179      1.0  0.15730  0.90430  0.60660  1.0000 -0.4185823341
O   O180      1.0  0.03520  0.92350  0.67300  1.0000 -0.4383040333
O   O181      1.0  0.94330  0.64250  0.47680  1.0000 -0.7123993016
O   O182      1.0  0.36930  0.66630  0.72130  1.0000 -0.245708196
O   O183      1.0  0.41320  0.55180  0.68270  1.0000 -0.4315019128
O   O184      1.0  0.48250  0.54290  0.76350  1.0000 -0.5616841248
O   O185      1.0  0.43720  0.69750  0.90140  1.0000 -0.5369611707
O   O186      1.0  0.38820  0.76200  0.83320  1.0000 -0.5071697913
O   O187      1.0  0.55140  0.77890  0.78230  1.0000 -0.5071697913
O   O188      1.0  0.48570  0.83170  0.71710  1.0000 -0.57164753
O   O189      1.0  0.44990  0.74810  0.59300  1.0000 -0.5616841248
O   O190      1.0  0.39340  0.65730  0.59570  1.0000 -0.4185823341
O   O191      1.0  0.32700  0.53520  0.57650  1.0000 -0.4383040333
O   O192      1.0  0.52320  0.44330  0.85750  1.0000 -0.7123993016
O   O193      1.0  0.27870  0.86930  0.83370  1.0000 -0.245708196
O   O194      1.0  0.31730  0.91320  0.94820  1.0000 -0.4315019128
O   O195      1.0  0.23650  0.98250  0.95710  1.0000 -0.5616841248
O   O196      1.0  0.09860  0.93720  0.80250  1.0000 -0.5369611707
O   O197      1.0  0.16680  0.88820  0.73800  1.0000 -0.5071697913
O   O198      1.0  0.21770  0.05140  0.72110  1.0000 -0.5071697913
O   O199      1.0  0.28290  0.98570  0.66830  1.0000 -0.5814288832
O   O200      1.0  0.40700  0.94990  0.75190  1.0000 -0.5520327142
O   O201      1.0  0.40430  0.89340  0.84270  1.0000 -0.4185823341
O   O202      1.0  0.42350  0.82700  0.96480  1.0000 -0.4383040333
O   O203      1.0  0.14250  0.02320  0.05670  1.0000 -0.7123993016
O   O204      1.0  0.36670  0.86670  0.63330  1.0000 -0.7014320544
O   O205      1.0  0.66630  0.72130  0.36930  1.0000 -0.2429411016
O   O206      1.0  0.55180  0.68270  0.41320  1.0000 -0.4315019128
O   O207      1.0  0.54290  0.76350  0.48250  1.0000 -0.5616841248
O   O208      1.0  0.69750  0.90140  0.43720  1.0000 -0.5369611707
O   O209      1.0  0.76200  0.83320  0.38820  1.0000 -0.5071697913
O   O210      1.0  0.77890  0.78230  0.55140  1.0000 -0.5071697913
O   O211      1.0  0.83170  0.71710  0.48570  1.0000 -0.5814288832
O   O212      1.0  0.74810  0.59300  0.44990  1.0000 -0.5616841248
O   O213      1.0  0.65730  0.59570  0.39340  1.0000 -0.4185823341
O   O214      1.0  0.53520  0.57650  0.32700  1.0000 -0.4383040333
O   O215      1.0  0.44330  0.85750  0.52320  1.0000 -0.7123993016
O   O216      1.0  0.86930  0.83370  0.27870  1.0000 -0.245708196
O   O217      1.0  0.91320  0.94820  0.31730  1.0000 -0.4315019128
O   O218      1.0  0.98250  0.95710  0.23650  1.0000 -0.5616841248
O   O219      1.0  0.93720  0.80250  0.09860  1.0000 -0.5369611707
O   O220      1.0  0.88820  0.73800  0.16680  1.0000 -0.5071697913
O   O221      1.0  0.05140  0.72110  0.21770  1.0000 -0.5071697913
O   O222      1.0  0.98570  0.66830  0.28290  1.0000 -0.57164753
O   O223      1.0  0.94990  0.75190  0.40700  1.0000 -0.5616841248
O   O224      1.0  0.89340  0.84270  0.40430  1.0000 -0.4185823341
O   O225      1.0  0.82700  0.96480  0.42350  1.0000 -0.4383040333
O   O226      1.0  0.02320  0.05670  0.14250  1.0000 -0.7123993016
O   O227      1.0  0.77870  0.63070  0.16630  1.0000 -0.245708196
O   O228      1.0  0.81730  0.58680  0.05180  1.0000 -0.4315019128
O   O229      1.0  0.73650  0.51750  0.04290  1.0000 -0.5616841248
O   O230      1.0  0.59860  0.56280  0.19750  1.0000 -0.5369611707
O   O231      1.0  0.66680  0.61180  0.26200  1.0000 -0.5071697913
O   O232      1.0  0.71770  0.44860  0.27890  1.0000 -0.5071697913
O   O233      1.0  0.78290  0.51430  0.33170  1.0000 -0.5814288832
O   O234      1.0  0.90700  0.55010  0.24810  1.0000 -0.5520327142
O   O235      1.0  0.90430  0.60660  0.15730  1.0000 -0.4185823341
O   O236      1.0  0.92350  0.67300  0.03520  1.0000 -0.4383040333
O   O237      1.0  0.64250  0.47680  0.94330  1.0000 -0.7123993016
O   O238      1.0  0.86670  0.63330  0.36670  1.0000 -0.7014320544
O   O239      1.0  0.83370  0.27870  0.86930  1.0000 -0.2429411016
O   O240      1.0  0.94820  0.31730  0.91320  1.0000 -0.4315019128
O   O241      1.0  0.95710  0.23650  0.98250  1.0000 -0.5616841248
O   O242      1.0  0.80250  0.09860  0.93720  1.0000 -0.5369611707
O   O243      1.0  0.73800  0.16680  0.88820  1.0000 -0.5071697913
O   O244      1.0  0.72110  0.21770  0.05140  1.0000 -0.5071697913
O   O245      1.0  0.66830  0.28290  0.98570  1.0000 -0.5814288832
O   O246      1.0  0.75190  0.40700  0.94990  1.0000 -0.5616841248
O   O247      1.0  0.84270  0.40430  0.89340  1.0000 -0.4185823341
O   O248      1.0  0.96480  0.42350  0.82700  1.0000 -0.4383040333
O   O249      1.0  0.05670  0.14250  0.02320  1.0000 -0.7123993016
O   O250      1.0  0.63070  0.16630  0.77870  1.0000 -0.245708196
O   O251      1.0  0.58680  0.05180  0.81730  1.0000 -0.4315019128
O   O252      1.0  0.51750  0.04290  0.73650  1.0000 -0.5616841248
O   O253      1.0  0.56280  0.19750  0.59860  1.0000 -0.5369611707
O   O254      1.0  0.61180  0.26200  0.66680  1.0000 -0.5071697913
O   O255      1.0  0.44860  0.27890  0.71770  1.0000 -0.5071697913
O   O256      1.0  0.51430  0.33170  0.78290  1.0000 -0.57164753
O   O257      1.0  0.55010  0.24810  0.90700  1.0000 -0.5616841248
O   O258      1.0  0.60660  0.15730  0.90430  1.0000 -0.4185823341
O   O259      1.0  0.67300  0.03520  0.92350  1.0000 -0.4383040333
O   O260      1.0  0.47680  0.94330  0.64250  1.0000 -0.7123993016
O   O261      1.0  0.72130  0.36930  0.66630  1.0000 -0.245708196
O   O262      1.0  0.68270  0.41320  0.55180  1.0000 -0.4315019128
O   O263      1.0  0.76350  0.48250  0.54290  1.0000 -0.5616841248
O   O264      1.0  0.90140  0.43720  0.69750  1.0000 -0.5369611707
O   O265      1.0  0.83320  0.38820  0.76200  1.0000 -0.5071697913
O   O266      1.0  0.78230  0.55140  0.77890  1.0000 -0.5071697913
O   O267      1.0  0.71710  0.48570  0.83170  1.0000 -0.5814288832
O   O268      1.0  0.59300  0.44990  0.74810  1.0000 -0.5520327142
O   O269      1.0  0.59570  0.39340  0.65730  1.0000 -0.4185823341
O   O270      1.0  0.57650  0.32700  0.53520  1.0000 -0.4383040333
O   O271      1.0  0.85750  0.52320  0.44330  1.0000 -0.7123993016
O   O272      1.0  0.63330  0.36670  0.86670  1.0000 -0.7014320544
