# DDEC6 charges by PACMAN v1.1 (https://github.com/mtap-research/PACMAN-charge/)
data_2004[Cu][dia]3[ASR]4
_chemical_formula_sum              "Cu16 C8 S8 I16 N8"
_cell_length_a       12.057
_cell_length_b       24.891
_cell_length_c       12.38
_cell_angle_alpha    90
_cell_angle_beta     93.04
_cell_angle_gamma    90

_symmetry_space_group_name_H-M    "P 1"
_symmetry_Int_Tables_number       1

loop_
  _symmetry_equiv_pos_as_xyz
  'x, y, z'

loop_
  _atom_site_type_symbol
  _atom_site_label
  _atom_site_symmetry_multiplicity
  _atom_site_fract_x
  _atom_site_fract_y
  _atom_site_fract_z
  _atom_site_occupancy
  _atom_site_charge
Cu  Cu1       1.0  0.32270  0.32700  0.24120  1.0000 0.2165815215
Cu  Cu2       1.0  0.67730  0.82700  0.75880  1.0000 0.2165815215
Cu  Cu3       1.0  0.32150  0.23820  0.10700  1.0000 0.2576648388
Cu  Cu4       1.0  0.67850  0.73820  0.89300  1.0000 0.2576648388
Cu  Cu5       1.0  0.14890  0.24770  0.25700  1.0000 0.4324698281
Cu  Cu6       1.0  0.85110  0.74770  0.74300  1.0000 0.4324698281
Cu  Cu7       1.0  0.14360  0.32120  0.07700  1.0000 0.291836841
Cu  Cu8       1.0  0.85640  0.82120  0.92300  1.0000 0.291836841
Cu  Cu9       1.0  0.17450  0.58090  0.61160  1.0000 0.2695333343
Cu  Cu10      1.0  0.82550  0.08090  0.38840  1.0000 0.2695333343
Cu  Cu11      1.0  0.35120  0.56880  0.75670  1.0000 0.3700688462
Cu  Cu12      1.0  0.64880  0.06880  0.24330  1.0000 0.3700688462
Cu  Cu13      1.0  0.33450  0.49750  0.57810  1.0000 0.3776457291
Cu  Cu14      1.0  0.66550  0.99750  0.42190  1.0000 0.3776457291
Cu  Cu15      1.0  0.18340  0.48860  0.73960  1.0000 0.3576021623
Cu  Cu16      1.0  0.81660  0.98860  0.26040  1.0000 0.3547162246
C   C1        1.0  0.06600  0.41300  0.89200  1.0000 0.28069265
C   C2        1.0  0.93400  0.91300  0.10800  1.0000 0.28069265
C   C3        1.0  0.50200  0.14400  0.09400  1.0000 0.291836841
C   C4        1.0  0.49800  0.64400  0.90600  1.0000 0.291836841
C   C5        1.0  0.99900  0.17920  0.40300  1.0000 0.3061459493
C   C6        1.0  0.00100  0.67920  0.59700  1.0000 0.3061459493
C   C7        1.0  0.42500  0.42100  0.40700  1.0000 0.2576648388
C   C8        1.0  0.57500  0.92100  0.59300  1.0000 0.2576648388
S   S1        1.0  0.46900  0.37840  0.31620  1.0000 -0.0715291668
S   S2        1.0  0.53100  0.87840  0.68380  1.0000 -0.0715291668
S   S3        1.0  0.42990  0.18220  0.00520  1.0000 -0.1427982617
S   S4        1.0  0.57010  0.68220  0.99480  1.0000 -0.1427982617
S   S5        1.0  0.92600  0.14650  0.48790  1.0000 -0.0589799937
S   S6        1.0  0.07400  0.64650  0.51210  1.0000 -0.0589799937
S   S7        1.0  0.00810  0.37150  0.97940  1.0000 -0.1022384745
S   S8        1.0  0.99190  0.87150  0.02060  1.0000 -0.1022384745
I   I1        1.0  0.12090  0.35620  0.28280  1.0000 -0.2822867353
I   I2        1.0  0.87910  0.85620  0.71720  1.0000 -0.2822867353
I   I3        1.0  0.10320  0.21550  0.05310  1.0000 -0.311494248
I   I4        1.0  0.89680  0.71550  0.94690  1.0000 -0.3026564289
I   I5        1.0  0.36600  0.22640  0.31590  1.0000 -0.2822867353
I   I6        1.0  0.63400  0.72640  0.68410  1.0000 -0.2822867353
I   I7        1.0  0.34710  0.33650  0.01830  1.0000 -0.1889460664
I   I8        1.0  0.65290  0.83650  0.98170  1.0000 -0.1889460664
I   I9        1.0  0.38890  0.60030  0.55410  1.0000 -0.3281360139
I   I10       1.0  0.61110  0.10030  0.44590  1.0000 -0.3281360139
I   I11       1.0  0.13900  0.58720  0.81990  1.0000 -0.311494248
I   I12       1.0  0.86100  0.08720  0.18010  1.0000 -0.3155145217
I   I13       1.0  0.11460  0.48490  0.52840  1.0000 -0.311494248
I   I14       1.0  0.88540  0.98490  0.47160  1.0000 -0.311494248
I   I15       1.0  0.40170  0.46350  0.77650  1.0000 -0.4010414798
I   I16       1.0  0.59830  0.96350  0.22350  1.0000 -0.4010414798
N   N1        1.0  0.10900  0.43750  0.82900  1.0000 -0.1986860204
N   N2        1.0  0.89100  0.93750  0.17100  1.0000 -0.1986860204
N   N3        1.0  0.55400  0.11560  0.15200  1.0000 -0.2188571785
N   N4        1.0  0.44600  0.61560  0.84800  1.0000 -0.2188571785
N   N5        1.0  0.05400  0.20700  0.34700  1.0000 -0.311494248
N   N6        1.0  0.94600  0.70700  0.65300  1.0000 -0.311494248
N   N7        1.0  0.39800  0.44900  0.47000  1.0000 -0.1889460664
N   N8        1.0  0.60200  0.94900  0.53000  1.0000 -0.1889460664
