# DDEC6 charges by PACMAN v1.1 (https://github.com/mtap-research/PACMAN-charge/)
data_2004[Cr][flu]3[ASR]1
_chemical_formula_sum              "Cr24 H96 C192 O104"
_cell_length_a       28.3903
_cell_length_b       28.3903
_cell_length_c       28.3903
_cell_angle_alpha    60
_cell_angle_beta     60
_cell_angle_gamma    60

_symmetry_space_group_name_H-M    "P 1"
_symmetry_Int_Tables_number       1

loop_
  _symmetry_equiv_pos_as_xyz
  'x, y, z'

loop_
  _atom_site_type_symbol
  _atom_site_label
  _atom_site_symmetry_multiplicity
  _atom_site_fract_x
  _atom_site_fract_y
  _atom_site_fract_z
  _atom_site_occupancy
  _atom_site_charge
Cr  Cr1       1.0  0.81128  0.44820  0.81128  1.0000 1.6268548069
Cr  Cr2       1.0  0.07076  0.18872  0.18872  1.0000 1.6268548069
Cr  Cr3       1.0  0.92924  0.81128  0.44820  1.0000 1.6268548069
Cr  Cr4       1.0  0.81128  0.81128  0.44820  1.0000 1.6268548069
Cr  Cr5       1.0  0.44820  0.81128  0.92924  1.0000 1.6268548069
Cr  Cr6       1.0  0.18872  0.55180  0.07076  1.0000 1.6268548069
Cr  Cr7       1.0  0.07076  0.55180  0.18872  1.0000 1.6268548069
Cr  Cr8       1.0  0.18872  0.07076  0.55180  1.0000 1.6268548069
Cr  Cr9       1.0  0.81128  0.92924  0.81128  1.0000 1.6268548069
Cr  Cr10      1.0  0.81128  0.81128  0.92924  1.0000 1.6268548069
Cr  Cr11      1.0  0.55180  0.18872  0.18872  1.0000 1.6268548069
Cr  Cr12      1.0  0.55180  0.07076  0.18872  1.0000 1.6268548069
Cr  Cr13      1.0  0.92924  0.44820  0.81128  1.0000 1.6268548069
Cr  Cr14      1.0  0.18872  0.18872  0.55180  1.0000 1.6268548069
Cr  Cr15      1.0  0.44820  0.92924  0.81128  1.0000 1.6268548069
Cr  Cr16      1.0  0.18872  0.18872  0.07076  1.0000 1.6268548069
Cr  Cr17      1.0  0.44820  0.81128  0.81128  1.0000 1.6268548069
Cr  Cr18      1.0  0.18872  0.07076  0.18872  1.0000 1.6268548069
Cr  Cr19      1.0  0.07076  0.18872  0.55180  1.0000 1.6268548069
Cr  Cr20      1.0  0.55180  0.18872  0.07076  1.0000 1.6268548069
Cr  Cr21      1.0  0.92924  0.81128  0.81128  1.0000 1.6268548069
Cr  Cr22      1.0  0.18872  0.55180  0.18872  1.0000 1.6268548069
Cr  Cr23      1.0  0.81128  0.92924  0.44820  1.0000 1.6268548069
Cr  Cr24      1.0  0.81128  0.44820  0.92924  1.0000 1.6268548069
H   H1        1.0  0.89097  0.32349  0.73939  1.0000 0.0880237743
H   H2        1.0  0.95385  0.26061  0.10903  1.0000 0.0880237743
H   H3        1.0  0.04615  0.73939  0.32349  1.0000 0.0880237743
H   H4        1.0  0.73939  0.89097  0.32349  1.0000 0.0880237743
H   H5        1.0  0.32349  0.89097  0.04615  1.0000 0.0880237743
H   H6        1.0  0.10903  0.67651  0.95385  1.0000 0.0880237743
H   H7        1.0  0.95385  0.67651  0.26061  1.0000 0.0880237743
H   H8        1.0  0.26061  0.95385  0.67651  1.0000 0.0880237743
H   H9        1.0  0.73939  0.04615  0.89097  1.0000 0.0880237743
H   H10       1.0  0.89097  0.73939  0.04615  1.0000 0.0880237743
H   H11       1.0  0.67651  0.10903  0.26061  1.0000 0.0880237743
H   H12       1.0  0.67651  0.95385  0.10903  1.0000 0.0880237743
H   H13       1.0  0.04615  0.32349  0.89097  1.0000 0.0880237743
H   H14       1.0  0.10903  0.26061  0.67651  1.0000 0.0880237743
H   H15       1.0  0.32349  0.04615  0.73939  1.0000 0.0880237743
H   H16       1.0  0.26061  0.10903  0.95385  1.0000 0.0880237743
H   H17       1.0  0.32349  0.73939  0.89097  1.0000 0.0880237743
H   H18       1.0  0.10903  0.95385  0.26061  1.0000 0.0880237743
H   H19       1.0  0.95385  0.10903  0.67651  1.0000 0.0880237743
H   H20       1.0  0.67651  0.26061  0.95385  1.0000 0.0880237743
H   H21       1.0  0.04615  0.89097  0.73939  1.0000 0.0880237743
H   H22       1.0  0.26061  0.67651  0.10903  1.0000 0.0880237743
H   H23       1.0  0.89097  0.04615  0.32349  1.0000 0.0880237743
H   H24       1.0  0.73939  0.32349  0.04615  1.0000 0.0880237743
H   H25       1.0  0.10903  0.67651  0.26061  1.0000 0.0880237743
H   H26       1.0  0.04615  0.73939  0.89097  1.0000 0.0880237743
H   H27       1.0  0.95385  0.26061  0.67651  1.0000 0.0880237743
H   H28       1.0  0.26061  0.10903  0.67651  1.0000 0.0880237743
H   H29       1.0  0.67651  0.10903  0.95385  1.0000 0.0880237743
H   H30       1.0  0.89097  0.32349  0.04615  1.0000 0.0880237743
H   H31       1.0  0.04615  0.32349  0.73939  1.0000 0.0880237743
H   H32       1.0  0.73939  0.04615  0.32349  1.0000 0.0880237743
H   H33       1.0  0.26061  0.95385  0.10903  1.0000 0.0880237743
H   H34       1.0  0.10903  0.26061  0.95385  1.0000 0.0880237743
H   H35       1.0  0.32349  0.89097  0.73939  1.0000 0.0880237743
H   H36       1.0  0.32349  0.04615  0.89097  1.0000 0.0880237743
H   H37       1.0  0.95385  0.67651  0.10903  1.0000 0.0880237743
H   H38       1.0  0.89097  0.73939  0.32349  1.0000 0.0880237743
H   H39       1.0  0.67651  0.95385  0.26061  1.0000 0.0880237743
H   H40       1.0  0.73939  0.89097  0.04615  1.0000 0.0880237743
H   H41       1.0  0.67651  0.26061  0.10903  1.0000 0.0880237743
H   H42       1.0  0.89097  0.04615  0.73939  1.0000 0.0880237743
H   H43       1.0  0.04615  0.89097  0.32349  1.0000 0.0880237743
H   H44       1.0  0.32349  0.73939  0.04615  1.0000 0.0880237743
H   H45       1.0  0.95385  0.10903  0.26061  1.0000 0.0880237743
H   H46       1.0  0.73939  0.32349  0.89097  1.0000 0.0880237743
H   H47       1.0  0.10903  0.95385  0.67651  1.0000 0.0880237743
H   H48       1.0  0.26061  0.67651  0.95385  1.0000 0.0880237743
H   H49       1.0  0.66725  0.57833  0.79961  1.0000 0.0880237743
H   H50       1.0  0.04519  0.20039  0.33275  1.0000 0.0880237743
H   H51       1.0  0.95481  0.79961  0.57833  1.0000 0.0880237743
H   H52       1.0  0.79961  0.66725  0.57833  1.0000 0.0880237743
H   H53       1.0  0.57833  0.66725  0.95481  1.0000 0.0880237743
H   H54       1.0  0.33275  0.42167  0.04519  1.0000 0.0880237743
H   H55       1.0  0.04519  0.42167  0.20039  1.0000 0.0880237743
H   H56       1.0  0.20039  0.04519  0.42167  1.0000 0.0880237743
H   H57       1.0  0.79961  0.95481  0.66725  1.0000 0.0880237743
H   H58       1.0  0.66725  0.79961  0.95481  1.0000 0.0880237743
H   H59       1.0  0.42167  0.33275  0.20039  1.0000 0.0880237743
H   H60       1.0  0.42167  0.04519  0.33275  1.0000 0.0880237743
H   H61       1.0  0.95481  0.57833  0.66725  1.0000 0.0880237743
H   H62       1.0  0.33275  0.20039  0.42167  1.0000 0.0880237743
H   H63       1.0  0.57833  0.95481  0.79961  1.0000 0.0880237743
H   H64       1.0  0.20039  0.33275  0.04519  1.0000 0.0880237743
H   H65       1.0  0.57833  0.79961  0.66725  1.0000 0.0880237743
H   H66       1.0  0.33275  0.04519  0.20039  1.0000 0.0880237743
H   H67       1.0  0.04519  0.33275  0.42167  1.0000 0.0880237743
H   H68       1.0  0.42167  0.20039  0.04519  1.0000 0.0880237743
H   H69       1.0  0.95481  0.66725  0.79961  1.0000 0.0880237743
H   H70       1.0  0.20039  0.42167  0.33275  1.0000 0.0880237743
H   H71       1.0  0.66725  0.95481  0.57833  1.0000 0.0880237743
H   H72       1.0  0.79961  0.57833  0.95481  1.0000 0.0880237743
H   H73       1.0  0.33275  0.42167  0.20039  1.0000 0.0880237743
H   H74       1.0  0.95481  0.79961  0.66725  1.0000 0.0880237743
H   H75       1.0  0.04519  0.20039  0.42167  1.0000 0.0880237743
H   H76       1.0  0.20039  0.33275  0.42167  1.0000 0.0880237743
H   H77       1.0  0.42167  0.33275  0.04519  1.0000 0.0880237743
H   H78       1.0  0.66725  0.57833  0.95481  1.0000 0.0880237743
H   H79       1.0  0.95481  0.57833  0.79961  1.0000 0.0880237743
H   H80       1.0  0.79961  0.95481  0.57833  1.0000 0.0880237743
H   H81       1.0  0.20039  0.04519  0.33275  1.0000 0.0880237743
H   H82       1.0  0.33275  0.20039  0.04519  1.0000 0.0880237743
H   H83       1.0  0.57833  0.66725  0.79961  1.0000 0.0880237743
H   H84       1.0  0.57833  0.95481  0.66725  1.0000 0.0880237743
H   H85       1.0  0.04519  0.42167  0.33275  1.0000 0.0880237743
H   H86       1.0  0.66725  0.79961  0.57833  1.0000 0.0880237743
H   H87       1.0  0.42167  0.04519  0.20039  1.0000 0.0880237743
H   H88       1.0  0.79961  0.66725  0.95481  1.0000 0.0880237743
H   H89       1.0  0.42167  0.20039  0.33275  1.0000 0.0880237743
H   H90       1.0  0.66725  0.95481  0.79961  1.0000 0.0880237743
H   H91       1.0  0.95481  0.66725  0.57833  1.0000 0.0880237743
H   H92       1.0  0.57833  0.79961  0.95481  1.0000 0.0880237743
H   H93       1.0  0.04519  0.33275  0.20039  1.0000 0.0880237743
H   H94       1.0  0.79961  0.57833  0.66725  1.0000 0.0880237743
H   H95       1.0  0.33275  0.04519  0.42167  1.0000 0.0880237743
H   H96       1.0  0.20039  0.42167  0.04519  1.0000 0.0880237743
C   C1        1.0  0.92839  0.37165  0.77157  1.0000 0.5976905299
C   C2        1.0  0.07161  0.22843  0.07161  1.0000 0.5976905299
C   C3        1.0  0.92839  0.77157  0.37165  1.0000 0.5976905299
C   C4        1.0  0.77157  0.92839  0.37165  1.0000 0.5976905299
C   C5        1.0  0.37165  0.92839  0.92839  1.0000 0.5976905299
C   C6        1.0  0.07161  0.62835  0.07161  1.0000 0.5976905299
C   C7        1.0  0.07161  0.62835  0.22843  1.0000 0.5976905299
C   C8        1.0  0.22843  0.07161  0.62835  1.0000 0.5976905299
C   C9        1.0  0.77157  0.92839  0.92839  1.0000 0.5976905299
C   C10       1.0  0.92839  0.77157  0.92839  1.0000 0.5976905299
C   C11       1.0  0.62835  0.07161  0.22843  1.0000 0.5976905299
C   C12       1.0  0.62835  0.07161  0.07161  1.0000 0.5976905299
C   C13       1.0  0.92839  0.37165  0.92839  1.0000 0.5976905299
C   C14       1.0  0.07161  0.22843  0.62835  1.0000 0.5976905299
C   C15       1.0  0.37165  0.92839  0.77157  1.0000 0.5976905299
C   C16       1.0  0.22843  0.07161  0.07161  1.0000 0.5976905299
C   C17       1.0  0.37165  0.77157  0.92839  1.0000 0.5976905299
C   C18       1.0  0.07161  0.07161  0.22843  1.0000 0.5976905299
C   C19       1.0  0.07161  0.07161  0.62835  1.0000 0.5976905299
C   C20       1.0  0.62835  0.22843  0.07161  1.0000 0.5976905299
C   C21       1.0  0.92839  0.92839  0.77157  1.0000 0.5976905299
C   C22       1.0  0.22843  0.62835  0.07161  1.0000 0.5976905299
C   C23       1.0  0.92839  0.92839  0.37165  1.0000 0.5976905299
C   C24       1.0  0.77157  0.37165  0.92839  1.0000 0.5976905299
C   C25       1.0  0.96487  0.32837  0.74189  1.0000 -0.0729755482
C   C26       1.0  0.03513  0.25811  0.03513  1.0000 -0.0729755482
C   C27       1.0  0.96487  0.74189  0.32837  1.0000 -0.0729755482
C   C28       1.0  0.74189  0.96487  0.32837  1.0000 -0.0729755482
C   C29       1.0  0.32837  0.96487  0.96487  1.0000 -0.0729755482
C   C30       1.0  0.03513  0.67163  0.03513  1.0000 -0.0729755482
C   C31       1.0  0.03513  0.67163  0.25811  1.0000 -0.0729755482
C   C32       1.0  0.25811  0.03513  0.67163  1.0000 -0.0729755482
C   C33       1.0  0.74189  0.96487  0.96487  1.0000 -0.0729755482
C   C34       1.0  0.96487  0.74189  0.96487  1.0000 -0.0729755482
C   C35       1.0  0.67163  0.03513  0.25811  1.0000 -0.0729755482
C   C36       1.0  0.67163  0.03513  0.03513  1.0000 -0.0729755482
C   C37       1.0  0.96487  0.32837  0.96487  1.0000 -0.0729755482
C   C38       1.0  0.03513  0.25811  0.67163  1.0000 -0.0729755482
C   C39       1.0  0.32837  0.96487  0.74189  1.0000 -0.0729755482
C   C40       1.0  0.25811  0.03513  0.03513  1.0000 -0.0729755482
C   C41       1.0  0.32837  0.74189  0.96487  1.0000 -0.0729755482
C   C42       1.0  0.03513  0.03513  0.25811  1.0000 -0.0729755482
C   C43       1.0  0.03513  0.03513  0.67163  1.0000 -0.0729755482
C   C44       1.0  0.67163  0.25811  0.03513  1.0000 -0.0729755482
C   C45       1.0  0.96487  0.96487  0.74189  1.0000 -0.0729755482
C   C46       1.0  0.25811  0.67163  0.03513  1.0000 -0.0729755482
C   C47       1.0  0.96487  0.96487  0.32837  1.0000 -0.0729755482
C   C48       1.0  0.74189  0.32837  0.96487  1.0000 -0.0729755482
C   C49       1.0  0.72651  0.52319  0.87515  1.0000 0.520563704
C   C50       1.0  0.12485  0.12485  0.27349  1.0000 0.520563704
C   C51       1.0  0.87515  0.87515  0.52319  1.0000 0.520563704
C   C52       1.0  0.87515  0.72651  0.52319  1.0000 0.520563704
C   C53       1.0  0.52319  0.72651  0.87515  1.0000 0.520563704
C   C54       1.0  0.27349  0.47681  0.12485  1.0000 0.520563704
C   C55       1.0  0.12485  0.47681  0.12485  1.0000 0.520563704
C   C56       1.0  0.12485  0.12485  0.47681  1.0000 0.520563704
C   C57       1.0  0.87515  0.87515  0.72651  1.0000 0.520563704
C   C58       1.0  0.72651  0.87515  0.87515  1.0000 0.520563704
C   C59       1.0  0.47681  0.27349  0.12485  1.0000 0.520563704
C   C60       1.0  0.47681  0.12485  0.27349  1.0000 0.520563704
C   C61       1.0  0.87515  0.52319  0.72651  1.0000 0.520563704
C   C62       1.0  0.27349  0.12485  0.47681  1.0000 0.520563704
C   C63       1.0  0.52319  0.87515  0.87515  1.0000 0.520563704
C   C64       1.0  0.12485  0.27349  0.12485  1.0000 0.520563704
C   C65       1.0  0.52319  0.87515  0.72651  1.0000 0.520563704
C   C66       1.0  0.27349  0.12485  0.12485  1.0000 0.520563704
C   C67       1.0  0.12485  0.27349  0.47681  1.0000 0.520563704
C   C68       1.0  0.47681  0.12485  0.12485  1.0000 0.520563704
C   C69       1.0  0.87515  0.72651  0.87515  1.0000 0.520563704
C   C70       1.0  0.12485  0.47681  0.27349  1.0000 0.520563704
C   C71       1.0  0.72651  0.87515  0.52319  1.0000 0.520563704
C   C72       1.0  0.87515  0.52319  0.87515  1.0000 0.520563704
C   C73       1.0  0.67275  0.57335  0.87695  1.0000 -0.0550751906
C   C74       1.0  0.12305  0.12305  0.32725  1.0000 -0.0542069452
C   C75       1.0  0.87695  0.87695  0.57335  1.0000 -0.0550751906
C   C76       1.0  0.87695  0.67275  0.57335  1.0000 -0.0550751906
C   C77       1.0  0.57335  0.67275  0.87695  1.0000 -0.0550751906
C   C78       1.0  0.32725  0.42665  0.12305  1.0000 -0.0550751906
C   C79       1.0  0.12305  0.42665  0.12305  1.0000 -0.0550751906
C   C80       1.0  0.12305  0.12305  0.42665  1.0000 -0.0550751906
C   C81       1.0  0.87695  0.87695  0.67275  1.0000 -0.0550751906
C   C82       1.0  0.67275  0.87695  0.87695  1.0000 -0.0550751906
C   C83       1.0  0.42665  0.32725  0.12305  1.0000 -0.0550751906
C   C84       1.0  0.42665  0.12305  0.32725  1.0000 -0.0542069452
C   C85       1.0  0.87695  0.57335  0.67275  1.0000 -0.0550751906
C   C86       1.0  0.32725  0.12305  0.42665  1.0000 -0.0542069452
C   C87       1.0  0.57335  0.87695  0.87695  1.0000 -0.0550751906
C   C88       1.0  0.12305  0.32725  0.12305  1.0000 -0.0550751906
C   C89       1.0  0.57335  0.87695  0.67275  1.0000 -0.0550751906
C   C90       1.0  0.32725  0.12305  0.12305  1.0000 -0.0542069452
C   C91       1.0  0.12305  0.32725  0.42665  1.0000 -0.0542069452
C   C92       1.0  0.42665  0.12305  0.12305  1.0000 -0.0550751906
C   C93       1.0  0.87695  0.67275  0.87695  1.0000 -0.0550751906
C   C94       1.0  0.12305  0.42665  0.32725  1.0000 -0.0550751906
C   C95       1.0  0.67275  0.87695  0.57335  1.0000 -0.0550751906
C   C96       1.0  0.87695  0.57335  0.87695  1.0000 -0.0550751906
C   C97       1.0  0.93996  0.31000  0.72484  1.0000 -0.1011761111
C   C98       1.0  0.97480  0.27516  0.06004  1.0000 -0.1011761111
C   C99       1.0  0.02520  0.72484  0.31000  1.0000 -0.1011761111
C   C100      1.0  0.72484  0.93996  0.31000  1.0000 -0.1011761111
C   C101      1.0  0.31000  0.93996  0.02520  1.0000 -0.1011761111
C   C102      1.0  0.06004  0.69000  0.97480  1.0000 -0.1011761111
C   C103      1.0  0.97480  0.69000  0.27516  1.0000 -0.1011761111
C   C104      1.0  0.27516  0.97480  0.69000  1.0000 -0.1011761111
C   C105      1.0  0.72484  0.02520  0.93996  1.0000 -0.1011761111
C   C106      1.0  0.93996  0.72484  0.02520  1.0000 -0.1011761111
C   C107      1.0  0.69000  0.06004  0.27516  1.0000 -0.1011761111
C   C108      1.0  0.69000  0.97480  0.06004  1.0000 -0.1011761111
C   C109      1.0  0.02520  0.31000  0.93996  1.0000 -0.1011761111
C   C110      1.0  0.06004  0.27516  0.69000  1.0000 -0.1011761111
C   C111      1.0  0.31000  0.02520  0.72484  1.0000 -0.1011761111
C   C112      1.0  0.27516  0.06004  0.97480  1.0000 -0.1011761111
C   C113      1.0  0.31000  0.72484  0.93996  1.0000 -0.1011761111
C   C114      1.0  0.06004  0.97480  0.27516  1.0000 -0.1011761111
C   C115      1.0  0.97480  0.06004  0.69000  1.0000 -0.1011761111
C   C116      1.0  0.69000  0.27516  0.97480  1.0000 -0.1011761111
C   C117      1.0  0.02520  0.93996  0.72484  1.0000 -0.1011761111
C   C118      1.0  0.27516  0.69000  0.06004  1.0000 -0.1011761111
C   C119      1.0  0.93996  0.02520  0.31000  1.0000 -0.1011761111
C   C120      1.0  0.72484  0.31000  0.02520  1.0000 -0.1011761111
C   C121      1.0  0.06004  0.69000  0.27516  1.0000 -0.1011761111
C   C122      1.0  0.02520  0.72484  0.93996  1.0000 -0.1011761111
C   C123      1.0  0.97480  0.27516  0.69000  1.0000 -0.1011761111
C   C124      1.0  0.27516  0.06004  0.69000  1.0000 -0.1011761111
C   C125      1.0  0.69000  0.06004  0.97480  1.0000 -0.1011761111
C   C126      1.0  0.93996  0.31000  0.02520  1.0000 -0.1011761111
C   C127      1.0  0.02520  0.31000  0.72484  1.0000 -0.1011761111
C   C128      1.0  0.72484  0.02520  0.31000  1.0000 -0.1011761111
C   C129      1.0  0.27516  0.97480  0.06004  1.0000 -0.1011761111
C   C130      1.0  0.06004  0.27516  0.97480  1.0000 -0.1011761111
C   C131      1.0  0.31000  0.93996  0.72484  1.0000 -0.1011761111
C   C132      1.0  0.31000  0.02520  0.93996  1.0000 -0.1011761111
C   C133      1.0  0.97480  0.69000  0.06004  1.0000 -0.1011761111
C   C134      1.0  0.93996  0.72484  0.31000  1.0000 -0.1011761111
C   C135      1.0  0.69000  0.97480  0.27516  1.0000 -0.1011761111
C   C136      1.0  0.72484  0.93996  0.02520  1.0000 -0.1011761111
C   C137      1.0  0.69000  0.27516  0.06004  1.0000 -0.1011761111
C   C138      1.0  0.93996  0.02520  0.72484  1.0000 -0.1011761111
C   C139      1.0  0.02520  0.93996  0.31000  1.0000 -0.1011761111
C   C140      1.0  0.31000  0.72484  0.02520  1.0000 -0.1011761111
C   C141      1.0  0.97480  0.06004  0.27516  1.0000 -0.1011761111
C   C142      1.0  0.72484  0.31000  0.93996  1.0000 -0.1011761111
C   C143      1.0  0.06004  0.97480  0.69000  1.0000 -0.1011761111
C   C144      1.0  0.27516  0.69000  0.97480  1.0000 -0.1011761111
C   C145      1.0  0.64754  0.59828  0.83446  1.0000 -0.0947300693
C   C146      1.0  0.08028  0.16554  0.35246  1.0000 -0.0947300693
C   C147      1.0  0.91972  0.83446  0.59828  1.0000 -0.0947300693
C   C148      1.0  0.83446  0.64754  0.59828  1.0000 -0.0947300693
C   C149      1.0  0.59828  0.64754  0.91972  1.0000 -0.0947300693
C   C150      1.0  0.35246  0.40172  0.08028  1.0000 -0.0947300693
C   C151      1.0  0.08028  0.40172  0.16554  1.0000 -0.0947300693
C   C152      1.0  0.16554  0.08028  0.40172  1.0000 -0.1011761111
C   C153      1.0  0.83446  0.91972  0.64754  1.0000 -0.0947300693
C   C154      1.0  0.64754  0.83446  0.91972  1.0000 -0.0947300693
C   C155      1.0  0.40172  0.35246  0.16554  1.0000 -0.0947300693
C   C156      1.0  0.40172  0.08028  0.35246  1.0000 -0.0947300693
C   C157      1.0  0.91972  0.59828  0.64754  1.0000 -0.0947300693
C   C158      1.0  0.35246  0.16554  0.40172  1.0000 -0.0947300693
C   C159      1.0  0.59828  0.91972  0.83446  1.0000 -0.0947300693
C   C160      1.0  0.16554  0.35246  0.08028  1.0000 -0.0947300693
C   C161      1.0  0.59828  0.83446  0.64754  1.0000 -0.0947300693
C   C162      1.0  0.35246  0.08028  0.16554  1.0000 -0.0947300693
C   C163      1.0  0.08028  0.35246  0.40172  1.0000 -0.0947300693
C   C164      1.0  0.40172  0.16554  0.08028  1.0000 -0.0947300693
C   C165      1.0  0.91972  0.64754  0.83446  1.0000 -0.0947300693
C   C166      1.0  0.16554  0.40172  0.35246  1.0000 -0.0947300693
C   C167      1.0  0.64754  0.91972  0.59828  1.0000 -0.0947300693
C   C168      1.0  0.83446  0.59828  0.91972  1.0000 -0.0947300693
C   C169      1.0  0.35246  0.40172  0.16554  1.0000 -0.0947300693
C   C170      1.0  0.91972  0.83446  0.64754  1.0000 -0.0947300693
C   C171      1.0  0.08028  0.16554  0.40172  1.0000 -0.1011761111
C   C172      1.0  0.16554  0.35246  0.40172  1.0000 -0.0947300693
C   C173      1.0  0.40172  0.35246  0.08028  1.0000 -0.0947300693
C   C174      1.0  0.64754  0.59828  0.91972  1.0000 -0.0947300693
C   C175      1.0  0.91972  0.59828  0.83446  1.0000 -0.1011761111
C   C176      1.0  0.83446  0.91972  0.59828  1.0000 -0.0947300693
C   C177      1.0  0.16554  0.08028  0.35246  1.0000 -0.0947300693
C   C178      1.0  0.35246  0.16554  0.08028  1.0000 -0.0947300693
C   C179      1.0  0.59828  0.64754  0.83446  1.0000 -0.0947300693
C   C180      1.0  0.59828  0.91972  0.64754  1.0000 -0.0947300693
C   C181      1.0  0.08028  0.40172  0.35246  1.0000 -0.0947300693
C   C182      1.0  0.64754  0.83446  0.59828  1.0000 -0.0947300693
C   C183      1.0  0.40172  0.08028  0.16554  1.0000 -0.0947300693
C   C184      1.0  0.83446  0.64754  0.91972  1.0000 -0.0947300693
C   C185      1.0  0.40172  0.16554  0.35246  1.0000 -0.0947300693
C   C186      1.0  0.64754  0.91972  0.83446  1.0000 -0.0947300693
C   C187      1.0  0.91972  0.64754  0.59828  1.0000 -0.0947300693
C   C188      1.0  0.59828  0.83446  0.91972  1.0000 -0.0947300693
C   C189      1.0  0.08028  0.35246  0.16554  1.0000 -0.0947300693
C   C190      1.0  0.83446  0.59828  0.64754  1.0000 -0.0947300693
C   C191      1.0  0.35246  0.08028  0.40172  1.0000 -0.1011761111
C   C192      1.0  0.16554  0.40172  0.08028  1.0000 -0.0947300693
O   O1        1.0  0.85102  0.44694  0.85102  1.0000 -1.1219593991
O   O2        1.0  0.14898  0.14898  0.14898  1.0000 -1.1219593991
O   O3        1.0  0.85102  0.85102  0.44694  1.0000 -1.1219593991
O   O4        1.0  0.44694  0.85102  0.85102  1.0000 -1.1255203339
O   O5        1.0  0.14898  0.55306  0.14898  1.0000 -1.1219593991
O   O6        1.0  0.14898  0.14898  0.55306  1.0000 -1.1219593991
O   O7        1.0  0.85102  0.85102  0.85102  1.0000 -1.1219593991
O   O8        1.0  0.55306  0.14898  0.14898  1.0000 -1.1219593991
O   O9        1.0  0.74842  0.50326  0.83466  1.0000 -0.5228621975
O   O10       1.0  0.08634  0.16534  0.25158  1.0000 -0.5228621975
O   O11       1.0  0.91366  0.83466  0.50326  1.0000 -0.5228621975
O   O12       1.0  0.83466  0.74842  0.50326  1.0000 -0.5228621975
O   O13       1.0  0.50326  0.74842  0.91366  1.0000 -0.5228621975
O   O14       1.0  0.25158  0.49674  0.08634  1.0000 -0.5228621975
O   O15       1.0  0.08634  0.49674  0.16534  1.0000 -0.5228621975
O   O16       1.0  0.16534  0.08634  0.49674  1.0000 -0.5228621975
O   O17       1.0  0.83466  0.91366  0.74842  1.0000 -0.5228621975
O   O18       1.0  0.74842  0.83466  0.91366  1.0000 -0.5228621975
O   O19       1.0  0.49674  0.25158  0.16534  1.0000 -0.5228621975
O   O20       1.0  0.49674  0.08634  0.25158  1.0000 -0.5228621975
O   O21       1.0  0.91366  0.50326  0.74842  1.0000 -0.5228621975
O   O22       1.0  0.25158  0.16534  0.49674  1.0000 -0.5228621975
O   O23       1.0  0.50326  0.91366  0.83466  1.0000 -0.5228621975
O   O24       1.0  0.16534  0.25158  0.08634  1.0000 -0.5228621975
O   O25       1.0  0.50326  0.83466  0.74842  1.0000 -0.5228621975
O   O26       1.0  0.25158  0.08634  0.16534  1.0000 -0.5228621975
O   O27       1.0  0.08634  0.25158  0.49674  1.0000 -0.5228621975
O   O28       1.0  0.49674  0.16534  0.08634  1.0000 -0.5228621975
O   O29       1.0  0.91366  0.74842  0.83466  1.0000 -0.5228621975
O   O30       1.0  0.16534  0.49674  0.25158  1.0000 -0.5228621975
O   O31       1.0  0.74842  0.91366  0.50326  1.0000 -0.5228621975
O   O32       1.0  0.83466  0.50326  0.91366  1.0000 -0.5228621975
O   O33       1.0  0.25158  0.49674  0.16534  1.0000 -0.5228621975
O   O34       1.0  0.91366  0.83466  0.74842  1.0000 -0.5228621975
O   O35       1.0  0.08634  0.16534  0.49674  1.0000 -0.5228621975
O   O36       1.0  0.16534  0.25158  0.49674  1.0000 -0.5228621975
O   O37       1.0  0.49674  0.25158  0.08634  1.0000 -0.5228621975
O   O38       1.0  0.74842  0.50326  0.91366  1.0000 -0.5228621975
O   O39       1.0  0.91366  0.50326  0.83466  1.0000 -0.5228621975
O   O40       1.0  0.83466  0.91366  0.50326  1.0000 -0.5228621975
O   O41       1.0  0.16534  0.08634  0.25158  1.0000 -0.5228621975
O   O42       1.0  0.25158  0.16534  0.08634  1.0000 -0.5228621975
O   O43       1.0  0.50326  0.74842  0.83466  1.0000 -0.5228621975
O   O44       1.0  0.50326  0.91366  0.74842  1.0000 -0.5228621975
O   O45       1.0  0.08634  0.49674  0.25158  1.0000 -0.5228621975
O   O46       1.0  0.74842  0.83466  0.50326  1.0000 -0.5228621975
O   O47       1.0  0.49674  0.08634  0.16534  1.0000 -0.5228621975
O   O48       1.0  0.83466  0.74842  0.91366  1.0000 -0.5228621975
O   O49       1.0  0.49674  0.16534  0.25158  1.0000 -0.5228621975
O   O50       1.0  0.74842  0.91366  0.83466  1.0000 -0.5228621975
O   O51       1.0  0.91366  0.74842  0.50326  1.0000 -0.5228621975
O   O52       1.0  0.50326  0.83466  0.91366  1.0000 -0.5228621975
O   O53       1.0  0.08634  0.25158  0.16534  1.0000 -0.5228621975
O   O54       1.0  0.83466  0.50326  0.74842  1.0000 -0.5228621975
O   O55       1.0  0.25158  0.08634  0.49674  1.0000 -0.5228621975
O   O56       1.0  0.16534  0.49674  0.08634  1.0000 -0.5228621975
O   O57       1.0  0.87430  0.39028  0.78240  1.0000 -0.5782941744
O   O58       1.0  0.04698  0.21760  0.12570  1.0000 -0.5782941744
O   O59       1.0  0.95302  0.78240  0.39028  1.0000 -0.5782941744
O   O60       1.0  0.78240  0.87430  0.39028  1.0000 -0.5782941744
O   O61       1.0  0.39028  0.87430  0.95302  1.0000 -0.5782941744
O   O62       1.0  0.12570  0.60972  0.04698  1.0000 -0.5782941744
O   O63       1.0  0.04698  0.60972  0.21760  1.0000 -0.5782941744
O   O64       1.0  0.21760  0.04698  0.60972  1.0000 -0.5782941744
O   O65       1.0  0.78240  0.95302  0.87430  1.0000 -0.5782941744
O   O66       1.0  0.87430  0.78240  0.95302  1.0000 -0.5782941744
O   O67       1.0  0.60972  0.12570  0.21760  1.0000 -0.5782941744
O   O68       1.0  0.60972  0.04698  0.12570  1.0000 -0.5782941744
O   O69       1.0  0.95302  0.39028  0.87430  1.0000 -0.5782941744
O   O70       1.0  0.12570  0.21760  0.60972  1.0000 -0.5782941744
O   O71       1.0  0.39028  0.95302  0.78240  1.0000 -0.5782941744
O   O72       1.0  0.21760  0.12570  0.04698  1.0000 -0.5782941744
O   O73       1.0  0.39028  0.78240  0.87430  1.0000 -0.5782941744
O   O74       1.0  0.12570  0.04698  0.21760  1.0000 -0.5782941744
O   O75       1.0  0.04698  0.12570  0.60972  1.0000 -0.5782941744
O   O76       1.0  0.60972  0.21760  0.04698  1.0000 -0.5782941744
O   O77       1.0  0.95302  0.87430  0.78240  1.0000 -0.5782941744
O   O78       1.0  0.21760  0.60972  0.12570  1.0000 -0.5782941744
O   O79       1.0  0.87430  0.95302  0.39028  1.0000 -0.5782941744
O   O80       1.0  0.78240  0.39028  0.95302  1.0000 -0.5782941744
O   O81       1.0  0.12570  0.60972  0.21760  1.0000 -0.5782941744
O   O82       1.0  0.95302  0.78240  0.87430  1.0000 -0.5782941744
O   O83       1.0  0.04698  0.21760  0.60972  1.0000 -0.5782941744
O   O84       1.0  0.21760  0.12570  0.60972  1.0000 -0.5782941744
O   O85       1.0  0.60972  0.12570  0.04698  1.0000 -0.5782941744
O   O86       1.0  0.87430  0.39028  0.95302  1.0000 -0.5782941744
O   O87       1.0  0.95302  0.39028  0.78240  1.0000 -0.5782941744
O   O88       1.0  0.78240  0.95302  0.39028  1.0000 -0.5782941744
O   O89       1.0  0.21760  0.04698  0.12570  1.0000 -0.5782941744
O   O90       1.0  0.12570  0.21760  0.04698  1.0000 -0.5782941744
O   O91       1.0  0.39028  0.87430  0.78240  1.0000 -0.5782941744
O   O92       1.0  0.39028  0.95302  0.87430  1.0000 -0.5782941744
O   O93       1.0  0.04698  0.60972  0.12570  1.0000 -0.5782941744
O   O94       1.0  0.87430  0.78240  0.39028  1.0000 -0.5782941744
O   O95       1.0  0.60972  0.04698  0.21760  1.0000 -0.5782941744
O   O96       1.0  0.78240  0.87430  0.95302  1.0000 -0.5782941744
O   O97       1.0  0.60972  0.21760  0.12570  1.0000 -0.5782941744
O   O98       1.0  0.87430  0.95302  0.78240  1.0000 -0.5782941744
O   O99       1.0  0.95302  0.87430  0.39028  1.0000 -0.5782941744
O   O100      1.0  0.39028  0.78240  0.95302  1.0000 -0.5782941744
O   O101      1.0  0.04698  0.12570  0.21760  1.0000 -0.5782941744
O   O102      1.0  0.78240  0.39028  0.87430  1.0000 -0.5782941744
O   O103      1.0  0.12570  0.04698  0.60972  1.0000 -0.5782941744
O   O104      1.0  0.21760  0.60972  0.04698  1.0000 -0.5782941744
