# DDEC6 charges by PACMAN v1.1 (https://github.com/mtap-research/PACMAN-charge/)
data_2004[Zn][nan]3[ASR]1
_chemical_formula_sum              "Zn10 P8 H56 C56 N12 O32"
_cell_length_a       14.3635
_cell_length_b       12.0029
_cell_length_c       16.9974
_cell_angle_alpha    90
_cell_angle_beta     113.381
_cell_angle_gamma    90

_symmetry_space_group_name_H-M    "P 1"
_symmetry_Int_Tables_number       1

loop_
  _symmetry_equiv_pos_as_xyz
  'x, y, z'

loop_
  _atom_site_type_symbol
  _atom_site_label
  _atom_site_symmetry_multiplicity
  _atom_site_fract_x
  _atom_site_fract_y
  _atom_site_fract_z
  _atom_site_occupancy
  _atom_site_charge
Zn  Zn1       1.0  0.10626  0.06050  0.10950  1.0000 0.9641660815
Zn  Zn2       1.0  0.89374  0.93950  0.89050  1.0000 0.9641660815
Zn  Zn3       1.0  0.89374  0.06050  0.39050  1.0000 0.9641660815
Zn  Zn4       1.0  0.10626  0.93950  0.60950  1.0000 0.9641660815
Zn  Zn5       1.0  0.31532  0.92471  0.43195  1.0000 0.8358368044
Zn  Zn6       1.0  0.68468  0.07529  0.56805  1.0000 0.8358368044
Zn  Zn7       1.0  0.68468  0.92471  0.06805  1.0000 0.8358368044
Zn  Zn8       1.0  0.31532  0.07529  0.93195  1.0000 0.8358368044
Zn  Zn9       1.0  0.50000  0.01351  0.25000  1.0000 0.9968253736
Zn  Zn10      1.0  0.50000  0.98649  0.75000  1.0000 0.9968253736
P   P1        1.0  0.11661  0.99005  0.43050  1.0000 1.277931041
P   P2        1.0  0.88339  0.00995  0.56950  1.0000 1.277931041
P   P3        1.0  0.88339  0.99005  0.06950  1.0000 1.277931041
P   P4        1.0  0.11661  0.00995  0.93050  1.0000 1.277931041
P   P5        1.0  0.31445  0.07252  0.28680  1.0000 1.2975341444
P   P6        1.0  0.68555  0.92748  0.71320  1.0000 1.2975341444
P   P7        1.0  0.68555  0.07252  0.21320  1.0000 1.2975341444
P   P8        1.0  0.31445  0.92748  0.78680  1.0000 1.2975341444
H   H1        1.0  0.40661  0.17398  0.41526  1.0000 0.1256073024
H   H2        1.0  0.59339  0.82602  0.58474  1.0000 0.1256073024
H   H3        1.0  0.59339  0.17398  0.08474  1.0000 0.1256073024
H   H4        1.0  0.40661  0.82602  0.91526  1.0000 0.1256073024
H   H5        1.0  0.29161  0.24587  0.35194  1.0000 0.1182086165
H   H6        1.0  0.70839  0.75413  0.64806  1.0000 0.1182086165
H   H7        1.0  0.70839  0.24587  0.14806  1.0000 0.1182086165
H   H8        1.0  0.29161  0.75413  0.85194  1.0000 0.1182086165
H   H9        1.0  0.26128  0.17008  0.54280  1.0000 0.1256073024
H   H10       1.0  0.73872  0.82992  0.45720  1.0000 0.1256073024
H   H11       1.0  0.73872  0.17008  0.95720  1.0000 0.1256073024
H   H12       1.0  0.26128  0.82992  0.04280  1.0000 0.1256073024
H   H13       1.0  0.36631  0.22875  0.52593  1.0000 0.0909996172
H   H14       1.0  0.63369  0.77125  0.47407  1.0000 0.0909996172
H   H15       1.0  0.63369  0.22875  0.97407  1.0000 0.0909996172
H   H16       1.0  0.36631  0.77125  0.02593  1.0000 0.0909996172
H   H17       1.0  0.13955  0.10411  0.32262  1.0000 0.1451527243
H   H18       1.0  0.86045  0.89589  0.67738  1.0000 0.1451527243
H   H19       1.0  0.86045  0.10411  0.17738  1.0000 0.1451527243
H   H20       1.0  0.13955  0.89589  0.82262  1.0000 0.1451527243
H   H21       1.0  0.13531  0.18966  0.40771  1.0000 0.1112731434
H   H22       1.0  0.86469  0.81034  0.59229  1.0000 0.1112731434
H   H23       1.0  0.86469  0.18966  0.09229  1.0000 0.1112731434
H   H24       1.0  0.13531  0.81034  0.90771  1.0000 0.1112731434
H   H25       1.0  0.91610  0.36430  0.89179  1.0000 0.1182086165
H   H26       1.0  0.08390  0.63570  0.10821  1.0000 0.1182086165
H   H27       1.0  0.08390  0.36430  0.60821  1.0000 0.1182086165
H   H28       1.0  0.91610  0.63570  0.39179  1.0000 0.1182086165
H   H29       1.0  0.96398  0.17104  0.94584  1.0000 0.1112731434
H   H30       1.0  0.03602  0.82896  0.05416  1.0000 0.1112731434
H   H31       1.0  0.03602  0.17104  0.55416  1.0000 0.1112731434
H   H32       1.0  0.96398  0.82896  0.44584  1.0000 0.1112731434
H   H33       1.0  0.37392  0.75802  0.57624  1.0000 0.1182086165
H   H34       1.0  0.62608  0.24198  0.42376  1.0000 0.1182086165
H   H35       1.0  0.62608  0.75802  0.92376  1.0000 0.1182086165
H   H36       1.0  0.37392  0.24198  0.07624  1.0000 0.1182086165
H   H37       1.0  0.45223  0.56987  0.61046  1.0000 0.1112731434
H   H38       1.0  0.54777  0.43013  0.38954  1.0000 0.1112731434
H   H39       1.0  0.54777  0.56987  0.88954  1.0000 0.1112731434
H   H40       1.0  0.45223  0.43013  0.11046  1.0000 0.1112731434
H   H41       1.0  0.48944  0.58248  0.36866  1.0000 0.1112731434
H   H42       1.0  0.51056  0.41752  0.63134  1.0000 0.1112731434
H   H43       1.0  0.51056  0.58248  0.13134  1.0000 0.1112731434
H   H44       1.0  0.48944  0.41752  0.86866  1.0000 0.1112731434
H   H45       1.0  0.40592  0.76995  0.34413  1.0000 0.1182086165
H   H46       1.0  0.59408  0.23005  0.65587  1.0000 0.1182086165
H   H47       1.0  0.59408  0.76995  0.15587  1.0000 0.1182086165
H   H48       1.0  0.40592  0.23005  0.84413  1.0000 0.1182086165
H   H49       1.0  0.12191  0.28152  0.19533  1.0000 0.0994717767
H   H50       1.0  0.87809  0.71848  0.80467  1.0000 0.0994717767
H   H51       1.0  0.87809  0.28152  0.30467  1.0000 0.0994717767
H   H52       1.0  0.12191  0.71848  0.69533  1.0000 0.0994717767
H   H53       1.0  0.07910  0.48078  0.15260  1.0000 0.1112731434
H   H54       1.0  0.92090  0.51922  0.84740  1.0000 0.1112731434
H   H55       1.0  0.92090  0.48078  0.34740  1.0000 0.1112731434
H   H56       1.0  0.07910  0.51922  0.65260  1.0000 0.1112731434
C   C1        1.0  0.39055  0.06647  0.58306  1.0000 0.6203654175
C   C2        1.0  0.60945  0.93353  0.41694  1.0000 0.6203654175
C   C3        1.0  0.60945  0.06647  0.91694  1.0000 0.6203654175
C   C4        1.0  0.39055  0.93353  0.08306  1.0000 0.6203654175
C   C5        1.0  0.32483  0.16277  0.37640  1.0000 -0.371842702
C   C6        1.0  0.67517  0.83723  0.62360  1.0000 -0.371842702
C   C7        1.0  0.67517  0.16277  0.12360  1.0000 -0.371842702
C   C8        1.0  0.32483  0.83723  0.87640  1.0000 -0.371842702
C   C9        1.0  0.32155  0.15168  0.51979  1.0000 -0.2182192589
C   C10       1.0  0.67845  0.84832  0.48021  1.0000 -0.2182192589
C   C11       1.0  0.67845  0.15168  0.98021  1.0000 -0.2182192589
C   C12       1.0  0.32155  0.84832  0.01979  1.0000 -0.2182192589
C   C13       1.0  0.16544  0.11094  0.39287  1.0000 -0.371842702
C   C14       1.0  0.83456  0.88906  0.60713  1.0000 -0.371842702
C   C15       1.0  0.83456  0.11094  0.10713  1.0000 -0.371842702
C   C16       1.0  0.16544  0.88906  0.89287  1.0000 -0.371842702
C   C17       1.0  0.07636  0.30510  0.12882  1.0000 0.0994717767
C   C18       1.0  0.92364  0.69490  0.87118  1.0000 0.0994717767
C   C19       1.0  0.92364  0.30510  0.37118  1.0000 0.0994717767
C   C20       1.0  0.07636  0.69490  0.62882  1.0000 0.0994717767
C   C21       1.0  0.05433  0.41597  0.10339  1.0000 -0.1710646311
C   C22       1.0  0.94567  0.58403  0.89661  1.0000 -0.1710646311
C   C23       1.0  0.94567  0.41597  0.39661  1.0000 -0.1710646311
C   C24       1.0  0.05433  0.58403  0.60339  1.0000 -0.1710646311
C   C25       1.0  0.00400  0.44201  0.01565  1.0000 0.1112731434
C   C26       1.0  0.99600  0.55799  0.98435  1.0000 0.1112731434
C   C27       1.0  0.99600  0.44201  0.48435  1.0000 0.1112731434
C   C28       1.0  0.00400  0.55799  0.51565  1.0000 0.1112731434
C   C29       1.0  0.96416  0.35165  0.95968  1.0000 -0.1613086435
C   C30       1.0  0.03584  0.64835  0.04032  1.0000 -0.1613086435
C   C31       1.0  0.03584  0.35165  0.54032  1.0000 -0.1613086435
C   C32       1.0  0.96416  0.64835  0.45968  1.0000 -0.1613086435
C   C33       1.0  0.98861  0.24252  0.98905  1.0000 0.1112731434
C   C34       1.0  0.01139  0.75748  0.01095  1.0000 0.1112731434
C   C35       1.0  0.01139  0.24252  0.51095  1.0000 0.1112731434
C   C36       1.0  0.98861  0.75748  0.48905  1.0000 0.1112731434
C   C37       1.0  0.39823  0.71384  0.53131  1.0000 0.1112731434
C   C38       1.0  0.60177  0.28616  0.46869  1.0000 0.1112731434
C   C39       1.0  0.60177  0.71384  0.96869  1.0000 0.1112731434
C   C40       1.0  0.39823  0.28616  0.03131  1.0000 0.1112731434
C   C41       1.0  0.44310  0.60876  0.54956  1.0000 -0.1710646311
C   C42       1.0  0.55690  0.39124  0.45044  1.0000 -0.1710646311
C   C43       1.0  0.55690  0.60876  0.95044  1.0000 -0.1710646311
C   C44       1.0  0.44310  0.39124  0.04956  1.0000 -0.1710646311
C   C45       1.0  0.47642  0.55589  0.49141  1.0000 0.0994717767
C   C46       1.0  0.52358  0.44411  0.50859  1.0000 0.0994717767
C   C47       1.0  0.52358  0.55589  0.00859  1.0000 0.0994717767
C   C48       1.0  0.47642  0.44411  0.99141  1.0000 0.0994717767
C   C49       1.0  0.46315  0.61557  0.41626  1.0000 -0.1772192876
C   C50       1.0  0.53685  0.38443  0.58374  1.0000 -0.1772192876
C   C51       1.0  0.53685  0.61557  0.08374  1.0000 -0.1772192876
C   C52       1.0  0.46315  0.38443  0.91626  1.0000 -0.1772192876
C   C53       1.0  0.41681  0.72009  0.40113  1.0000 0.0994717767
C   C54       1.0  0.58319  0.27991  0.59887  1.0000 0.0994717767
C   C55       1.0  0.58319  0.72009  0.09887  1.0000 0.0994717767
C   C56       1.0  0.41681  0.27991  0.90113  1.0000 0.0994717767
N   N1        1.0  0.27826  0.11030  0.43103  1.0000 -0.0268334663
N   N2        1.0  0.72174  0.88970  0.56897  1.0000 -0.0268334663
N   N3        1.0  0.72174  0.11030  0.06897  1.0000 -0.0268334663
N   N4        1.0  0.27826  0.88970  0.93103  1.0000 -0.0268334663
N   N5        1.0  0.04804  0.21939  0.07218  1.0000 -0.2666624497
N   N6        1.0  0.95196  0.78061  0.92782  1.0000 -0.2666624497
N   N7        1.0  0.95196  0.21939  0.42782  1.0000 -0.2666624497
N   N8        1.0  0.04804  0.78061  0.57218  1.0000 -0.2666624497
N   N9        1.0  0.38419  0.76887  0.45761  1.0000 -0.2124101642
N   N10       1.0  0.61581  0.23113  0.54239  1.0000 -0.2124101642
N   N11       1.0  0.61581  0.76887  0.04239  1.0000 -0.2124101642
N   N12       1.0  0.38419  0.23113  0.95761  1.0000 -0.2124101642
O   O1        1.0  0.40418  0.97027  0.55795  1.0000 -0.558735394
O   O2        1.0  0.59582  0.02973  0.44205  1.0000 -0.558735394
O   O3        1.0  0.59582  0.97027  0.94205  1.0000 -0.558735394
O   O4        1.0  0.40418  0.02973  0.05795  1.0000 -0.558735394
O   O5        1.0  0.43014  0.10045  0.66047  1.0000 -0.5422638888
O   O6        1.0  0.56986  0.89955  0.33953  1.0000 -0.5422638888
O   O7        1.0  0.56986  0.10045  0.83953  1.0000 -0.5422638888
O   O8        1.0  0.43014  0.89955  0.16047  1.0000 -0.5422638888
O   O9        1.0  0.00300  0.97801  0.37517  1.0000 -0.7383494611
O   O10       1.0  0.99700  0.02199  0.62483  1.0000 -0.7383494611
O   O11       1.0  0.99700  0.97801  0.12483  1.0000 -0.7383494611
O   O12       1.0  0.00300  0.02199  0.87517  1.0000 -0.7383494611
O   O13       1.0  0.17645  0.88866  0.42104  1.0000 -0.7217822755
O   O14       1.0  0.82355  0.11134  0.57896  1.0000 -0.7217822755
O   O15       1.0  0.82355  0.88866  0.07896  1.0000 -0.7217822755
O   O16       1.0  0.17645  0.11134  0.92104  1.0000 -0.7217822755
O   O17       1.0  0.13867  0.01804  0.52520  1.0000 -0.7768461938
O   O18       1.0  0.86133  0.98196  0.47480  1.0000 -0.7768461938
O   O19       1.0  0.86133  0.01804  0.97480  1.0000 -0.7768461938
O   O20       1.0  0.13867  0.98196  0.02520  1.0000 -0.7768461938
O   O21       1.0  0.20557  0.09273  0.22146  1.0000 -0.7509024708
O   O22       1.0  0.79443  0.90727  0.77854  1.0000 -0.7509024708
O   O23       1.0  0.79443  0.09273  0.27854  1.0000 -0.7509024708
O   O24       1.0  0.20557  0.90727  0.72146  1.0000 -0.7509024708
O   O25       1.0  0.33407  0.95367  0.32383  1.0000 -0.7553921774
O   O26       1.0  0.66593  0.04633  0.67617  1.0000 -0.7509024708
O   O27       1.0  0.66593  0.95367  0.17617  1.0000 -0.7553921774
O   O28       1.0  0.33407  0.04633  0.82383  1.0000 -0.7553921774
O   O29       1.0  0.39420  0.11236  0.25436  1.0000 -0.7509024708
O   O30       1.0  0.60580  0.88764  0.74564  1.0000 -0.7509024708
O   O31       1.0  0.60580  0.11236  0.24564  1.0000 -0.7509024708
O   O32       1.0  0.39420  0.88764  0.75436  1.0000 -0.7509024708
