# DDEC6 charges by PACMAN v1.1 (https://github.com/mtap-research/PACMAN-charge/)
data_2004[Cr][reo]3[ASR]1
_chemical_formula_sum              "Cr36 H144 C288 O156"
_cell_length_a       28.52
_cell_length_b       28.52
_cell_length_c       28.52
_cell_angle_alpha    90
_cell_angle_beta     90
_cell_angle_gamma    90

_symmetry_space_group_name_H-M    "P 1"
_symmetry_Int_Tables_number       1

loop_
  _symmetry_equiv_pos_as_xyz
  'x, y, z'

loop_
  _atom_site_type_symbol
  _atom_site_label
  _atom_site_symmetry_multiplicity
  _atom_site_fract_x
  _atom_site_fract_y
  _atom_site_fract_z
  _atom_site_occupancy
  _atom_site_charge
Cr  Cr1       1.0  0.75507  0.00000  0.75507  1.0000 1.6156216852
Cr  Cr2       1.0  0.00000  0.75507  0.75507  1.0000 1.6132867112
Cr  Cr3       1.0  0.75507  0.00000  0.24493  1.0000 1.6132867112
Cr  Cr4       1.0  0.75507  0.75507  0.00000  1.0000 1.6132867112
Cr  Cr5       1.0  0.24493  0.00000  0.75507  1.0000 1.6132867112
Cr  Cr6       1.0  0.00000  0.75507  0.24493  1.0000 1.6132867112
Cr  Cr7       1.0  0.24493  0.75507  0.00000  1.0000 1.6132867112
Cr  Cr8       1.0  0.00000  0.24493  0.75507  1.0000 1.6132867112
Cr  Cr9       1.0  0.24493  0.00000  0.24493  1.0000 1.6132867112
Cr  Cr10      1.0  0.24493  0.24493  0.00000  1.0000 1.6132867112
Cr  Cr11      1.0  0.00000  0.24493  0.24493  1.0000 1.6132867112
Cr  Cr12      1.0  0.75507  0.24493  0.00000  1.0000 1.6132867112
Cr  Cr13      1.0  0.68475  0.06038  0.68475  1.0000 1.6459514491
Cr  Cr14      1.0  0.93962  0.68475  0.68475  1.0000 1.6459514491
Cr  Cr15      1.0  0.68475  0.93962  0.31525  1.0000 1.6459514491
Cr  Cr16      1.0  0.68475  0.68475  0.06038  1.0000 1.6459514491
Cr  Cr17      1.0  0.31525  0.93962  0.68475  1.0000 1.6459514491
Cr  Cr18      1.0  0.06038  0.68475  0.31525  1.0000 1.6447848968
Cr  Cr19      1.0  0.31525  0.68475  0.06038  1.0000 1.6447848968
Cr  Cr20      1.0  0.06038  0.31525  0.68475  1.0000 1.6447848968
Cr  Cr21      1.0  0.31525  0.06038  0.31525  1.0000 1.6447848968
Cr  Cr22      1.0  0.31525  0.31525  0.06038  1.0000 1.6447848968
Cr  Cr23      1.0  0.93962  0.31525  0.31525  1.0000 1.6459514491
Cr  Cr24      1.0  0.68475  0.31525  0.06038  1.0000 1.6459514491
Cr  Cr25      1.0  0.68475  0.31525  0.93962  1.0000 1.6459514491
Cr  Cr26      1.0  0.31525  0.31525  0.93962  1.0000 1.6447848968
Cr  Cr27      1.0  0.31525  0.68475  0.93962  1.0000 1.6459514491
Cr  Cr28      1.0  0.68475  0.68475  0.93962  1.0000 1.6459514491
Cr  Cr29      1.0  0.06038  0.68475  0.68475  1.0000 1.6459514491
Cr  Cr30      1.0  0.68475  0.93962  0.68475  1.0000 1.6459514491
Cr  Cr31      1.0  0.31525  0.06038  0.68475  1.0000 1.6459514491
Cr  Cr32      1.0  0.68475  0.06038  0.31525  1.0000 1.6459514491
Cr  Cr33      1.0  0.06038  0.31525  0.31525  1.0000 1.6447848968
Cr  Cr34      1.0  0.31525  0.93962  0.31525  1.0000 1.6447848968
Cr  Cr35      1.0  0.93962  0.68475  0.31525  1.0000 1.6459514491
Cr  Cr36      1.0  0.93962  0.31525  0.68475  1.0000 1.6459514491
H   H1        1.0  0.65095  0.16255  0.77499  1.0000 0.08868001
H   H2        1.0  0.83745  0.65095  0.77499  1.0000 0.08868001
H   H3        1.0  0.65095  0.83745  0.22501  1.0000 0.08868001
H   H4        1.0  0.77499  0.65095  0.16255  1.0000 0.08868001
H   H5        1.0  0.34905  0.83745  0.77499  1.0000 0.08868001
H   H6        1.0  0.16255  0.65095  0.22501  1.0000 0.08868001
H   H7        1.0  0.34905  0.77499  0.16255  1.0000 0.08868001
H   H8        1.0  0.16255  0.34905  0.77499  1.0000 0.08868001
H   H9        1.0  0.34905  0.16255  0.22501  1.0000 0.08868001
H   H10       1.0  0.22501  0.34905  0.16255  1.0000 0.08868001
H   H11       1.0  0.83745  0.34905  0.22501  1.0000 0.08868001
H   H12       1.0  0.65095  0.22501  0.16255  1.0000 0.08868001
H   H13       1.0  0.77499  0.34905  0.83745  1.0000 0.08868001
H   H14       1.0  0.34905  0.22501  0.83745  1.0000 0.08868001
H   H15       1.0  0.22501  0.65095  0.83745  1.0000 0.08868001
H   H16       1.0  0.65095  0.77499  0.83745  1.0000 0.08868001
H   H17       1.0  0.16255  0.77499  0.65095  1.0000 0.08868001
H   H18       1.0  0.77499  0.83745  0.65095  1.0000 0.08868001
H   H19       1.0  0.22501  0.16255  0.65095  1.0000 0.08868001
H   H20       1.0  0.77499  0.16255  0.34905  1.0000 0.08868001
H   H21       1.0  0.16255  0.22501  0.34905  1.0000 0.08868001
H   H22       1.0  0.22501  0.83745  0.34905  1.0000 0.08868001
H   H23       1.0  0.83745  0.77499  0.34905  1.0000 0.08868001
H   H24       1.0  0.83745  0.22501  0.65095  1.0000 0.08868001
H   H25       1.0  0.34905  0.83745  0.22501  1.0000 0.08868001
H   H26       1.0  0.16255  0.34905  0.22501  1.0000 0.08868001
H   H27       1.0  0.34905  0.16255  0.77499  1.0000 0.08868001
H   H28       1.0  0.22501  0.34905  0.83745  1.0000 0.08868001
H   H29       1.0  0.65095  0.16255  0.22501  1.0000 0.08868001
H   H30       1.0  0.83745  0.34905  0.77499  1.0000 0.08868001
H   H31       1.0  0.65095  0.22501  0.83745  1.0000 0.08868001
H   H32       1.0  0.83745  0.65095  0.22501  1.0000 0.08868001
H   H33       1.0  0.65095  0.83745  0.77499  1.0000 0.08868001
H   H34       1.0  0.77499  0.65095  0.83745  1.0000 0.08868001
H   H35       1.0  0.16255  0.65095  0.77499  1.0000 0.08868001
H   H36       1.0  0.34905  0.77499  0.83745  1.0000 0.08868001
H   H37       1.0  0.22501  0.65095  0.16255  1.0000 0.08868001
H   H38       1.0  0.65095  0.77499  0.16255  1.0000 0.08868001
H   H39       1.0  0.77499  0.34905  0.16255  1.0000 0.08868001
H   H40       1.0  0.34905  0.22501  0.16255  1.0000 0.08868001
H   H41       1.0  0.83745  0.22501  0.34905  1.0000 0.08868001
H   H42       1.0  0.22501  0.16255  0.34905  1.0000 0.08868001
H   H43       1.0  0.77499  0.83745  0.34905  1.0000 0.08868001
H   H44       1.0  0.22501  0.83745  0.65095  1.0000 0.08868001
H   H45       1.0  0.83745  0.77499  0.65095  1.0000 0.08868001
H   H46       1.0  0.77499  0.16255  0.65095  1.0000 0.08868001
H   H47       1.0  0.16255  0.22501  0.65095  1.0000 0.08868001
H   H48       1.0  0.16255  0.77499  0.34905  1.0000 0.08868001
H   H49       1.0  0.71865  0.06542  0.87265  1.0000 0.08868001
H   H50       1.0  0.93458  0.71865  0.87265  1.0000 0.08868001
H   H51       1.0  0.71865  0.93458  0.12735  1.0000 0.08868001
H   H52       1.0  0.87265  0.71865  0.06542  1.0000 0.08868001
H   H53       1.0  0.28135  0.93458  0.87265  1.0000 0.08868001
H   H54       1.0  0.06542  0.71865  0.12735  1.0000 0.08868001
H   H55       1.0  0.28135  0.87265  0.06542  1.0000 0.08868001
H   H56       1.0  0.06542  0.28135  0.87265  1.0000 0.08868001
H   H57       1.0  0.28135  0.06542  0.12735  1.0000 0.08868001
H   H58       1.0  0.12735  0.28135  0.06542  1.0000 0.08868001
H   H59       1.0  0.93458  0.28135  0.12735  1.0000 0.08868001
H   H60       1.0  0.71865  0.12735  0.06542  1.0000 0.08868001
H   H61       1.0  0.87265  0.28135  0.93458  1.0000 0.08868001
H   H62       1.0  0.28135  0.12735  0.93458  1.0000 0.08868001
H   H63       1.0  0.12735  0.71865  0.93458  1.0000 0.08868001
H   H64       1.0  0.71865  0.87265  0.93458  1.0000 0.08868001
H   H65       1.0  0.06542  0.87265  0.71865  1.0000 0.08868001
H   H66       1.0  0.87265  0.93458  0.71865  1.0000 0.08868001
H   H67       1.0  0.12735  0.06542  0.71865  1.0000 0.08868001
H   H68       1.0  0.87265  0.06542  0.28135  1.0000 0.08868001
H   H69       1.0  0.06542  0.12735  0.28135  1.0000 0.08868001
H   H70       1.0  0.12735  0.93458  0.28135  1.0000 0.08868001
H   H71       1.0  0.93458  0.87265  0.28135  1.0000 0.08868001
H   H72       1.0  0.93458  0.12735  0.71865  1.0000 0.08868001
H   H73       1.0  0.28135  0.93458  0.12735  1.0000 0.08868001
H   H74       1.0  0.06542  0.28135  0.12735  1.0000 0.08868001
H   H75       1.0  0.28135  0.06542  0.87265  1.0000 0.08868001
H   H76       1.0  0.12735  0.28135  0.93458  1.0000 0.08868001
H   H77       1.0  0.71865  0.06542  0.12735  1.0000 0.08868001
H   H78       1.0  0.93458  0.28135  0.87265  1.0000 0.08868001
H   H79       1.0  0.71865  0.12735  0.93458  1.0000 0.08868001
H   H80       1.0  0.93458  0.71865  0.12735  1.0000 0.08868001
H   H81       1.0  0.71865  0.93458  0.87265  1.0000 0.08868001
H   H82       1.0  0.87265  0.71865  0.93458  1.0000 0.08868001
H   H83       1.0  0.06542  0.71865  0.87265  1.0000 0.08868001
H   H84       1.0  0.28135  0.87265  0.93458  1.0000 0.08868001
H   H85       1.0  0.12735  0.71865  0.06542  1.0000 0.08868001
H   H86       1.0  0.71865  0.87265  0.06542  1.0000 0.08868001
H   H87       1.0  0.87265  0.28135  0.06542  1.0000 0.08868001
H   H88       1.0  0.28135  0.12735  0.06542  1.0000 0.08868001
H   H89       1.0  0.93458  0.12735  0.28135  1.0000 0.08868001
H   H90       1.0  0.12735  0.06542  0.28135  1.0000 0.08868001
H   H91       1.0  0.87265  0.93458  0.28135  1.0000 0.08868001
H   H92       1.0  0.12735  0.93458  0.71865  1.0000 0.08868001
H   H93       1.0  0.93458  0.87265  0.71865  1.0000 0.08868001
H   H94       1.0  0.87265  0.06542  0.71865  1.0000 0.08868001
H   H95       1.0  0.06542  0.12735  0.71865  1.0000 0.08868001
H   H96       1.0  0.06542  0.87265  0.28135  1.0000 0.08868001
H   H97       1.0  0.68987  0.92326  0.54402  1.0000 0.08868001
H   H98       1.0  0.07674  0.68987  0.54402  1.0000 0.08868001
H   H99       1.0  0.68987  0.07674  0.45598  1.0000 0.08868001
H   H100      1.0  0.54402  0.68987  0.92326  1.0000 0.08868001
H   H101      1.0  0.31013  0.07674  0.54402  1.0000 0.08868001
H   H102      1.0  0.92326  0.68987  0.45598  1.0000 0.08868001
H   H103      1.0  0.31013  0.54402  0.92326  1.0000 0.08868001
H   H104      1.0  0.92326  0.31013  0.54402  1.0000 0.08868001
H   H105      1.0  0.31013  0.92326  0.45598  1.0000 0.08868001
H   H106      1.0  0.45598  0.31013  0.92326  1.0000 0.08868001
H   H107      1.0  0.07674  0.31013  0.45598  1.0000 0.08868001
H   H108      1.0  0.68987  0.45598  0.92326  1.0000 0.08868001
H   H109      1.0  0.54402  0.31013  0.07674  1.0000 0.08868001
H   H110      1.0  0.31013  0.45598  0.07674  1.0000 0.08868001
H   H111      1.0  0.45598  0.68987  0.07674  1.0000 0.08868001
H   H112      1.0  0.68987  0.54402  0.07674  1.0000 0.08868001
H   H113      1.0  0.92326  0.54402  0.68987  1.0000 0.08868001
H   H114      1.0  0.54402  0.07674  0.68987  1.0000 0.08868001
H   H115      1.0  0.45598  0.92326  0.68987  1.0000 0.08868001
H   H116      1.0  0.54402  0.92326  0.31013  1.0000 0.08868001
H   H117      1.0  0.92326  0.45598  0.31013  1.0000 0.08868001
H   H118      1.0  0.45598  0.07674  0.31013  1.0000 0.08868001
H   H119      1.0  0.07674  0.54402  0.31013  1.0000 0.08868001
H   H120      1.0  0.07674  0.45598  0.68987  1.0000 0.08868001
H   H121      1.0  0.31013  0.07674  0.45598  1.0000 0.08868001
H   H122      1.0  0.92326  0.31013  0.45598  1.0000 0.08868001
H   H123      1.0  0.31013  0.92326  0.54402  1.0000 0.08868001
H   H124      1.0  0.45598  0.31013  0.07674  1.0000 0.08868001
H   H125      1.0  0.68987  0.92326  0.45598  1.0000 0.08868001
H   H126      1.0  0.07674  0.31013  0.54402  1.0000 0.08868001
H   H127      1.0  0.68987  0.45598  0.07674  1.0000 0.08868001
H   H128      1.0  0.07674  0.68987  0.45598  1.0000 0.08868001
H   H129      1.0  0.68987  0.07674  0.54402  1.0000 0.08868001
H   H130      1.0  0.54402  0.68987  0.07674  1.0000 0.08868001
H   H131      1.0  0.92326  0.68987  0.54402  1.0000 0.08868001
H   H132      1.0  0.31013  0.54402  0.07674  1.0000 0.08868001
H   H133      1.0  0.45598  0.68987  0.92326  1.0000 0.08868001
H   H134      1.0  0.68987  0.54402  0.92326  1.0000 0.08868001
H   H135      1.0  0.54402  0.31013  0.92326  1.0000 0.08868001
H   H136      1.0  0.31013  0.45598  0.92326  1.0000 0.08868001
H   H137      1.0  0.07674  0.45598  0.31013  1.0000 0.08868001
H   H138      1.0  0.45598  0.92326  0.31013  1.0000 0.08868001
H   H139      1.0  0.54402  0.07674  0.31013  1.0000 0.08868001
H   H140      1.0  0.45598  0.07674  0.68987  1.0000 0.08868001
H   H141      1.0  0.07674  0.54402  0.68987  1.0000 0.08868001
H   H142      1.0  0.54402  0.92326  0.68987  1.0000 0.08868001
H   H143      1.0  0.92326  0.45598  0.68987  1.0000 0.08868001
H   H144      1.0  0.92326  0.54402  0.31013  1.0000 0.08868001
C   C1        1.0  0.68906  0.00000  0.60045  1.0000 0.5769944978
C   C2        1.0  0.00000  0.68906  0.60045  1.0000 0.5769944978
C   C3        1.0  0.68906  0.00000  0.39955  1.0000 0.5769944978
C   C4        1.0  0.60045  0.68906  0.00000  1.0000 0.5769944978
C   C5        1.0  0.31094  0.00000  0.60045  1.0000 0.5769944978
C   C6        1.0  0.00000  0.68906  0.39955  1.0000 0.5769944978
C   C7        1.0  0.31094  0.60045  0.00000  1.0000 0.5769944978
C   C8        1.0  0.00000  0.31094  0.60045  1.0000 0.5769944978
C   C9        1.0  0.31094  0.00000  0.39955  1.0000 0.5769944978
C   C10       1.0  0.39955  0.31094  0.00000  1.0000 0.5769944978
C   C11       1.0  0.00000  0.31094  0.39955  1.0000 0.5769944978
C   C12       1.0  0.68906  0.39955  0.00000  1.0000 0.5769944978
C   C13       1.0  0.60045  0.31094  0.00000  1.0000 0.5769944978
C   C14       1.0  0.31094  0.39955  0.00000  1.0000 0.5769944978
C   C15       1.0  0.39955  0.68906  0.00000  1.0000 0.5769944978
C   C16       1.0  0.68906  0.60045  0.00000  1.0000 0.5769944978
C   C17       1.0  0.00000  0.60045  0.68906  1.0000 0.5769944978
C   C18       1.0  0.60045  0.00000  0.68906  1.0000 0.5769944978
C   C19       1.0  0.39955  0.00000  0.68906  1.0000 0.5769944978
C   C20       1.0  0.60045  0.00000  0.31094  1.0000 0.5769944978
C   C21       1.0  0.00000  0.39955  0.31094  1.0000 0.5769944978
C   C22       1.0  0.39955  0.00000  0.31094  1.0000 0.5769944978
C   C23       1.0  0.00000  0.60045  0.31094  1.0000 0.5769944978
C   C24       1.0  0.00000  0.39955  0.68906  1.0000 0.5769944978
C   C25       1.0  0.68976  0.00000  0.54909  1.0000 -0.0685958612
C   C26       1.0  0.00000  0.68976  0.54909  1.0000 -0.0685958612
C   C27       1.0  0.68976  0.00000  0.45091  1.0000 -0.0685958612
C   C28       1.0  0.54909  0.68976  0.00000  1.0000 -0.0685958612
C   C29       1.0  0.31024  0.00000  0.54909  1.0000 -0.0685958612
C   C30       1.0  0.00000  0.68976  0.45091  1.0000 -0.0685958612
C   C31       1.0  0.31024  0.54909  0.00000  1.0000 -0.0685958612
C   C32       1.0  0.00000  0.31024  0.54909  1.0000 -0.0685958612
C   C33       1.0  0.31024  0.00000  0.45091  1.0000 -0.0685958612
C   C34       1.0  0.45091  0.31024  0.00000  1.0000 -0.0685958612
C   C35       1.0  0.00000  0.31024  0.45091  1.0000 -0.0685958612
C   C36       1.0  0.68976  0.45091  0.00000  1.0000 -0.0685958612
C   C37       1.0  0.54909  0.31024  0.00000  1.0000 -0.0685958612
C   C38       1.0  0.31024  0.45091  0.00000  1.0000 -0.0685958612
C   C39       1.0  0.45091  0.68976  0.00000  1.0000 -0.0685958612
C   C40       1.0  0.68976  0.54909  0.00000  1.0000 -0.0685958612
C   C41       1.0  0.00000  0.54909  0.68976  1.0000 -0.0685958612
C   C42       1.0  0.54909  0.00000  0.68976  1.0000 -0.0685958612
C   C43       1.0  0.45091  0.00000  0.68976  1.0000 -0.0685958612
C   C44       1.0  0.54909  0.00000  0.31024  1.0000 -0.0685958612
C   C45       1.0  0.00000  0.45091  0.31024  1.0000 -0.0685958612
C   C46       1.0  0.45091  0.00000  0.31024  1.0000 -0.0685958612
C   C47       1.0  0.00000  0.54909  0.31024  1.0000 -0.0685958612
C   C48       1.0  0.00000  0.45091  0.68976  1.0000 -0.0685958612
C   C49       1.0  0.66694  0.15484  0.81057  1.0000 -0.0893353238
C   C50       1.0  0.84516  0.66694  0.81057  1.0000 -0.0893353238
C   C51       1.0  0.66694  0.84516  0.18943  1.0000 -0.0893353238
C   C52       1.0  0.81057  0.66694  0.15484  1.0000 -0.0893353238
C   C53       1.0  0.33306  0.84516  0.81057  1.0000 -0.0893353238
C   C54       1.0  0.15484  0.66694  0.18943  1.0000 -0.0893353238
C   C55       1.0  0.33306  0.81057  0.15484  1.0000 -0.0893353238
C   C56       1.0  0.15484  0.33306  0.81057  1.0000 -0.0893353238
C   C57       1.0  0.33306  0.15484  0.18943  1.0000 -0.0893353238
C   C58       1.0  0.18943  0.33306  0.15484  1.0000 -0.0893353238
C   C59       1.0  0.84516  0.33306  0.18943  1.0000 -0.0893353238
C   C60       1.0  0.66694  0.18943  0.15484  1.0000 -0.0893353238
C   C61       1.0  0.81057  0.33306  0.84516  1.0000 -0.0893353238
C   C62       1.0  0.33306  0.18943  0.84516  1.0000 -0.0893353238
C   C63       1.0  0.18943  0.66694  0.84516  1.0000 -0.0893353238
C   C64       1.0  0.66694  0.81057  0.84516  1.0000 -0.0893353238
C   C65       1.0  0.15484  0.81057  0.66694  1.0000 -0.0893353238
C   C66       1.0  0.81057  0.84516  0.66694  1.0000 -0.0893353238
C   C67       1.0  0.18943  0.15484  0.66694  1.0000 -0.0893353238
C   C68       1.0  0.81057  0.15484  0.33306  1.0000 -0.0893353238
C   C69       1.0  0.15484  0.18943  0.33306  1.0000 -0.0893353238
C   C70       1.0  0.18943  0.84516  0.33306  1.0000 -0.0893353238
C   C71       1.0  0.84516  0.81057  0.33306  1.0000 -0.0893353238
C   C72       1.0  0.84516  0.18943  0.66694  1.0000 -0.0893353238
C   C73       1.0  0.33306  0.84516  0.18943  1.0000 -0.0893353238
C   C74       1.0  0.15484  0.33306  0.18943  1.0000 -0.0893353238
C   C75       1.0  0.33306  0.15484  0.81057  1.0000 -0.0893353238
C   C76       1.0  0.18943  0.33306  0.84516  1.0000 -0.0893353238
C   C77       1.0  0.66694  0.15484  0.18943  1.0000 -0.0893353238
C   C78       1.0  0.84516  0.33306  0.81057  1.0000 -0.0893353238
C   C79       1.0  0.66694  0.18943  0.84516  1.0000 -0.0893353238
C   C80       1.0  0.84516  0.66694  0.18943  1.0000 -0.0893353238
C   C81       1.0  0.66694  0.84516  0.81057  1.0000 -0.0893353238
C   C82       1.0  0.81057  0.66694  0.84516  1.0000 -0.0893353238
C   C83       1.0  0.15484  0.66694  0.81057  1.0000 -0.0893353238
C   C84       1.0  0.33306  0.81057  0.84516  1.0000 -0.0893353238
C   C85       1.0  0.18943  0.66694  0.15484  1.0000 -0.0893353238
C   C86       1.0  0.66694  0.81057  0.15484  1.0000 -0.0893353238
C   C87       1.0  0.81057  0.33306  0.15484  1.0000 -0.0893353238
C   C88       1.0  0.33306  0.18943  0.15484  1.0000 -0.0893353238
C   C89       1.0  0.84516  0.18943  0.33306  1.0000 -0.0893353238
C   C90       1.0  0.18943  0.15484  0.33306  1.0000 -0.0893353238
C   C91       1.0  0.81057  0.84516  0.33306  1.0000 -0.0893353238
C   C92       1.0  0.18943  0.84516  0.66694  1.0000 -0.0893353238
C   C93       1.0  0.84516  0.81057  0.66694  1.0000 -0.0893353238
C   C94       1.0  0.81057  0.15484  0.66694  1.0000 -0.0893353238
C   C95       1.0  0.15484  0.18943  0.66694  1.0000 -0.0893353238
C   C96       1.0  0.15484  0.81057  0.33306  1.0000 -0.0893353238
C   C97       1.0  0.69622  0.07770  0.78146  1.0000 0.5416855668
C   C98       1.0  0.92230  0.69622  0.78146  1.0000 0.5416855668
C   C99       1.0  0.69622  0.92230  0.21854  1.0000 0.5416855668
C   C100      1.0  0.78146  0.69622  0.07770  1.0000 0.5416855668
C   C101      1.0  0.30378  0.92230  0.78146  1.0000 0.5416855668
C   C102      1.0  0.07770  0.69622  0.21854  1.0000 0.5416855668
C   C103      1.0  0.30378  0.78146  0.07770  1.0000 0.5416855668
C   C104      1.0  0.07770  0.30378  0.78146  1.0000 0.5416855668
C   C105      1.0  0.30378  0.07770  0.21854  1.0000 0.5416855668
C   C106      1.0  0.21854  0.30378  0.07770  1.0000 0.5416855668
C   C107      1.0  0.92230  0.30378  0.21854  1.0000 0.5416855668
C   C108      1.0  0.69622  0.21854  0.07770  1.0000 0.5416855668
C   C109      1.0  0.78146  0.30378  0.92230  1.0000 0.5416855668
C   C110      1.0  0.30378  0.21854  0.92230  1.0000 0.5416855668
C   C111      1.0  0.21854  0.69622  0.92230  1.0000 0.5416855668
C   C112      1.0  0.69622  0.78146  0.92230  1.0000 0.5416855668
C   C113      1.0  0.07770  0.78146  0.69622  1.0000 0.5416855668
C   C114      1.0  0.78146  0.92230  0.69622  1.0000 0.5416855668
C   C115      1.0  0.21854  0.07770  0.69622  1.0000 0.5416855668
C   C116      1.0  0.78146  0.07770  0.30378  1.0000 0.5416855668
C   C117      1.0  0.07770  0.21854  0.30378  1.0000 0.5416855668
C   C118      1.0  0.21854  0.92230  0.30378  1.0000 0.5416855668
C   C119      1.0  0.92230  0.78146  0.30378  1.0000 0.5416855668
C   C120      1.0  0.92230  0.21854  0.69622  1.0000 0.5416855668
C   C121      1.0  0.30378  0.92230  0.21854  1.0000 0.5416855668
C   C122      1.0  0.07770  0.30378  0.21854  1.0000 0.5416855668
C   C123      1.0  0.30378  0.07770  0.78146  1.0000 0.5416855668
C   C124      1.0  0.21854  0.30378  0.92230  1.0000 0.5416855668
C   C125      1.0  0.69622  0.07770  0.21854  1.0000 0.5416855668
C   C126      1.0  0.92230  0.30378  0.78146  1.0000 0.5416855668
C   C127      1.0  0.69622  0.21854  0.92230  1.0000 0.5416855668
C   C128      1.0  0.92230  0.69622  0.21854  1.0000 0.5416855668
C   C129      1.0  0.69622  0.92230  0.78146  1.0000 0.5416855668
C   C130      1.0  0.78146  0.69622  0.92230  1.0000 0.5416855668
C   C131      1.0  0.07770  0.69622  0.78146  1.0000 0.5416855668
C   C132      1.0  0.30378  0.78146  0.92230  1.0000 0.5416855668
C   C133      1.0  0.21854  0.69622  0.07770  1.0000 0.5416855668
C   C134      1.0  0.69622  0.78146  0.07770  1.0000 0.5416855668
C   C135      1.0  0.78146  0.30378  0.07770  1.0000 0.5416855668
C   C136      1.0  0.30378  0.21854  0.07770  1.0000 0.5416855668
C   C137      1.0  0.92230  0.21854  0.30378  1.0000 0.5416855668
C   C138      1.0  0.21854  0.07770  0.30378  1.0000 0.5416855668
C   C139      1.0  0.78146  0.92230  0.30378  1.0000 0.5416855668
C   C140      1.0  0.21854  0.92230  0.69622  1.0000 0.5416855668
C   C141      1.0  0.92230  0.78146  0.69622  1.0000 0.5416855668
C   C142      1.0  0.78146  0.07770  0.69622  1.0000 0.5416855668
C   C143      1.0  0.07770  0.21854  0.69622  1.0000 0.5416855668
C   C144      1.0  0.07770  0.78146  0.30378  1.0000 0.5416855668
C   C145      1.0  0.68652  0.11087  0.81961  1.0000 -0.0600323306
C   C146      1.0  0.88913  0.68652  0.81961  1.0000 -0.0600323306
C   C147      1.0  0.68652  0.88913  0.18039  1.0000 -0.0600323306
C   C148      1.0  0.81961  0.68652  0.11087  1.0000 -0.0600323306
C   C149      1.0  0.31348  0.88913  0.81961  1.0000 -0.0600323306
C   C150      1.0  0.11087  0.68652  0.18039  1.0000 -0.0600323306
C   C151      1.0  0.31348  0.81961  0.11087  1.0000 -0.0600323306
C   C152      1.0  0.11087  0.31348  0.81961  1.0000 -0.0600323306
C   C153      1.0  0.31348  0.11087  0.18039  1.0000 -0.0600323306
C   C154      1.0  0.18039  0.31348  0.11087  1.0000 -0.0600323306
C   C155      1.0  0.88913  0.31348  0.18039  1.0000 -0.0600323306
C   C156      1.0  0.68652  0.18039  0.11087  1.0000 -0.0600323306
C   C157      1.0  0.81961  0.31348  0.88913  1.0000 -0.0600323306
C   C158      1.0  0.31348  0.18039  0.88913  1.0000 -0.0600323306
C   C159      1.0  0.18039  0.68652  0.88913  1.0000 -0.0600323306
C   C160      1.0  0.68652  0.81961  0.88913  1.0000 -0.0600323306
C   C161      1.0  0.11087  0.81961  0.68652  1.0000 -0.0600323306
C   C162      1.0  0.81961  0.88913  0.68652  1.0000 -0.0600323306
C   C163      1.0  0.18039  0.11087  0.68652  1.0000 -0.0600323306
C   C164      1.0  0.81961  0.11087  0.31348  1.0000 -0.0600323306
C   C165      1.0  0.11087  0.18039  0.31348  1.0000 -0.0600323306
C   C166      1.0  0.18039  0.88913  0.31348  1.0000 -0.0600323306
C   C167      1.0  0.88913  0.81961  0.31348  1.0000 -0.0600323306
C   C168      1.0  0.88913  0.18039  0.68652  1.0000 -0.0600323306
C   C169      1.0  0.31348  0.88913  0.18039  1.0000 -0.0600323306
C   C170      1.0  0.11087  0.31348  0.18039  1.0000 -0.0600323306
C   C171      1.0  0.31348  0.11087  0.81961  1.0000 -0.0600323306
C   C172      1.0  0.18039  0.31348  0.88913  1.0000 -0.0600323306
C   C173      1.0  0.68652  0.11087  0.18039  1.0000 -0.0600323306
C   C174      1.0  0.88913  0.31348  0.81961  1.0000 -0.0600323306
C   C175      1.0  0.68652  0.18039  0.88913  1.0000 -0.0600323306
C   C176      1.0  0.88913  0.68652  0.18039  1.0000 -0.0600323306
C   C177      1.0  0.68652  0.88913  0.81961  1.0000 -0.0600323306
C   C178      1.0  0.81961  0.68652  0.88913  1.0000 -0.0600323306
C   C179      1.0  0.11087  0.68652  0.81961  1.0000 -0.0600323306
C   C180      1.0  0.31348  0.81961  0.88913  1.0000 -0.0600323306
C   C181      1.0  0.18039  0.68652  0.11087  1.0000 -0.0600323306
C   C182      1.0  0.68652  0.81961  0.11087  1.0000 -0.0600323306
C   C183      1.0  0.81961  0.31348  0.11087  1.0000 -0.0600323306
C   C184      1.0  0.31348  0.18039  0.11087  1.0000 -0.0600323306
C   C185      1.0  0.88913  0.18039  0.31348  1.0000 -0.0600323306
C   C186      1.0  0.18039  0.11087  0.31348  1.0000 -0.0600323306
C   C187      1.0  0.81961  0.88913  0.31348  1.0000 -0.0600323306
C   C188      1.0  0.18039  0.88913  0.68652  1.0000 -0.0600323306
C   C189      1.0  0.88913  0.81961  0.68652  1.0000 -0.0600323306
C   C190      1.0  0.81961  0.11087  0.68652  1.0000 -0.0600323306
C   C191      1.0  0.11087  0.18039  0.68652  1.0000 -0.0600323306
C   C192      1.0  0.11087  0.81961  0.31348  1.0000 -0.0600323306
C   C193      1.0  0.70414  0.10146  0.86421  1.0000 -0.0893353238
C   C194      1.0  0.89854  0.70414  0.86421  1.0000 -0.0893353238
C   C195      1.0  0.70414  0.89854  0.13579  1.0000 -0.0893353238
C   C196      1.0  0.86421  0.70414  0.10146  1.0000 -0.0893353238
C   C197      1.0  0.29586  0.89854  0.86421  1.0000 -0.0893353238
C   C198      1.0  0.10146  0.70414  0.13579  1.0000 -0.0893353238
C   C199      1.0  0.29586  0.86421  0.10146  1.0000 -0.0893353238
C   C200      1.0  0.10146  0.29586  0.86421  1.0000 -0.0893353238
C   C201      1.0  0.29586  0.10146  0.13579  1.0000 -0.0893353238
C   C202      1.0  0.13579  0.29586  0.10146  1.0000 -0.0893353238
C   C203      1.0  0.89854  0.29586  0.13579  1.0000 -0.0893353238
C   C204      1.0  0.70414  0.13579  0.10146  1.0000 -0.0893353238
C   C205      1.0  0.86421  0.29586  0.89854  1.0000 -0.0893353238
C   C206      1.0  0.29586  0.13579  0.89854  1.0000 -0.0893353238
C   C207      1.0  0.13579  0.70414  0.89854  1.0000 -0.0893353238
C   C208      1.0  0.70414  0.86421  0.89854  1.0000 -0.0893353238
C   C209      1.0  0.10146  0.86421  0.70414  1.0000 -0.0893353238
C   C210      1.0  0.86421  0.89854  0.70414  1.0000 -0.0893353238
C   C211      1.0  0.13579  0.10146  0.70414  1.0000 -0.0893353238
C   C212      1.0  0.86421  0.10146  0.29586  1.0000 -0.0893353238
C   C213      1.0  0.10146  0.13579  0.29586  1.0000 -0.0893353238
C   C214      1.0  0.13579  0.89854  0.29586  1.0000 -0.0893353238
C   C215      1.0  0.89854  0.86421  0.29586  1.0000 -0.0893353238
C   C216      1.0  0.89854  0.13579  0.70414  1.0000 -0.0893353238
C   C217      1.0  0.29586  0.89854  0.13579  1.0000 -0.0893353238
C   C218      1.0  0.10146  0.29586  0.13579  1.0000 -0.0893353238
C   C219      1.0  0.29586  0.10146  0.86421  1.0000 -0.0893353238
C   C220      1.0  0.13579  0.29586  0.89854  1.0000 -0.0893353238
C   C221      1.0  0.70414  0.10146  0.13579  1.0000 -0.0893353238
C   C222      1.0  0.89854  0.29586  0.86421  1.0000 -0.0893353238
C   C223      1.0  0.70414  0.13579  0.89854  1.0000 -0.0893353238
C   C224      1.0  0.89854  0.70414  0.13579  1.0000 -0.0893353238
C   C225      1.0  0.70414  0.89854  0.86421  1.0000 -0.0893353238
C   C226      1.0  0.86421  0.70414  0.89854  1.0000 -0.0893353238
C   C227      1.0  0.10146  0.70414  0.86421  1.0000 -0.0893353238
C   C228      1.0  0.29586  0.86421  0.89854  1.0000 -0.0893353238
C   C229      1.0  0.13579  0.70414  0.10146  1.0000 -0.0893353238
C   C230      1.0  0.70414  0.86421  0.10146  1.0000 -0.0893353238
C   C231      1.0  0.86421  0.29586  0.10146  1.0000 -0.0893353238
C   C232      1.0  0.29586  0.13579  0.10146  1.0000 -0.0893353238
C   C233      1.0  0.89854  0.13579  0.29586  1.0000 -0.0893353238
C   C234      1.0  0.13579  0.10146  0.29586  1.0000 -0.0893353238
C   C235      1.0  0.86421  0.89854  0.29586  1.0000 -0.0893353238
C   C236      1.0  0.13579  0.89854  0.70414  1.0000 -0.0893353238
C   C237      1.0  0.89854  0.86421  0.70414  1.0000 -0.0893353238
C   C238      1.0  0.86421  0.10146  0.70414  1.0000 -0.0893353238
C   C239      1.0  0.10146  0.13579  0.70414  1.0000 -0.0893353238
C   C240      1.0  0.10146  0.86421  0.29586  1.0000 -0.0893353238
C   C241      1.0  0.68982  0.95783  0.52437  1.0000 -0.100357563
C   C242      1.0  0.04217  0.68982  0.52437  1.0000 -0.100357563
C   C243      1.0  0.68982  0.04217  0.47563  1.0000 -0.100357563
C   C244      1.0  0.52437  0.68982  0.95783  1.0000 -0.100357563
C   C245      1.0  0.31018  0.04217  0.52437  1.0000 -0.100357563
C   C246      1.0  0.95783  0.68982  0.47563  1.0000 -0.100357563
C   C247      1.0  0.31018  0.52437  0.95783  1.0000 -0.100357563
C   C248      1.0  0.95783  0.31018  0.52437  1.0000 -0.100357563
C   C249      1.0  0.31018  0.95783  0.47563  1.0000 -0.100357563
C   C250      1.0  0.47563  0.31018  0.95783  1.0000 -0.100357563
C   C251      1.0  0.04217  0.31018  0.47563  1.0000 -0.100357563
C   C252      1.0  0.68982  0.47563  0.95783  1.0000 -0.100357563
C   C253      1.0  0.52437  0.31018  0.04217  1.0000 -0.100357563
C   C254      1.0  0.31018  0.47563  0.04217  1.0000 -0.100357563
C   C255      1.0  0.47563  0.68982  0.04217  1.0000 -0.100357563
C   C256      1.0  0.68982  0.52437  0.04217  1.0000 -0.100357563
C   C257      1.0  0.95783  0.52437  0.68982  1.0000 -0.100357563
C   C258      1.0  0.52437  0.04217  0.68982  1.0000 -0.100357563
C   C259      1.0  0.47563  0.95783  0.68982  1.0000 -0.100357563
C   C260      1.0  0.52437  0.95783  0.31018  1.0000 -0.100357563
C   C261      1.0  0.95783  0.47563  0.31018  1.0000 -0.100357563
C   C262      1.0  0.47563  0.04217  0.31018  1.0000 -0.100357563
C   C263      1.0  0.04217  0.52437  0.31018  1.0000 -0.100357563
C   C264      1.0  0.04217  0.47563  0.68982  1.0000 -0.100357563
C   C265      1.0  0.31018  0.04217  0.47563  1.0000 -0.100357563
C   C266      1.0  0.95783  0.31018  0.47563  1.0000 -0.100357563
C   C267      1.0  0.31018  0.95783  0.52437  1.0000 -0.100357563
C   C268      1.0  0.47563  0.31018  0.04217  1.0000 -0.100357563
C   C269      1.0  0.68982  0.95783  0.47563  1.0000 -0.100357563
C   C270      1.0  0.04217  0.31018  0.52437  1.0000 -0.100357563
C   C271      1.0  0.68982  0.47563  0.04217  1.0000 -0.100357563
C   C272      1.0  0.04217  0.68982  0.47563  1.0000 -0.100357563
C   C273      1.0  0.68982  0.04217  0.52437  1.0000 -0.100357563
C   C274      1.0  0.52437  0.68982  0.04217  1.0000 -0.100357563
C   C275      1.0  0.95783  0.68982  0.52437  1.0000 -0.100357563
C   C276      1.0  0.31018  0.52437  0.04217  1.0000 -0.100357563
C   C277      1.0  0.47563  0.68982  0.95783  1.0000 -0.100357563
C   C278      1.0  0.68982  0.52437  0.95783  1.0000 -0.100357563
C   C279      1.0  0.52437  0.31018  0.95783  1.0000 -0.100357563
C   C280      1.0  0.31018  0.47563  0.95783  1.0000 -0.100357563
C   C281      1.0  0.04217  0.47563  0.31018  1.0000 -0.100357563
C   C282      1.0  0.47563  0.95783  0.31018  1.0000 -0.100357563
C   C283      1.0  0.52437  0.04217  0.31018  1.0000 -0.100357563
C   C284      1.0  0.47563  0.04217  0.68982  1.0000 -0.100357563
C   C285      1.0  0.04217  0.52437  0.68982  1.0000 -0.100357563
C   C286      1.0  0.52437  0.95783  0.68982  1.0000 -0.100357563
C   C287      1.0  0.95783  0.47563  0.68982  1.0000 -0.100357563
C   C288      1.0  0.95783  0.52437  0.31018  1.0000 -0.100357563
O   O1        1.0  0.70784  0.00000  0.70784  1.0000 -1.1195665307
O   O2        1.0  0.00000  0.70784  0.70784  1.0000 -1.1195665307
O   O3        1.0  0.70784  0.00000  0.29216  1.0000 -1.1195665307
O   O4        1.0  0.70784  0.70784  0.00000  1.0000 -1.1195665307
O   O5        1.0  0.29216  0.00000  0.70784  1.0000 -1.1195665307
O   O6        1.0  0.00000  0.70784  0.29216  1.0000 -1.1195665307
O   O7        1.0  0.29216  0.70784  0.00000  1.0000 -1.1195665307
O   O8        1.0  0.00000  0.29216  0.70784  1.0000 -1.1195665307
O   O9        1.0  0.29216  0.00000  0.29216  1.0000 -1.1195665307
O   O10       1.0  0.29216  0.29216  0.00000  1.0000 -1.1195665307
O   O11       1.0  0.00000  0.29216  0.29216  1.0000 -1.1195665307
O   O12       1.0  0.70784  0.29216  0.00000  1.0000 -1.1195665307
O   O13       1.0  0.67863  0.08494  0.74146  1.0000 -0.5112820958
O   O14       1.0  0.91506  0.67863  0.74146  1.0000 -0.5112820958
O   O15       1.0  0.67863  0.91506  0.25854  1.0000 -0.5112820958
O   O16       1.0  0.74146  0.67863  0.08494  1.0000 -0.5112820958
O   O17       1.0  0.32137  0.91506  0.74146  1.0000 -0.5112820958
O   O18       1.0  0.08494  0.67863  0.25854  1.0000 -0.5112820958
O   O19       1.0  0.32137  0.74146  0.08494  1.0000 -0.5112820958
O   O20       1.0  0.08494  0.32137  0.74146  1.0000 -0.5112820958
O   O21       1.0  0.32137  0.08494  0.25854  1.0000 -0.5112820958
O   O22       1.0  0.25854  0.32137  0.08494  1.0000 -0.5112820958
O   O23       1.0  0.91506  0.32137  0.25854  1.0000 -0.5112820958
O   O24       1.0  0.67863  0.25854  0.08494  1.0000 -0.5112820958
O   O25       1.0  0.74146  0.32137  0.91506  1.0000 -0.5112820958
O   O26       1.0  0.32137  0.25854  0.91506  1.0000 -0.5112820958
O   O27       1.0  0.25854  0.67863  0.91506  1.0000 -0.5112820958
O   O28       1.0  0.67863  0.74146  0.91506  1.0000 -0.5112820958
O   O29       1.0  0.08494  0.74146  0.67863  1.0000 -0.5112820958
O   O30       1.0  0.74146  0.91506  0.67863  1.0000 -0.5112820958
O   O31       1.0  0.25854  0.08494  0.67863  1.0000 -0.5112820958
O   O32       1.0  0.74146  0.08494  0.32137  1.0000 -0.5112820958
O   O33       1.0  0.08494  0.25854  0.32137  1.0000 -0.5112820958
O   O34       1.0  0.25854  0.91506  0.32137  1.0000 -0.5112820958
O   O35       1.0  0.91506  0.74146  0.32137  1.0000 -0.5112820958
O   O36       1.0  0.91506  0.25854  0.67863  1.0000 -0.5112820958
O   O37       1.0  0.32137  0.91506  0.25854  1.0000 -0.5112820958
O   O38       1.0  0.08494  0.32137  0.25854  1.0000 -0.5112820958
O   O39       1.0  0.32137  0.08494  0.74146  1.0000 -0.5112820958
O   O40       1.0  0.25854  0.32137  0.91506  1.0000 -0.5112820958
O   O41       1.0  0.67863  0.08494  0.25854  1.0000 -0.5112820958
O   O42       1.0  0.91506  0.32137  0.74146  1.0000 -0.5112820958
O   O43       1.0  0.67863  0.25854  0.91506  1.0000 -0.5112820958
O   O44       1.0  0.91506  0.67863  0.25854  1.0000 -0.5112820958
O   O45       1.0  0.67863  0.91506  0.74146  1.0000 -0.5112820958
O   O46       1.0  0.74146  0.67863  0.91506  1.0000 -0.5112820958
O   O47       1.0  0.08494  0.67863  0.74146  1.0000 -0.5112820958
O   O48       1.0  0.32137  0.74146  0.91506  1.0000 -0.5112820958
O   O49       1.0  0.25854  0.67863  0.08494  1.0000 -0.5112820958
O   O50       1.0  0.67863  0.74146  0.08494  1.0000 -0.5112820958
O   O51       1.0  0.74146  0.32137  0.08494  1.0000 -0.5112820958
O   O52       1.0  0.32137  0.25854  0.08494  1.0000 -0.5112820958
O   O53       1.0  0.91506  0.25854  0.32137  1.0000 -0.5112820958
O   O54       1.0  0.25854  0.08494  0.32137  1.0000 -0.5112820958
O   O55       1.0  0.74146  0.91506  0.32137  1.0000 -0.5112820958
O   O56       1.0  0.25854  0.91506  0.67863  1.0000 -0.5112820958
O   O57       1.0  0.91506  0.74146  0.67863  1.0000 -0.5112820958
O   O58       1.0  0.74146  0.08494  0.67863  1.0000 -0.5112820958
O   O59       1.0  0.08494  0.25854  0.67863  1.0000 -0.5112820958
O   O60       1.0  0.08494  0.74146  0.32137  1.0000 -0.5112820958
O   O61       1.0  0.72439  0.04493  0.79015  1.0000 -0.5542792288
O   O62       1.0  0.95507  0.72439  0.79015  1.0000 -0.5542792288
O   O63       1.0  0.72439  0.95507  0.20985  1.0000 -0.5542792288
O   O64       1.0  0.79015  0.72439  0.04493  1.0000 -0.5542792288
O   O65       1.0  0.27561  0.95507  0.79015  1.0000 -0.5542792288
O   O66       1.0  0.04493  0.72439  0.20985  1.0000 -0.5542792288
O   O67       1.0  0.27561  0.79015  0.04493  1.0000 -0.5542792288
O   O68       1.0  0.04493  0.27561  0.79015  1.0000 -0.5542792288
O   O69       1.0  0.27561  0.04493  0.20985  1.0000 -0.5542792288
O   O70       1.0  0.20985  0.27561  0.04493  1.0000 -0.5542792288
O   O71       1.0  0.95507  0.27561  0.20985  1.0000 -0.5542792288
O   O72       1.0  0.72439  0.20985  0.04493  1.0000 -0.5542792288
O   O73       1.0  0.79015  0.27561  0.95507  1.0000 -0.5542792288
O   O74       1.0  0.27561  0.20985  0.95507  1.0000 -0.5542792288
O   O75       1.0  0.20985  0.72439  0.95507  1.0000 -0.5542792288
O   O76       1.0  0.72439  0.79015  0.95507  1.0000 -0.5542792288
O   O77       1.0  0.04493  0.79015  0.72439  1.0000 -0.5542792288
O   O78       1.0  0.79015  0.95507  0.72439  1.0000 -0.5542792288
O   O79       1.0  0.20985  0.04493  0.72439  1.0000 -0.5542792288
O   O80       1.0  0.79015  0.04493  0.27561  1.0000 -0.5542792288
O   O81       1.0  0.04493  0.20985  0.27561  1.0000 -0.5542792288
O   O82       1.0  0.20985  0.95507  0.27561  1.0000 -0.5542792288
O   O83       1.0  0.95507  0.79015  0.27561  1.0000 -0.5542792288
O   O84       1.0  0.95507  0.20985  0.72439  1.0000 -0.5542792288
O   O85       1.0  0.27561  0.95507  0.20985  1.0000 -0.5542792288
O   O86       1.0  0.04493  0.27561  0.20985  1.0000 -0.5542792288
O   O87       1.0  0.27561  0.04493  0.79015  1.0000 -0.5542792288
O   O88       1.0  0.20985  0.27561  0.95507  1.0000 -0.5542792288
O   O89       1.0  0.72439  0.04493  0.20985  1.0000 -0.5542792288
O   O90       1.0  0.95507  0.27561  0.79015  1.0000 -0.5542792288
O   O91       1.0  0.72439  0.20985  0.95507  1.0000 -0.5542792288
O   O92       1.0  0.95507  0.72439  0.20985  1.0000 -0.5542792288
O   O93       1.0  0.72439  0.95507  0.79015  1.0000 -0.5542792288
O   O94       1.0  0.79015  0.72439  0.95507  1.0000 -0.5542792288
O   O95       1.0  0.04493  0.72439  0.79015  1.0000 -0.5542792288
O   O96       1.0  0.27561  0.79015  0.95507  1.0000 -0.5542792288
O   O97       1.0  0.20985  0.72439  0.04493  1.0000 -0.5542792288
O   O98       1.0  0.72439  0.79015  0.04493  1.0000 -0.5542792288
O   O99       1.0  0.79015  0.27561  0.04493  1.0000 -0.5542792288
O   O100      1.0  0.27561  0.20985  0.04493  1.0000 -0.5542792288
O   O101      1.0  0.95507  0.20985  0.27561  1.0000 -0.5542792288
O   O102      1.0  0.20985  0.04493  0.27561  1.0000 -0.5542792288
O   O103      1.0  0.79015  0.95507  0.27561  1.0000 -0.5542792288
O   O104      1.0  0.20985  0.95507  0.72439  1.0000 -0.5542792288
O   O105      1.0  0.95507  0.79015  0.72439  1.0000 -0.5542792288
O   O106      1.0  0.79015  0.04493  0.72439  1.0000 -0.5542792288
O   O107      1.0  0.04493  0.20985  0.72439  1.0000 -0.5542792288
O   O108      1.0  0.04493  0.79015  0.27561  1.0000 -0.5542792288
O   O109      1.0  0.68895  0.04108  0.62257  1.0000 -0.6035630388
O   O110      1.0  0.95892  0.68895  0.62257  1.0000 -0.6035630388
O   O111      1.0  0.68895  0.95892  0.37743  1.0000 -0.6035630388
O   O112      1.0  0.62257  0.68895  0.04108  1.0000 -0.6035630388
O   O113      1.0  0.31105  0.95892  0.62257  1.0000 -0.6035630388
O   O114      1.0  0.04108  0.68895  0.37743  1.0000 -0.6035630388
O   O115      1.0  0.31105  0.62257  0.04108  1.0000 -0.6035630388
O   O116      1.0  0.04108  0.31105  0.62257  1.0000 -0.6035630388
O   O117      1.0  0.31105  0.04108  0.37743  1.0000 -0.6035630388
O   O118      1.0  0.37743  0.31105  0.04108  1.0000 -0.6035630388
O   O119      1.0  0.95892  0.31105  0.37743  1.0000 -0.6035630388
O   O120      1.0  0.68895  0.37743  0.04108  1.0000 -0.6035630388
O   O121      1.0  0.62257  0.31105  0.95892  1.0000 -0.6035630388
O   O122      1.0  0.31105  0.37743  0.95892  1.0000 -0.6035630388
O   O123      1.0  0.37743  0.68895  0.95892  1.0000 -0.6035630388
O   O124      1.0  0.68895  0.62257  0.95892  1.0000 -0.6035630388
O   O125      1.0  0.04108  0.62257  0.68895  1.0000 -0.6035630388
O   O126      1.0  0.62257  0.95892  0.68895  1.0000 -0.6035630388
O   O127      1.0  0.37743  0.04108  0.68895  1.0000 -0.6035630388
O   O128      1.0  0.62257  0.04108  0.31105  1.0000 -0.6035630388
O   O129      1.0  0.04108  0.37743  0.31105  1.0000 -0.6035630388
O   O130      1.0  0.37743  0.95892  0.31105  1.0000 -0.6035630388
O   O131      1.0  0.95892  0.62257  0.31105  1.0000 -0.6035630388
O   O132      1.0  0.95892  0.37743  0.68895  1.0000 -0.6035630388
O   O133      1.0  0.31105  0.95892  0.37743  1.0000 -0.6035630388
O   O134      1.0  0.04108  0.31105  0.37743  1.0000 -0.6035630388
O   O135      1.0  0.31105  0.04108  0.62257  1.0000 -0.6035630388
O   O136      1.0  0.37743  0.31105  0.95892  1.0000 -0.6035630388
O   O137      1.0  0.68895  0.04108  0.37743  1.0000 -0.6035630388
O   O138      1.0  0.95892  0.31105  0.62257  1.0000 -0.6035630388
O   O139      1.0  0.68895  0.37743  0.95892  1.0000 -0.6035630388
O   O140      1.0  0.95892  0.68895  0.37743  1.0000 -0.6035630388
O   O141      1.0  0.68895  0.95892  0.62257  1.0000 -0.6035630388
O   O142      1.0  0.62257  0.68895  0.95892  1.0000 -0.6035630388
O   O143      1.0  0.04108  0.68895  0.62257  1.0000 -0.6035630388
O   O144      1.0  0.31105  0.62257  0.95892  1.0000 -0.6035630388
O   O145      1.0  0.37743  0.68895  0.04108  1.0000 -0.6035630388
O   O146      1.0  0.68895  0.62257  0.04108  1.0000 -0.6035630388
O   O147      1.0  0.62257  0.31105  0.04108  1.0000 -0.6035630388
O   O148      1.0  0.31105  0.37743  0.04108  1.0000 -0.6035630388
O   O149      1.0  0.95892  0.37743  0.31105  1.0000 -0.6035630388
O   O150      1.0  0.37743  0.04108  0.31105  1.0000 -0.6035630388
O   O151      1.0  0.62257  0.95892  0.31105  1.0000 -0.6035630388
O   O152      1.0  0.37743  0.95892  0.68895  1.0000 -0.6035630388
O   O153      1.0  0.95892  0.62257  0.68895  1.0000 -0.6035630388
O   O154      1.0  0.62257  0.04108  0.68895  1.0000 -0.6035630388
O   O155      1.0  0.04108  0.37743  0.68895  1.0000 -0.6035630388
O   O156      1.0  0.04108  0.62257  0.31105  1.0000 -0.6035630388
