# DDEC6 charges by PACMAN v1.1 (https://github.com/mtap-research/PACMAN-charge/)
data_2004[Tb][mog]3[ASR]1
_chemical_formula_sum              "Tb2 H34 C60 N4 O12"
_cell_length_a       10.7822
_cell_length_b       12.1806
_cell_length_c       12.3369
_cell_angle_alpha    94.2028
_cell_angle_beta     106.305
_cell_angle_gamma    100.919

_symmetry_space_group_name_H-M    "P 1"
_symmetry_Int_Tables_number       1

loop_
  _symmetry_equiv_pos_as_xyz
  'x, y, z'

loop_
  _atom_site_type_symbol
  _atom_site_label
  _atom_site_symmetry_multiplicity
  _atom_site_fract_x
  _atom_site_fract_y
  _atom_site_fract_z
  _atom_site_occupancy
  _atom_site_charge
Tb  Tb1       1.0  0.08717  0.80969  0.99878  1.0000 1.9073117311
Tb  Tb2       1.0  0.91283  0.19031  0.00122  1.0000 1.9073117311
H   H1        1.0  0.29340  0.06740  0.02690  1.0000 0.114321693
H   H2        1.0  0.70660  0.93260  0.97310  1.0000 0.114321693
H   H3        1.0  0.50870  0.16970  0.09910  1.0000 0.1299095103
H   H4        1.0  0.49130  0.83030  0.90090  1.0000 0.1299095103
H   H5        1.0  0.67140  0.08680  0.19930  1.0000 0.1299095103
H   H6        1.0  0.32860  0.91320  0.80070  1.0000 0.1299095103
H   H7        1.0  0.73290  0.91420  0.28650  1.0000 0.1204757525
H   H8        1.0  0.26710  0.08580  0.71350  1.0000 0.1204757525
H   H9        1.0  0.67100  0.73200  0.31350  1.0000 0.1299095103
H   H10       1.0  0.32900  0.26800  0.68650  1.0000 0.1299095103
H   H11       1.0  0.48940  0.55930  0.29130  1.0000 0.1204757525
H   H12       1.0  0.51060  0.44070  0.70870  1.0000 0.1204757525
H   H13       1.0  0.27020  0.47270  0.21990  1.0000 0.1383435513
H   H14       1.0  0.72980  0.52730  0.78010  1.0000 0.1383435513
H   H15       1.0  0.12170  0.56750  0.11480  1.0000 0.1204757525
H   H16       1.0  0.87830  0.43250  0.88520  1.0000 0.1204757525
H   H17       1.0  0.25810  0.69800  0.68030  1.0000 0.1204757525
H   H18       1.0  0.74190  0.30200  0.31970  1.0000 0.1204757525
H   H19       1.0  0.23760  0.60960  0.50610  1.0000 0.1299095103
H   H20       1.0  0.76240  0.39040  0.49390  1.0000 0.1299095103
H   H21       1.0  0.89620  0.52920  0.66600  1.0000 0.1204757525
H   H22       1.0  0.10380  0.47080  0.33400  1.0000 0.1204757525
H   H23       1.0  0.82300  0.54260  0.16790  1.0000 0.1204757525
H   H24       1.0  0.17700  0.45740  0.83210  1.0000 0.1204757525
H   H25       1.0  0.64020  0.41020  0.16740  1.0000 0.114321693
H   H26       1.0  0.35980  0.58980  0.83260  1.0000 0.114321693
H   H27       1.0  0.60250  0.67450  0.91290  1.0000 0.1204757525
H   H28       1.0  0.39750  0.32550  0.08710  1.0000 0.1204757525
H   H29       1.0  0.03060  0.81720  0.28860  1.0000 0.1299095103
H   H30       1.0  0.96940  0.18280  0.71140  1.0000 0.1299095103
H   H31       1.0  0.02680  0.79030  0.46970  1.0000 0.1204757525
H   H32       1.0  0.97320  0.20970  0.53030  1.0000 0.1204757525
H   H33       1.0  0.98370  0.13370  0.33990  1.0000 0.1204757525
H   H34       1.0  0.01630  0.86630  0.66010  1.0000 0.1204757525
C   C1        1.0  0.35770  0.03250  0.06810  1.0000 0.1204757525
C   C2        1.0  0.64230  0.96750  0.93190  1.0000 0.1204757525
C   C3        1.0  0.48790  0.09490  0.11140  1.0000 -0.1334795718
C   C4        1.0  0.51210  0.90510  0.88860  1.0000 -0.1334795718
C   C5        1.0  0.58410  0.04630  0.17150  1.0000 -0.0807950113
C   C6        1.0  0.41590  0.95370  0.82850  1.0000 -0.0807950113
C   C7        1.0  0.54990  0.93290  0.19130  1.0000 0.041613103
C   C8        1.0  0.45010  0.06710  0.80870  1.0000 0.041613103
C   C9        1.0  0.64480  0.87620  0.25580  1.0000 -0.140227354
C   C10       1.0  0.35520  0.12380  0.74420  1.0000 -0.140227354
C   C11       1.0  0.60760  0.76790  0.27270  1.0000 -0.140227354
C   C12       1.0  0.39240  0.23210  0.72730  1.0000 -0.140227354
C   C13       1.0  0.47320  0.70790  0.22890  1.0000 0.041613103
C   C14       1.0  0.52680  0.29210  0.77110  1.0000 0.041613103
C   C15       1.0  0.42930  0.59720  0.24890  1.0000 -0.0997669239
C   C16       1.0  0.57070  0.40280  0.75110  1.0000 -0.0997669239
C   C17       1.0  0.29980  0.54580  0.20670  1.0000 -0.1334795718
C   C18       1.0  0.70020  0.45420  0.79330  1.0000 -0.1334795718
C   C19       1.0  0.21060  0.60380  0.14300  1.0000 0.1204757525
C   C20       1.0  0.78940  0.39620  0.85700  1.0000 0.1204757525
C   C21       1.0  0.37760  0.76030  0.16400  1.0000 0.1383435513
C   C22       1.0  0.62240  0.23970  0.83600  1.0000 0.1383435513
C   C23       1.0  0.41760  0.87640  0.14460  1.0000 0.1299095103
C   C24       1.0  0.58240  0.12360  0.85540  1.0000 0.1299095103
C   C25       1.0  0.09190  0.67930  0.80680  1.0000 0.5529680188
C   C26       1.0  0.90810  0.32070  0.19320  1.0000 0.5529680188
C   C27       1.0  0.07780  0.62220  0.69090  1.0000 -0.0153720703
C   C28       1.0  0.92220  0.37780  0.30910  1.0000 -0.0153720703
C   C29       1.0  0.18070  0.64550  0.64120  1.0000 -0.1128871505
C   C30       1.0  0.81930  0.35450  0.35880  1.0000 -0.1128871505
C   C31       1.0  0.16850  0.59280  0.53760  1.0000 -0.1503356737
C   C32       1.0  0.83150  0.40720  0.46240  1.0000 -0.1503356737
C   C33       1.0  0.96430  0.54480  0.63310  1.0000 -0.1503356737
C   C34       1.0  0.03570  0.45520  0.36690  1.0000 -0.1578814898
C   C35       1.0  0.05160  0.51200  0.47560  1.0000 0.0727879415
C   C36       1.0  0.94840  0.48800  0.52440  1.0000 0.0727879415
C   C37       1.0  0.85250  0.69610  0.03040  1.0000 0.5646231111
C   C38       1.0  0.14750  0.30390  0.96960  1.0000 0.5646231111
C   C39       1.0  0.72890  0.61880  0.03640  1.0000 -0.012291259
C   C40       1.0  0.27110  0.38120  0.96360  1.0000 -0.012291259
C   C41       1.0  0.74110  0.54080  0.11580  1.0000 -0.0997669239
C   C42       1.0  0.25890  0.45920  0.88420  1.0000 -0.0997669239
C   C43       1.0  0.63170  0.46250  0.11600  1.0000 -0.1503356737
C   C44       1.0  0.36830  0.53750  0.88400  1.0000 -0.1503356737
C   C45       1.0  0.60920  0.62050  0.96260  1.0000 -0.1697720651
C   C46       1.0  0.39080  0.37950  0.03740  1.0000 -0.1697720651
C   C47       1.0  0.50600  0.46030  0.03890  1.0000 0.0646216806
C   C48       1.0  0.49400  0.53970  0.96110  1.0000 0.0646216806
C   C49       1.0  0.01020  0.99570  0.17810  1.0000 0.6698089774
C   C50       1.0  0.98980  0.00430  0.82190  1.0000 0.6698089774
C   C51       1.0  0.00690  0.97970  0.29740  1.0000 -0.0292758419
C   C52       1.0  0.99310  0.02030  0.70260  1.0000 -0.0292758419
C   C53       1.0  0.02050  0.87530  0.33650  1.0000 -0.1128871505
C   C54       1.0  0.97950  0.12470  0.66350  1.0000 -0.1128871505
C   C55       1.0  0.01910  0.85970  0.44490  1.0000 -0.1503356737
C   C56       1.0  0.98090  0.14030  0.55510  1.0000 -0.1503356737
C   C57       1.0  0.99340  0.06560  0.36710  1.0000 -0.1578814898
C   C58       1.0  0.00660  0.93440  0.63290  1.0000 -0.1578814898
C   C59       1.0  0.00610  0.94700  0.51900  1.0000 0.0727879415
C   C60       1.0  0.99390  0.05300  0.48100  1.0000 0.0727879415
N   N1        1.0  0.32170  0.92570  0.08300  1.0000 -0.3759151761
N   N2        1.0  0.67830  0.07430  0.91700  1.0000 -0.3759151761
N   N3        1.0  0.24700  0.70860  0.12080  1.0000 -0.387664086
N   N4        1.0  0.75300  0.29140  0.87920  1.0000 -0.387664086
O   O1        1.0  0.19530  0.75080  0.86090  1.0000 -0.6225920383
O   O2        1.0  0.80470  0.24920  0.13910  1.0000 -0.6225920383
O   O3        1.0  0.99690  0.65580  0.84870  1.0000 -0.6225920383
O   O4        1.0  0.00310  0.34420  0.15130  1.0000 -0.6225920383
O   O5        1.0  0.96300  0.68390  0.08970  1.0000 -0.6258067552
O   O6        1.0  0.03700  0.31610  0.91030  1.0000 -0.6258067552
O   O7        1.0  0.84420  0.77050  0.96300  1.0000 -0.6081805889
O   O8        1.0  0.15580  0.22950  0.03700  1.0000 -0.6081805889
O   O9        1.0  0.07140  0.93680  0.13470  1.0000 -0.6522542898
O   O10       1.0  0.92860  0.06320  0.86530  1.0000 -0.6522542898
O   O11       1.0  0.95080  0.06630  0.12920  1.0000 -0.6599261228
O   O12       1.0  0.04920  0.93370  0.87080  1.0000 -0.6599261228
