# DDEC6 charges by PACMAN v1.1 (https://github.com/mtap-research/PACMAN-charge/)
data_2004[Mn][dia]3[ASR]5
_chemical_formula_sum              "Mn4 H16 C16 O20"
_cell_length_a       6.8796
_cell_length_b       9.856
_cell_length_c       11.067
_cell_angle_alpha    90
_cell_angle_beta     90
_cell_angle_gamma    90

_symmetry_space_group_name_H-M    "P 1"
_symmetry_Int_Tables_number       1

loop_
  _symmetry_equiv_pos_as_xyz
  'x, y, z'

loop_
  _atom_site_type_symbol
  _atom_site_label
  _atom_site_symmetry_multiplicity
  _atom_site_fract_x
  _atom_site_fract_y
  _atom_site_fract_z
  _atom_site_occupancy
  _atom_site_charge
Mn  Mn1       1.0  0.87447  0.79741  0.28932  1.0000 0.9512425906
Mn  Mn2       1.0  0.62553  0.20259  0.78932  1.0000 0.9512425906
Mn  Mn3       1.0  0.12553  0.29741  0.21068  1.0000 0.9512425906
Mn  Mn4       1.0  0.37447  0.70259  0.71068  1.0000 0.9512425906
H   H1        1.0  0.65080  0.09150  0.42750  1.0000 0.1401463098
H   H2        1.0  0.84920  0.90850  0.92750  1.0000 0.1401463098
H   H3        1.0  0.34920  0.59150  0.07250  1.0000 0.1401463098
H   H4        1.0  0.15080  0.40850  0.57250  1.0000 0.1401463098
H   H5        1.0  0.53420  0.10530  0.30590  1.0000 0.1401463098
H   H6        1.0  0.96580  0.89470  0.80590  1.0000 0.1401463098
H   H7        1.0  0.46580  0.60530  0.19410  1.0000 0.1401463098
H   H8        1.0  0.03420  0.39470  0.69410  1.0000 0.1401463098
H   H9        1.0  0.36910  0.87810  0.41750  1.0000 0.1401463098
H   H10       1.0  0.13090  0.12190  0.91750  1.0000 0.1401463098
H   H11       1.0  0.63090  0.37810  0.08250  1.0000 0.1401463098
H   H12       1.0  0.86910  0.62190  0.58250  1.0000 0.1401463098
H   H13       1.0  0.53540  0.91280  0.51010  1.0000 0.1304995364
H   H14       1.0  0.96460  0.08720  0.01010  1.0000 0.1304995364
H   H15       1.0  0.46460  0.41280  0.98990  1.0000 0.1304995364
H   H16       1.0  0.03540  0.58720  0.48990  1.0000 0.1304995364
C   C1        1.0  0.82840  0.09636  0.27913  1.0000 0.5938027746
C   C2        1.0  0.67160  0.90364  0.77913  1.0000 0.5938027746
C   C3        1.0  0.17160  0.59636  0.22087  1.0000 0.5938027746
C   C4        1.0  0.32840  0.40364  0.72087  1.0000 0.5938027746
C   C5        1.0  0.64380  0.06091  0.34435  1.0000 -0.1697835231
C   C6        1.0  0.85620  0.93909  0.84435  1.0000 -0.1697835231
C   C7        1.0  0.35620  0.56091  0.15565  1.0000 -0.1697835231
C   C8        1.0  0.14380  0.43909  0.65565  1.0000 -0.1697835231
C   C9        1.0  0.50610  0.86592  0.43514  1.0000 -0.1977635377
C   C10       1.0  0.99390  0.13408  0.93514  1.0000 -0.1977635377
C   C11       1.0  0.49390  0.36592  0.06486  1.0000 -0.1977635377
C   C12       1.0  0.00610  0.63408  0.56486  1.0000 -0.1977635377
C   C13       1.0  0.55190  0.71766  0.44744  1.0000 0.5988395459
C   C14       1.0  0.94810  0.28234  0.94744  1.0000 0.5988395459
C   C15       1.0  0.44810  0.21766  0.05256  1.0000 0.5988395459
C   C16       1.0  0.05190  0.78234  0.55256  1.0000 0.5988395459
O   O1        1.0  0.85830  0.22191  0.26840  1.0000 -0.5622133368
O   O2        1.0  0.64170  0.77809  0.76840  1.0000 -0.5622133368
O   O3        1.0  0.14170  0.72191  0.23160  1.0000 -0.5622133368
O   O4        1.0  0.35830  0.27809  0.73160  1.0000 -0.5622133368
O   O5        1.0  0.93648  0.00730  0.24185  1.0000 -0.5290983447
O   O6        1.0  0.56352  0.99270  0.74185  1.0000 -0.5290983447
O   O7        1.0  0.06352  0.50730  0.25815  1.0000 -0.5290983447
O   O8        1.0  0.43648  0.49270  0.75815  1.0000 -0.5290983447
O   O9        1.0  0.66388  0.66413  0.37357  1.0000 -0.5370827668
O   O10       1.0  0.83612  0.33587  0.87357  1.0000 -0.5370827668
O   O11       1.0  0.33612  0.16413  0.12643  1.0000 -0.5370827668
O   O12       1.0  0.16388  0.83587  0.62643  1.0000 -0.5370827668
O   O13       1.0  0.47270  0.65480  0.53087  1.0000 -0.5290983447
O   O14       1.0  0.02730  0.34520  0.03087  1.0000 -0.5290983447
O   O15       1.0  0.52730  0.15480  0.96913  1.0000 -0.5290983447
O   O16       1.0  0.97270  0.84520  0.46913  1.0000 -0.5290983447
O   O17       1.0  0.61932  0.91937  0.34068  1.0000 -0.1697835231
O   O18       1.0  0.88068  0.08063  0.84068  1.0000 -0.1697835231
O   O19       1.0  0.38068  0.41937  0.15932  1.0000 -0.1697835231
O   O20       1.0  0.11932  0.58063  0.65932  1.0000 -0.1697835231
