# DDEC6 charges by PACMAN v1.1 (https://github.com/mtap-research/PACMAN-charge/)
data_2005[Nd][dia]3[ASR]2
_chemical_formula_sum              "Nd2 C8 O16"
_cell_length_a       8.507
_cell_length_b       9.762
_cell_length_c       10.249
_cell_angle_alpha    62.378
_cell_angle_beta     76.681
_cell_angle_gamma    73.858

_symmetry_space_group_name_H-M    "P 1"
_symmetry_Int_Tables_number       1

loop_
  _symmetry_equiv_pos_as_xyz
  'x, y, z'

loop_
  _atom_site_type_symbol
  _atom_site_label
  _atom_site_symmetry_multiplicity
  _atom_site_fract_x
  _atom_site_fract_y
  _atom_site_fract_z
  _atom_site_occupancy
  _atom_site_charge
Nd  Nd1       1.0  0.33386  0.36924  0.83930  1.0000 1.9024895567
Nd  Nd2       1.0  0.66614  0.63076  0.16070  1.0000 1.9024895567
C   C1        1.0  0.98420  0.41540  0.04720  1.0000 0.569304629
C   C2        1.0  0.01580  0.58460  0.95280  1.0000 0.5626660723
C   C3        1.0  0.42550  0.97840  0.98910  1.0000 0.5417922426
C   C4        1.0  0.57450  0.02160  0.01090  1.0000 0.5417922426
C   C5        1.0  0.55310  0.41710  0.51580  1.0000 0.569304629
C   C6        1.0  0.44690  0.58290  0.48420  1.0000 0.5756575007
C   C7        1.0  0.55710  0.53750  0.92660  1.0000 0.5417922426
C   C8        1.0  0.44290  0.46250  0.07340  1.0000 0.5417922426
O   O1        1.0  0.07570  0.31050  0.01110  1.0000 -0.5201501709
O   O2        1.0  0.92430  0.68950  0.98890  1.0000 -0.5201501709
O   O3        1.0  0.31420  0.09090  0.92460  1.0000 -0.5106712681
O   O4        1.0  0.68580  0.90910  0.07540  1.0000 -0.5106712681
O   O5        1.0  0.53130  0.31110  0.64470  1.0000 -0.5531359476
O   O6        1.0  0.46870  0.68890  0.35530  1.0000 -0.5531359476
O   O7        1.0  0.54170  0.51550  0.82000  1.0000 -0.5022128087
O   O8        1.0  0.45830  0.48450  0.18000  1.0000 -0.5022128087
O   O9        1.0  0.42650  0.83440  0.03740  1.0000 -0.5106712681
O   O10       1.0  0.57350  0.16560  0.96260  1.0000 -0.5106712681
O   O11       1.0  0.86980  0.39630  0.15190  1.0000 -0.5284460645
O   O12       1.0  0.13020  0.60370  0.84810  1.0000 -0.5284460645
O   O13       1.0  0.65340  0.61060  0.92810  1.0000 -0.4928108912
O   O14       1.0  0.34660  0.38940  0.07190  1.0000 -0.4928108912
O   O15       1.0  0.65250  0.40150  0.41080  1.0000 -0.5106712681
O   O16       1.0  0.34750  0.59850  0.58920  1.0000 -0.5022128087
