# DDEC6 charges by PACMAN v1.1 (https://github.com/mtap-research/PACMAN-charge/)
data_2005[Zn][srs]3[ASR]5
_chemical_formula_sum              "Zn24 H192 C288 I48 N96"
_cell_length_a       13.6992
_cell_length_b       27.268
_cell_length_c       45.888
_cell_angle_alpha    90
_cell_angle_beta     90
_cell_angle_gamma    90

_symmetry_space_group_name_H-M    "P 1"
_symmetry_Int_Tables_number       1

loop_
  _symmetry_equiv_pos_as_xyz
  'x, y, z'

loop_
  _atom_site_type_symbol
  _atom_site_label
  _atom_site_symmetry_multiplicity
  _atom_site_fract_x
  _atom_site_fract_y
  _atom_site_fract_z
  _atom_site_occupancy
  _atom_site_charge
Zn  Zn1       1.0  0.86079  0.04807  0.42860  1.0000 0.4521021892
Zn  Zn2       1.0  0.13921  0.45193  0.92860  1.0000 0.4521021892
Zn  Zn3       1.0  0.36079  0.95193  0.07140  1.0000 0.4521021892
Zn  Zn4       1.0  0.63921  0.54807  0.57140  1.0000 0.4521021892
Zn  Zn5       1.0  0.84181  0.24641  0.68892  1.0000 0.4682186928
Zn  Zn6       1.0  0.15819  0.25359  0.18892  1.0000 0.4682186928
Zn  Zn7       1.0  0.34181  0.75359  0.81108  1.0000 0.4682186928
Zn  Zn8       1.0  0.65819  0.74641  0.31108  1.0000 0.4682186928
Zn  Zn9       1.0  0.64266  0.03116  0.59148  1.0000 0.4559093726
Zn  Zn10      1.0  0.35734  0.46884  0.09148  1.0000 0.4559093726
Zn  Zn11      1.0  0.14266  0.96884  0.90852  1.0000 0.4559093726
Zn  Zn12      1.0  0.85734  0.53116  0.40852  1.0000 0.4559093726
Zn  Zn13      1.0  0.13921  0.95193  0.57140  1.0000 0.4521021892
Zn  Zn14      1.0  0.86079  0.54807  0.07140  1.0000 0.4521021892
Zn  Zn15      1.0  0.63921  0.04807  0.92860  1.0000 0.4521021892
Zn  Zn16      1.0  0.36079  0.45193  0.42860  1.0000 0.4521021892
Zn  Zn17      1.0  0.15819  0.75359  0.31108  1.0000 0.4682186928
Zn  Zn18      1.0  0.84181  0.74641  0.81108  1.0000 0.4682186928
Zn  Zn19      1.0  0.65819  0.24641  0.18892  1.0000 0.4682186928
Zn  Zn20      1.0  0.34181  0.25359  0.68892  1.0000 0.4682186928
Zn  Zn21      1.0  0.35734  0.96884  0.40852  1.0000 0.4559093726
Zn  Zn22      1.0  0.64266  0.53116  0.90852  1.0000 0.4559093726
Zn  Zn23      1.0  0.85734  0.03116  0.09148  1.0000 0.4559093726
Zn  Zn24      1.0  0.14266  0.46884  0.59148  1.0000 0.4559093726
H   H1        1.0  0.05570  0.03140  0.45840  1.0000 0.108932308
H   H2        1.0  0.94430  0.46860  0.95840  1.0000 0.108932308
H   H3        1.0  0.55570  0.96860  0.04160  1.0000 0.108932308
H   H4        1.0  0.44430  0.53140  0.54160  1.0000 0.108932308
H   H5        1.0  0.14150  0.05930  0.49790  1.0000 0.1385154207
H   H6        1.0  0.85850  0.44070  0.99790  1.0000 0.1385154207
H   H7        1.0  0.64150  0.94070  0.00210  1.0000 0.1385154207
H   H8        1.0  0.35850  0.55930  0.50210  1.0000 0.1385154207
H   H9        1.0  0.89780  0.12870  0.52630  1.0000 0.1385154207
H   H10       1.0  0.10220  0.37130  0.02630  1.0000 0.1385154207
H   H11       1.0  0.39780  0.87130  0.97370  1.0000 0.1385154207
H   H12       1.0  0.60220  0.62870  0.47370  1.0000 0.1385154207
H   H13       1.0  0.81870  0.09950  0.48520  1.0000 0.108932308
H   H14       1.0  0.18130  0.40050  0.98520  1.0000 0.108932308
H   H15       1.0  0.31870  0.90050  0.01480  1.0000 0.108932308
H   H16       1.0  0.68130  0.59950  0.51480  1.0000 0.108932308
H   H17       1.0  0.35980  0.09390  0.53290  1.0000 0.1338640615
H   H18       1.0  0.64020  0.40610  0.03290  1.0000 0.1338640615
H   H19       1.0  0.85980  0.90610  0.96710  1.0000 0.1338640615
H   H20       1.0  0.14020  0.59390  0.46710  1.0000 0.1338640615
H   H21       1.0  0.51840  0.06550  0.54130  1.0000 0.108932308
H   H22       1.0  0.48160  0.43450  0.04130  1.0000 0.108932308
H   H23       1.0  0.01840  0.93450  0.95870  1.0000 0.108932308
H   H24       1.0  0.98160  0.56550  0.45870  1.0000 0.108932308
H   H25       1.0  0.47320  0.06680  0.62560  1.0000 0.108932308
H   H26       1.0  0.52680  0.43320  0.12560  1.0000 0.108932308
H   H27       1.0  0.97320  0.93320  0.87440  1.0000 0.108932308
H   H28       1.0  0.02680  0.56680  0.37440  1.0000 0.108932308
H   H29       1.0  0.31570  0.09550  0.61970  1.0000 0.1385154207
H   H30       1.0  0.68430  0.40450  0.11970  1.0000 0.1385154207
H   H31       1.0  0.81570  0.90450  0.88030  1.0000 0.1385154207
H   H32       1.0  0.18430  0.59550  0.38030  1.0000 0.1385154207
H   H33       1.0  0.14310  0.19340  0.63520  1.0000 0.1338640615
H   H34       1.0  0.85690  0.30660  0.13520  1.0000 0.1338640615
H   H35       1.0  0.64310  0.80660  0.86480  1.0000 0.1338640615
H   H36       1.0  0.35690  0.69340  0.36480  1.0000 0.1338640615
H   H37       1.0  0.05260  0.22820  0.67260  1.0000 0.108932308
H   H38       1.0  0.94740  0.27180  0.17260  1.0000 0.108932308
H   H39       1.0  0.55260  0.77180  0.82740  1.0000 0.108932308
H   H40       1.0  0.44740  0.72820  0.32740  1.0000 0.108932308
H   H41       1.0  0.80640  0.18980  0.63440  1.0000 0.108932308
H   H42       1.0  0.19360  0.31020  0.13440  1.0000 0.108932308
H   H43       1.0  0.30640  0.81020  0.86560  1.0000 0.108932308
H   H44       1.0  0.69360  0.68980  0.36560  1.0000 0.108932308
H   H45       1.0  0.89080  0.15530  0.59600  1.0000 0.1338640615
H   H46       1.0  0.10920  0.34470  0.09600  1.0000 0.1338640615
H   H47       1.0  0.39080  0.84470  0.90400  1.0000 0.1338640615
H   H48       1.0  0.60920  0.65530  0.40400  1.0000 0.1338640615
H   H49       1.0  0.08880  0.33350  0.22740  1.0000 0.108932308
H   H50       1.0  0.91120  0.16650  0.72740  1.0000 0.108932308
H   H51       1.0  0.58880  0.66650  0.27260  1.0000 0.108932308
H   H52       1.0  0.41120  0.83350  0.77260  1.0000 0.108932308
H   H53       1.0  0.02820  0.34480  0.27460  1.0000 0.1338640615
H   H54       1.0  0.97180  0.15520  0.77460  1.0000 0.1338640615
H   H55       1.0  0.52820  0.65520  0.22540  1.0000 0.1338640615
H   H56       1.0  0.47180  0.84480  0.72540  1.0000 0.1338640615
H   H57       1.0  0.98650  0.19730  0.27920  1.0000 0.1338640615
H   H58       1.0  0.01350  0.30270  0.77920  1.0000 0.1338640615
H   H59       1.0  0.48650  0.80270  0.22080  1.0000 0.1338640615
H   H60       1.0  0.51350  0.69730  0.72080  1.0000 0.1338640615
H   H61       1.0  0.04500  0.19130  0.23210  1.0000 0.108932308
H   H62       1.0  0.95500  0.30870  0.73210  1.0000 0.108932308
H   H63       1.0  0.54500  0.80870  0.26790  1.0000 0.108932308
H   H64       1.0  0.45500  0.69130  0.76790  1.0000 0.108932308
H   H65       1.0  0.94220  0.41270  0.32850  1.0000 0.1338640615
H   H66       1.0  0.05780  0.08730  0.82850  1.0000 0.1338640615
H   H67       1.0  0.44220  0.58730  0.17150  1.0000 0.1338640615
H   H68       1.0  0.55780  0.91270  0.67150  1.0000 0.1338640615
H   H69       1.0  0.91160  0.48780  0.34950  1.0000 0.108932308
H   H70       1.0  0.08840  0.01220  0.84950  1.0000 0.108932308
H   H71       1.0  0.41160  0.51220  0.15050  1.0000 0.108932308
H   H72       1.0  0.58840  0.98780  0.65050  1.0000 0.108932308
H   H73       1.0  0.88960  0.42740  0.42730  1.0000 0.108932308
H   H74       1.0  0.11040  0.07260  0.92730  1.0000 0.108932308
H   H75       1.0  0.38960  0.57260  0.07270  1.0000 0.108932308
H   H76       1.0  0.61040  0.92740  0.57270  1.0000 0.108932308
H   H77       1.0  0.91530  0.35000  0.40760  1.0000 0.1338640615
H   H78       1.0  0.08470  0.15000  0.90760  1.0000 0.1338640615
H   H79       1.0  0.41530  0.65000  0.09240  1.0000 0.1338640615
H   H80       1.0  0.58470  0.85000  0.59240  1.0000 0.1338640615
H   H81       1.0  0.88920  0.22960  0.41180  1.0000 0.1338640615
H   H82       1.0  0.11080  0.27040  0.91180  1.0000 0.1385154207
H   H83       1.0  0.38920  0.77040  0.08820  1.0000 0.1338640615
H   H84       1.0  0.61080  0.72960  0.58820  1.0000 0.1385154207
H   H85       1.0  0.86210  0.15870  0.43790  1.0000 0.1013264004
H   H86       1.0  0.13790  0.34130  0.93790  1.0000 0.1013264004
H   H87       1.0  0.36210  0.84130  0.06210  1.0000 0.1013264004
H   H88       1.0  0.63790  0.65870  0.56210  1.0000 0.1013264004
H   H89       1.0  0.92830  0.07830  0.36900  1.0000 0.1013264004
H   H90       1.0  0.07170  0.42170  0.86900  1.0000 0.1013264004
H   H91       1.0  0.42830  0.92170  0.13100  1.0000 0.1013264004
H   H92       1.0  0.57170  0.57830  0.63100  1.0000 0.1013264004
H   H93       1.0  0.95290  0.14750  0.34120  1.0000 0.1338640615
H   H94       1.0  0.04710  0.35250  0.84120  1.0000 0.1338640615
H   H95       1.0  0.45290  0.85250  0.15880  1.0000 0.1338640615
H   H96       1.0  0.54710  0.64750  0.65880  1.0000 0.1338640615
H   H97       1.0  0.94430  0.96860  0.54160  1.0000 0.108932308
H   H98       1.0  0.05570  0.53140  0.04160  1.0000 0.108932308
H   H99       1.0  0.44430  0.03140  0.95840  1.0000 0.108932308
H   H100      1.0  0.55570  0.46860  0.45840  1.0000 0.108932308
H   H101      1.0  0.85850  0.94070  0.50210  1.0000 0.1385154207
H   H102      1.0  0.14150  0.55930  0.00210  1.0000 0.1385154207
H   H103      1.0  0.35850  0.05930  0.99790  1.0000 0.1385154207
H   H104      1.0  0.64150  0.44070  0.49790  1.0000 0.1385154207
H   H105      1.0  0.10220  0.87130  0.47370  1.0000 0.1385154207
H   H106      1.0  0.89780  0.62870  0.97370  1.0000 0.1385154207
H   H107      1.0  0.60220  0.12870  0.02630  1.0000 0.1385154207
H   H108      1.0  0.39780  0.37130  0.52630  1.0000 0.1385154207
H   H109      1.0  0.18130  0.90050  0.51480  1.0000 0.108932308
H   H110      1.0  0.81870  0.59950  0.01480  1.0000 0.108932308
H   H111      1.0  0.68130  0.09950  0.98520  1.0000 0.108932308
H   H112      1.0  0.31870  0.40050  0.48520  1.0000 0.108932308
H   H113      1.0  0.64020  0.90610  0.46710  1.0000 0.1338640615
H   H114      1.0  0.35980  0.59390  0.96710  1.0000 0.1338640615
H   H115      1.0  0.14020  0.09390  0.03290  1.0000 0.1338640615
H   H116      1.0  0.85980  0.40610  0.53290  1.0000 0.1338640615
H   H117      1.0  0.48160  0.93450  0.45870  1.0000 0.108932308
H   H118      1.0  0.51840  0.56550  0.95870  1.0000 0.108932308
H   H119      1.0  0.98160  0.06550  0.04130  1.0000 0.108932308
H   H120      1.0  0.01840  0.43450  0.54130  1.0000 0.108932308
H   H121      1.0  0.52680  0.93320  0.37440  1.0000 0.108932308
H   H122      1.0  0.47320  0.56680  0.87440  1.0000 0.108932308
H   H123      1.0  0.02680  0.06680  0.12560  1.0000 0.108932308
H   H124      1.0  0.97320  0.43320  0.62560  1.0000 0.108932308
H   H125      1.0  0.68430  0.90450  0.38030  1.0000 0.1385154207
H   H126      1.0  0.31570  0.59550  0.88030  1.0000 0.1385154207
H   H127      1.0  0.18430  0.09550  0.11970  1.0000 0.1385154207
H   H128      1.0  0.81570  0.40450  0.61970  1.0000 0.1385154207
H   H129      1.0  0.85690  0.80660  0.36480  1.0000 0.1338640615
H   H130      1.0  0.14310  0.69340  0.86480  1.0000 0.1338640615
H   H131      1.0  0.35690  0.19340  0.13520  1.0000 0.1338640615
H   H132      1.0  0.64310  0.30660  0.63520  1.0000 0.1338640615
H   H133      1.0  0.94740  0.77180  0.32740  1.0000 0.108932308
H   H134      1.0  0.05260  0.72820  0.82740  1.0000 0.108932308
H   H135      1.0  0.44740  0.22820  0.17260  1.0000 0.108932308
H   H136      1.0  0.55260  0.27180  0.67260  1.0000 0.108932308
H   H137      1.0  0.19360  0.81020  0.36560  1.0000 0.108932308
H   H138      1.0  0.80640  0.68980  0.86560  1.0000 0.108932308
H   H139      1.0  0.69360  0.18980  0.13440  1.0000 0.108932308
H   H140      1.0  0.30640  0.31020  0.63440  1.0000 0.108932308
H   H141      1.0  0.10920  0.84470  0.40400  1.0000 0.1338640615
H   H142      1.0  0.89080  0.65530  0.90400  1.0000 0.1338640615
H   H143      1.0  0.60920  0.15530  0.09600  1.0000 0.1338640615
H   H144      1.0  0.39080  0.34470  0.59600  1.0000 0.1338640615
H   H145      1.0  0.91120  0.66650  0.77260  1.0000 0.108932308
H   H146      1.0  0.08880  0.83350  0.27260  1.0000 0.108932308
H   H147      1.0  0.41120  0.33350  0.72740  1.0000 0.108932308
H   H148      1.0  0.58880  0.16650  0.22740  1.0000 0.108932308
H   H149      1.0  0.97180  0.65520  0.72540  1.0000 0.1338640615
H   H150      1.0  0.02820  0.84480  0.22540  1.0000 0.1338640615
H   H151      1.0  0.47180  0.34480  0.77460  1.0000 0.1338640615
H   H152      1.0  0.52820  0.15520  0.27460  1.0000 0.1338640615
H   H153      1.0  0.01350  0.80270  0.72080  1.0000 0.1338640615
H   H154      1.0  0.98650  0.69730  0.22080  1.0000 0.1338640615
H   H155      1.0  0.51350  0.19730  0.77920  1.0000 0.1338640615
H   H156      1.0  0.48650  0.30270  0.27920  1.0000 0.1338640615
H   H157      1.0  0.95500  0.80870  0.76790  1.0000 0.108932308
H   H158      1.0  0.04500  0.69130  0.26790  1.0000 0.108932308
H   H159      1.0  0.45500  0.19130  0.73210  1.0000 0.108932308
H   H160      1.0  0.54500  0.30870  0.23210  1.0000 0.108932308
H   H161      1.0  0.05780  0.58730  0.67150  1.0000 0.1338640615
H   H162      1.0  0.94220  0.91270  0.17150  1.0000 0.1338640615
H   H163      1.0  0.55780  0.41270  0.82850  1.0000 0.1338640615
H   H164      1.0  0.44220  0.08730  0.32850  1.0000 0.1338640615
H   H165      1.0  0.08840  0.51220  0.65050  1.0000 0.108932308
H   H166      1.0  0.91160  0.98780  0.15050  1.0000 0.108932308
H   H167      1.0  0.58840  0.48780  0.84950  1.0000 0.108932308
H   H168      1.0  0.41160  0.01220  0.34950  1.0000 0.108932308
H   H169      1.0  0.11040  0.57260  0.57270  1.0000 0.108932308
H   H170      1.0  0.88960  0.92740  0.07270  1.0000 0.108932308
H   H171      1.0  0.61040  0.42740  0.92730  1.0000 0.108932308
H   H172      1.0  0.38960  0.07260  0.42730  1.0000 0.108932308
H   H173      1.0  0.08470  0.65000  0.59240  1.0000 0.1338640615
H   H174      1.0  0.91530  0.85000  0.09240  1.0000 0.1338640615
H   H175      1.0  0.58470  0.35000  0.90760  1.0000 0.1338640615
H   H176      1.0  0.41530  0.15000  0.40760  1.0000 0.1338640615
H   H177      1.0  0.11080  0.77040  0.58820  1.0000 0.1385154207
H   H178      1.0  0.88920  0.72960  0.08820  1.0000 0.1338640615
H   H179      1.0  0.61080  0.22960  0.91180  1.0000 0.1385154207
H   H180      1.0  0.38920  0.27040  0.41180  1.0000 0.1385154207
H   H181      1.0  0.13790  0.84130  0.56210  1.0000 0.1013264004
H   H182      1.0  0.86210  0.65870  0.06210  1.0000 0.1013264004
H   H183      1.0  0.63790  0.15870  0.93790  1.0000 0.1013264004
H   H184      1.0  0.36210  0.34130  0.43790  1.0000 0.1013264004
H   H185      1.0  0.07170  0.92170  0.63100  1.0000 0.1013264004
H   H186      1.0  0.92830  0.57830  0.13100  1.0000 0.1013264004
H   H187      1.0  0.57170  0.07830  0.86900  1.0000 0.1013264004
H   H188      1.0  0.42830  0.42170  0.36900  1.0000 0.1013264004
H   H189      1.0  0.04710  0.85250  0.65880  1.0000 0.1338640615
H   H190      1.0  0.95290  0.64750  0.15880  1.0000 0.1338640615
H   H191      1.0  0.54710  0.14750  0.84120  1.0000 0.1338640615
H   H192      1.0  0.45290  0.35250  0.34120  1.0000 0.1338640615
C   C1        1.0  0.02390  0.05200  0.47215  1.0000 0.0790151109
C   C2        1.0  0.97610  0.44800  0.97215  1.0000 0.0790151109
C   C3        1.0  0.52390  0.94800  0.02785  1.0000 0.0790151109
C   C4        1.0  0.47610  0.55200  0.52785  1.0000 0.0790151109
C   C5        1.0  0.07480  0.06800  0.49566  1.0000 -0.1442997463
C   C6        1.0  0.92520  0.43200  0.99566  1.0000 -0.1442997463
C   C7        1.0  0.57480  0.93200  0.00434  1.0000 -0.1442997463
C   C8        1.0  0.42520  0.56800  0.50434  1.0000 -0.1442997463
C   C9        1.0  0.02980  0.09720  0.51644  1.0000 0.0606434937
C   C10       1.0  0.97020  0.40280  0.01644  1.0000 0.0606434937
C   C11       1.0  0.52980  0.90280  0.98356  1.0000 0.0606434937
C   C12       1.0  0.47020  0.59720  0.48356  1.0000 0.0606434937
C   C13       1.0  0.93170  0.10910  0.51248  1.0000 -0.1500063265
C   C14       1.0  0.06830  0.39090  0.01248  1.0000 -0.1500063265
C   C15       1.0  0.43170  0.89090  0.98752  1.0000 -0.1500063265
C   C16       1.0  0.56830  0.60910  0.48752  1.0000 -0.1500063265
C   C17       1.0  0.88570  0.09160  0.48793  1.0000 0.0715109563
C   C18       1.0  0.11430  0.40840  0.98793  1.0000 0.0715109563
C   C19       1.0  0.38570  0.90840  0.01207  1.0000 0.0715109563
C   C20       1.0  0.61430  0.59160  0.51207  1.0000 0.0715109563
C   C21       1.0  0.08240  0.11390  0.54305  1.0000 0.362246984
C   C22       1.0  0.91760  0.38610  0.04305  1.0000 0.362246984
C   C23       1.0  0.58240  0.88610  0.95695  1.0000 0.362246984
C   C24       1.0  0.41760  0.61390  0.45695  1.0000 0.362246984
C   C25       1.0  0.21870  0.11390  0.57039  1.0000 0.3705500041
C   C26       1.0  0.78130  0.38610  0.07039  1.0000 0.3705500041
C   C27       1.0  0.71870  0.88610  0.92961  1.0000 0.3705500041
C   C28       1.0  0.28130  0.61390  0.42961  1.0000 0.3705500041
C   C29       1.0  0.08070  0.14810  0.58728  1.0000 0.362246984
C   C30       1.0  0.91930  0.35190  0.08728  1.0000 0.362246984
C   C31       1.0  0.58070  0.85190  0.91272  1.0000 0.362246984
C   C32       1.0  0.41930  0.64810  0.41272  1.0000 0.362246984
C   C33       1.0  0.32130  0.09810  0.57542  1.0000 0.0606434937
C   C34       1.0  0.67870  0.40190  0.07542  1.0000 0.0606434937
C   C35       1.0  0.82130  0.90190  0.92458  1.0000 0.0606434937
C   C36       1.0  0.17870  0.59810  0.42458  1.0000 0.0606434937
C   C37       1.0  0.38190  0.08860  0.55230  1.0000 -0.1283355045
C   C38       1.0  0.61810  0.41140  0.05230  1.0000 -0.1283355045
C   C39       1.0  0.88190  0.91140  0.94770  1.0000 -0.1283355045
C   C40       1.0  0.11810  0.58860  0.44770  1.0000 -0.1283355045
C   C41       1.0  0.47630  0.07100  0.55738  1.0000 0.1013264004
C   C42       1.0  0.52370  0.42900  0.05738  1.0000 0.1013264004
C   C43       1.0  0.97630  0.92900  0.94262  1.0000 0.1013264004
C   C44       1.0  0.02370  0.57100  0.44262  1.0000 0.1013264004
C   C45       1.0  0.44920  0.07200  0.60640  1.0000 0.0790151109
C   C46       1.0  0.55080  0.42800  0.10640  1.0000 0.0790151109
C   C47       1.0  0.94920  0.92800  0.89360  1.0000 0.0790151109
C   C48       1.0  0.05080  0.57200  0.39360  1.0000 0.0790151109
C   C49       1.0  0.35570  0.08950  0.60316  1.0000 -0.1206603299
C   C50       1.0  0.64430  0.41050  0.10316  1.0000 -0.1206603299
C   C51       1.0  0.85570  0.91050  0.89684  1.0000 -0.1206603299
C   C52       1.0  0.14430  0.58950  0.39684  1.0000 -0.1206603299
C   C53       1.0  0.02650  0.17080  0.61161  1.0000 0.0540244415
C   C54       1.0  0.97350  0.32920  0.11161  1.0000 0.0540244415
C   C55       1.0  0.52650  0.82920  0.88839  1.0000 0.0540244415
C   C56       1.0  0.47350  0.67080  0.38839  1.0000 0.0540244415
C   C57       1.0  0.07380  0.19250  0.63455  1.0000 -0.1206603299
C   C58       1.0  0.92620  0.30750  0.13455  1.0000 -0.1206603299
C   C59       1.0  0.57380  0.80750  0.86545  1.0000 -0.1206603299
C   C60       1.0  0.42620  0.69250  0.36545  1.0000 -0.1206603299
C   C61       1.0  0.01940  0.21310  0.65683  1.0000 0.0895114142
C   C62       1.0  0.98060  0.28690  0.15683  1.0000 0.0895114142
C   C63       1.0  0.51940  0.78690  0.84317  1.0000 0.0895114142
C   C64       1.0  0.48060  0.71310  0.34317  1.0000 0.0895114142
C   C65       1.0  0.87580  0.19080  0.63450  1.0000 0.0895114142
C   C66       1.0  0.12420  0.30920  0.13450  1.0000 0.0895114142
C   C67       1.0  0.37580  0.80920  0.86550  1.0000 0.0895114142
C   C68       1.0  0.62420  0.69080  0.36550  1.0000 0.0895114142
C   C69       1.0  0.92540  0.17000  0.61164  1.0000 -0.1206603299
C   C70       1.0  0.07460  0.33000  0.11164  1.0000 -0.1206603299
C   C71       1.0  0.42540  0.83000  0.88836  1.0000 -0.1206603299
C   C72       1.0  0.57460  0.67000  0.38836  1.0000 -0.1206603299
C   C73       1.0  0.06900  0.30560  0.23830  1.0000 0.0895114142
C   C74       1.0  0.93100  0.19440  0.73830  1.0000 0.0895114142
C   C75       1.0  0.56900  0.69440  0.26170  1.0000 0.0895114142
C   C76       1.0  0.43100  0.80560  0.76170  1.0000 0.0895114142
C   C77       1.0  0.03300  0.31280  0.26653  1.0000 -0.158810944
C   C78       1.0  0.96700  0.18720  0.76653  1.0000 -0.158810944
C   C79       1.0  0.53300  0.68720  0.23347  1.0000 -0.158810944
C   C80       1.0  0.46700  0.81280  0.73347  1.0000 -0.158810944
C   C81       1.0  0.00470  0.27210  0.28220  1.0000 0.0715109563
C   C82       1.0  0.99530  0.22790  0.78220  1.0000 0.0715109563
C   C83       1.0  0.50470  0.72790  0.21780  1.0000 0.0715109563
C   C84       1.0  0.49530  0.77210  0.71780  1.0000 0.0715109563
C   C85       1.0  0.00810  0.22570  0.26907  1.0000 -0.1500063265
C   C86       1.0  0.99190  0.27430  0.76907  1.0000 -0.1500063265
C   C87       1.0  0.50810  0.77430  0.23093  1.0000 -0.1500063265
C   C88       1.0  0.49190  0.72570  0.73093  1.0000 -0.1500063265
C   C89       1.0  0.04360  0.22260  0.24121  1.0000 0.0895114142
C   C90       1.0  0.95640  0.27740  0.74121  1.0000 0.0895114142
C   C91       1.0  0.54360  0.77740  0.25879  1.0000 0.0895114142
C   C92       1.0  0.45640  0.72260  0.75879  1.0000 0.0895114142
C   C93       1.0  0.97430  0.27740  0.31342  1.0000 0.3705500041
C   C94       1.0  0.02570  0.22260  0.81342  1.0000 0.3705500041
C   C95       1.0  0.47430  0.72260  0.18658  1.0000 0.3705500041
C   C96       1.0  0.52570  0.77740  0.68658  1.0000 0.3705500041
C   C97       1.0  0.94060  0.32360  0.35208  1.0000 0.362246984
C   C98       1.0  0.05940  0.17640  0.85208  1.0000 0.362246984
C   C99       1.0  0.44060  0.67640  0.14792  1.0000 0.362246984
C   C100      1.0  0.55940  0.82360  0.64792  1.0000 0.362246984
C   C101      1.0  0.93870  0.24160  0.35612  1.0000 0.3705500041
C   C102      1.0  0.06130  0.25840  0.85612  1.0000 0.3705500041
C   C103      1.0  0.43870  0.75840  0.14388  1.0000 0.3705500041
C   C104      1.0  0.56130  0.74160  0.64388  1.0000 0.3705500041
C   C105      1.0  0.92880  0.37240  0.36541  1.0000 0.0606434937
C   C106      1.0  0.07120  0.12760  0.86541  1.0000 0.0606434937
C   C107      1.0  0.42880  0.62760  0.13459  1.0000 0.0606434937
C   C108      1.0  0.57120  0.87240  0.63459  1.0000 0.0606434937
C   C109      1.0  0.92960  0.41470  0.34883  1.0000 -0.158810944
C   C110      1.0  0.07040  0.08530  0.84883  1.0000 -0.158810944
C   C111      1.0  0.42960  0.58530  0.15117  1.0000 -0.158810944
C   C112      1.0  0.57040  0.91470  0.65117  1.0000 -0.158810944
C   C113      1.0  0.91220  0.45940  0.36148  1.0000 0.0895114142
C   C114      1.0  0.08780  0.04060  0.86148  1.0000 0.0895114142
C   C115      1.0  0.41220  0.54060  0.13852  1.0000 0.0895114142
C   C116      1.0  0.58780  0.95940  0.63852  1.0000 0.0895114142
C   C117      1.0  0.89870  0.42410  0.40686  1.0000 0.0895114142
C   C118      1.0  0.10130  0.07590  0.90686  1.0000 0.0895114142
C   C119      1.0  0.39870  0.57590  0.09314  1.0000 0.0895114142
C   C120      1.0  0.60130  0.92410  0.59314  1.0000 0.0895114142
C   C121      1.0  0.91440  0.37790  0.39517  1.0000 -0.1442997463
C   C122      1.0  0.08560  0.12210  0.89517  1.0000 -0.1442997463
C   C123      1.0  0.41440  0.62210  0.10483  1.0000 -0.1442997463
C   C124      1.0  0.58560  0.87790  0.60483  1.0000 -0.1442997463
C   C125      1.0  0.92360  0.19650  0.37365  1.0000 0.0606434937
C   C126      1.0  0.07640  0.30350  0.87365  1.0000 0.0606434937
C   C127      1.0  0.42360  0.80350  0.12635  1.0000 0.0606434937
C   C128      1.0  0.57640  0.69650  0.62635  1.0000 0.0606434937
C   C129      1.0  0.89680  0.19870  0.40256  1.0000 -0.158810944
C   C130      1.0  0.10320  0.30130  0.90256  1.0000 -0.158810944
C   C131      1.0  0.39680  0.80130  0.09744  1.0000 -0.158810944
C   C132      1.0  0.60320  0.69870  0.59744  1.0000 -0.158810944
C   C133      1.0  0.88110  0.15640  0.41800  1.0000 0.0715109563
C   C134      1.0  0.11890  0.34360  0.91800  1.0000 0.0715109563
C   C135      1.0  0.38110  0.84360  0.08200  1.0000 0.0715109563
C   C136      1.0  0.61890  0.65640  0.58200  1.0000 0.0715109563
C   C137      1.0  0.91920  0.10960  0.37774  1.0000 0.0895114142
C   C138      1.0  0.08080  0.39040  0.87774  1.0000 0.0895114142
C   C139      1.0  0.41920  0.89040  0.12226  1.0000 0.0895114142
C   C140      1.0  0.58080  0.60960  0.62226  1.0000 0.0895114142
C   C141      1.0  0.93470  0.15050  0.36112  1.0000 -0.158810944
C   C142      1.0  0.06530  0.34950  0.86112  1.0000 -0.158810944
C   C143      1.0  0.43470  0.84950  0.13888  1.0000 -0.158810944
C   C144      1.0  0.56530  0.65050  0.63888  1.0000 -0.158810944
C   C145      1.0  0.97610  0.94800  0.52785  1.0000 0.0790151109
C   C146      1.0  0.02390  0.55200  0.02785  1.0000 0.0790151109
C   C147      1.0  0.47610  0.05200  0.97215  1.0000 0.0790151109
C   C148      1.0  0.52390  0.44800  0.47215  1.0000 0.0790151109
C   C149      1.0  0.92520  0.93200  0.50434  1.0000 -0.1442997463
C   C150      1.0  0.07480  0.56800  0.00434  1.0000 -0.1442997463
C   C151      1.0  0.42520  0.06800  0.99566  1.0000 -0.1442997463
C   C152      1.0  0.57480  0.43200  0.49566  1.0000 -0.1442997463
C   C153      1.0  0.97020  0.90280  0.48356  1.0000 0.0606434937
C   C154      1.0  0.02980  0.59720  0.98356  1.0000 0.0606434937
C   C155      1.0  0.47020  0.09720  0.01644  1.0000 0.0606434937
C   C156      1.0  0.52980  0.40280  0.51644  1.0000 0.0606434937
C   C157      1.0  0.06830  0.89090  0.48752  1.0000 -0.1500063265
C   C158      1.0  0.93170  0.60910  0.98752  1.0000 -0.1500063265
C   C159      1.0  0.56830  0.10910  0.01248  1.0000 -0.1500063265
C   C160      1.0  0.43170  0.39090  0.51248  1.0000 -0.1500063265
C   C161      1.0  0.11430  0.90840  0.51207  1.0000 0.0715109563
C   C162      1.0  0.88570  0.59160  0.01207  1.0000 0.0715109563
C   C163      1.0  0.61430  0.09160  0.98793  1.0000 0.0715109563
C   C164      1.0  0.38570  0.40840  0.48793  1.0000 0.0715109563
C   C165      1.0  0.91760  0.88610  0.45695  1.0000 0.362246984
C   C166      1.0  0.08240  0.61390  0.95695  1.0000 0.362246984
C   C167      1.0  0.41760  0.11390  0.04305  1.0000 0.362246984
C   C168      1.0  0.58240  0.38610  0.54305  1.0000 0.362246984
C   C169      1.0  0.78130  0.88610  0.42961  1.0000 0.3705500041
C   C170      1.0  0.21870  0.61390  0.92961  1.0000 0.3705500041
C   C171      1.0  0.28130  0.11390  0.07039  1.0000 0.3705500041
C   C172      1.0  0.71870  0.38610  0.57039  1.0000 0.3705500041
C   C173      1.0  0.91930  0.85190  0.41272  1.0000 0.362246984
C   C174      1.0  0.08070  0.64810  0.91272  1.0000 0.362246984
C   C175      1.0  0.41930  0.14810  0.08728  1.0000 0.362246984
C   C176      1.0  0.58070  0.35190  0.58728  1.0000 0.362246984
C   C177      1.0  0.67870  0.90190  0.42458  1.0000 0.0606434937
C   C178      1.0  0.32130  0.59810  0.92458  1.0000 0.0606434937
C   C179      1.0  0.17870  0.09810  0.07542  1.0000 0.0606434937
C   C180      1.0  0.82130  0.40190  0.57542  1.0000 0.0606434937
C   C181      1.0  0.61810  0.91140  0.44770  1.0000 -0.1283355045
C   C182      1.0  0.38190  0.58860  0.94770  1.0000 -0.1283355045
C   C183      1.0  0.11810  0.08860  0.05230  1.0000 -0.1283355045
C   C184      1.0  0.88190  0.41140  0.55230  1.0000 -0.1283355045
C   C185      1.0  0.52370  0.92900  0.44262  1.0000 0.1013264004
C   C186      1.0  0.47630  0.57100  0.94262  1.0000 0.1013264004
C   C187      1.0  0.02370  0.07100  0.05738  1.0000 0.1013264004
C   C188      1.0  0.97630  0.42900  0.55738  1.0000 0.1013264004
C   C189      1.0  0.55080  0.92800  0.39360  1.0000 0.0790151109
C   C190      1.0  0.44920  0.57200  0.89360  1.0000 0.0790151109
C   C191      1.0  0.05080  0.07200  0.10640  1.0000 0.0790151109
C   C192      1.0  0.94920  0.42800  0.60640  1.0000 0.0790151109
C   C193      1.0  0.64430  0.91050  0.39684  1.0000 -0.1206603299
C   C194      1.0  0.35570  0.58950  0.89684  1.0000 -0.1206603299
C   C195      1.0  0.14430  0.08950  0.10316  1.0000 -0.1206603299
C   C196      1.0  0.85570  0.41050  0.60316  1.0000 -0.1206603299
C   C197      1.0  0.97350  0.82920  0.38839  1.0000 0.0540244415
C   C198      1.0  0.02650  0.67080  0.88839  1.0000 0.0540244415
C   C199      1.0  0.47350  0.17080  0.11161  1.0000 0.0540244415
C   C200      1.0  0.52650  0.32920  0.61161  1.0000 0.0540244415
C   C201      1.0  0.92620  0.80750  0.36545  1.0000 -0.1206603299
C   C202      1.0  0.07380  0.69250  0.86545  1.0000 -0.1206603299
C   C203      1.0  0.42620  0.19250  0.13455  1.0000 -0.1206603299
C   C204      1.0  0.57380  0.30750  0.63455  1.0000 -0.1206603299
C   C205      1.0  0.98060  0.78690  0.34317  1.0000 0.0895114142
C   C206      1.0  0.01940  0.71310  0.84317  1.0000 0.0895114142
C   C207      1.0  0.48060  0.21310  0.15683  1.0000 0.0895114142
C   C208      1.0  0.51940  0.28690  0.65683  1.0000 0.0895114142
C   C209      1.0  0.12420  0.80920  0.36550  1.0000 0.0895114142
C   C210      1.0  0.87580  0.69080  0.86550  1.0000 0.0895114142
C   C211      1.0  0.62420  0.19080  0.13450  1.0000 0.0895114142
C   C212      1.0  0.37580  0.30920  0.63450  1.0000 0.0895114142
C   C213      1.0  0.07460  0.83000  0.38836  1.0000 -0.1206603299
C   C214      1.0  0.92540  0.67000  0.88836  1.0000 -0.1206603299
C   C215      1.0  0.57460  0.17000  0.11164  1.0000 -0.1206603299
C   C216      1.0  0.42540  0.33000  0.61164  1.0000 -0.1206603299
C   C217      1.0  0.93100  0.69440  0.76170  1.0000 0.0895114142
C   C218      1.0  0.06900  0.80560  0.26170  1.0000 0.0895114142
C   C219      1.0  0.43100  0.30560  0.73830  1.0000 0.0895114142
C   C220      1.0  0.56900  0.19440  0.23830  1.0000 0.0895114142
C   C221      1.0  0.96700  0.68720  0.73347  1.0000 -0.158810944
C   C222      1.0  0.03300  0.81280  0.23347  1.0000 -0.158810944
C   C223      1.0  0.46700  0.31280  0.76653  1.0000 -0.158810944
C   C224      1.0  0.53300  0.18720  0.26653  1.0000 -0.158810944
C   C225      1.0  0.99530  0.72790  0.71780  1.0000 0.0715109563
C   C226      1.0  0.00470  0.77210  0.21780  1.0000 0.0715109563
C   C227      1.0  0.49530  0.27210  0.78220  1.0000 0.0715109563
C   C228      1.0  0.50470  0.22790  0.28220  1.0000 0.0715109563
C   C229      1.0  0.99190  0.77430  0.73093  1.0000 -0.1500063265
C   C230      1.0  0.00810  0.72570  0.23093  1.0000 -0.1500063265
C   C231      1.0  0.49190  0.22570  0.76907  1.0000 -0.1500063265
C   C232      1.0  0.50810  0.27430  0.26907  1.0000 -0.1500063265
C   C233      1.0  0.95640  0.77740  0.75879  1.0000 0.0895114142
C   C234      1.0  0.04360  0.72260  0.25879  1.0000 0.0895114142
C   C235      1.0  0.45640  0.22260  0.74121  1.0000 0.0895114142
C   C236      1.0  0.54360  0.27740  0.24121  1.0000 0.0895114142
C   C237      1.0  0.02570  0.72260  0.68658  1.0000 0.3705500041
C   C238      1.0  0.97430  0.77740  0.18658  1.0000 0.3705500041
C   C239      1.0  0.52570  0.27740  0.81342  1.0000 0.3705500041
C   C240      1.0  0.47430  0.22260  0.31342  1.0000 0.3705500041
C   C241      1.0  0.05940  0.67640  0.64792  1.0000 0.362246984
C   C242      1.0  0.94060  0.82360  0.14792  1.0000 0.362246984
C   C243      1.0  0.55940  0.32360  0.85208  1.0000 0.362246984
C   C244      1.0  0.44060  0.17640  0.35208  1.0000 0.362246984
C   C245      1.0  0.06130  0.75840  0.64388  1.0000 0.3705500041
C   C246      1.0  0.93870  0.74160  0.14388  1.0000 0.3705500041
C   C247      1.0  0.56130  0.24160  0.85612  1.0000 0.3705500041
C   C248      1.0  0.43870  0.25840  0.35612  1.0000 0.3705500041
C   C249      1.0  0.07120  0.62760  0.63459  1.0000 0.0606434937
C   C250      1.0  0.92880  0.87240  0.13459  1.0000 0.0606434937
C   C251      1.0  0.57120  0.37240  0.86541  1.0000 0.0606434937
C   C252      1.0  0.42880  0.12760  0.36541  1.0000 0.0606434937
C   C253      1.0  0.07040  0.58530  0.65117  1.0000 -0.158810944
C   C254      1.0  0.92960  0.91470  0.15117  1.0000 -0.158810944
C   C255      1.0  0.57040  0.41470  0.84883  1.0000 -0.158810944
C   C256      1.0  0.42960  0.08530  0.34883  1.0000 -0.158810944
C   C257      1.0  0.08780  0.54060  0.63852  1.0000 0.0895114142
C   C258      1.0  0.91220  0.95940  0.13852  1.0000 0.0895114142
C   C259      1.0  0.58780  0.45940  0.86148  1.0000 0.0895114142
C   C260      1.0  0.41220  0.04060  0.36148  1.0000 0.0895114142
C   C261      1.0  0.10130  0.57590  0.59314  1.0000 0.0895114142
C   C262      1.0  0.89870  0.92410  0.09314  1.0000 0.0895114142
C   C263      1.0  0.60130  0.42410  0.90686  1.0000 0.0895114142
C   C264      1.0  0.39870  0.07590  0.40686  1.0000 0.0895114142
C   C265      1.0  0.08560  0.62210  0.60483  1.0000 -0.1442997463
C   C266      1.0  0.91440  0.87790  0.10483  1.0000 -0.1442997463
C   C267      1.0  0.58560  0.37790  0.89517  1.0000 -0.1442997463
C   C268      1.0  0.41440  0.12210  0.39517  1.0000 -0.1442997463
C   C269      1.0  0.07640  0.80350  0.62635  1.0000 0.0606434937
C   C270      1.0  0.92360  0.69650  0.12635  1.0000 0.0606434937
C   C271      1.0  0.57640  0.19650  0.87365  1.0000 0.0606434937
C   C272      1.0  0.42360  0.30350  0.37365  1.0000 0.0606434937
C   C273      1.0  0.10320  0.80130  0.59744  1.0000 -0.158810944
C   C274      1.0  0.89680  0.69870  0.09744  1.0000 -0.158810944
C   C275      1.0  0.60320  0.19870  0.90256  1.0000 -0.158810944
C   C276      1.0  0.39680  0.30130  0.40256  1.0000 -0.158810944
C   C277      1.0  0.11890  0.84360  0.58200  1.0000 0.0715109563
C   C278      1.0  0.88110  0.65640  0.08200  1.0000 0.0715109563
C   C279      1.0  0.61890  0.15640  0.91800  1.0000 0.0715109563
C   C280      1.0  0.38110  0.34360  0.41800  1.0000 0.0715109563
C   C281      1.0  0.08080  0.89040  0.62226  1.0000 0.0895114142
C   C282      1.0  0.91920  0.60960  0.12226  1.0000 0.0895114142
C   C283      1.0  0.58080  0.10960  0.87774  1.0000 0.0895114142
C   C284      1.0  0.41920  0.39040  0.37774  1.0000 0.0895114142
C   C285      1.0  0.06530  0.84950  0.63888  1.0000 -0.158810944
C   C286      1.0  0.93470  0.65050  0.13888  1.0000 -0.158810944
C   C287      1.0  0.56530  0.15050  0.86112  1.0000 -0.158810944
C   C288      1.0  0.43470  0.34950  0.36112  1.0000 -0.158810944
I   I1        1.0  0.95865  0.98193  0.40269  1.0000 -0.4312499321
I   I2        1.0  0.04135  0.51807  0.90269  1.0000 -0.4312499321
I   I3        1.0  0.45865  0.01807  0.09731  1.0000 -0.4312499321
I   I4        1.0  0.54135  0.48193  0.59731  1.0000 -0.4312499321
I   I5        1.0  0.67698  0.04743  0.43646  1.0000 -0.4582661692
I   I6        1.0  0.32302  0.45257  0.93646  1.0000 -0.4540116179
I   I7        1.0  0.17698  0.95257  0.06354  1.0000 -0.4540116179
I   I8        1.0  0.82302  0.54743  0.56354  1.0000 -0.4582661692
I   I9        1.0  0.68838  0.19445  0.69642  1.0000 -0.4582661692
I   I10       1.0  0.31162  0.30555  0.19642  1.0000 -0.4582661692
I   I11       1.0  0.18838  0.80555  0.80358  1.0000 -0.4582661692
I   I12       1.0  0.81162  0.69445  0.30358  1.0000 -0.4582661692
I   I13       1.0  0.82723  0.33753  0.67776  1.0000 -0.4582661692
I   I14       1.0  0.17277  0.16247  0.17776  1.0000 -0.4582661692
I   I15       1.0  0.32723  0.66247  0.82224  1.0000 -0.4582661692
I   I16       1.0  0.67277  0.83753  0.32224  1.0000 -0.4582661692
I   I17       1.0  0.72526  0.07766  0.63233  1.0000 -0.4312499321
I   I18       1.0  0.27474  0.42234  0.13233  1.0000 -0.4312499321
I   I19       1.0  0.22526  0.92234  0.86767  1.0000 -0.4312499321
I   I20       1.0  0.77474  0.57766  0.36767  1.0000 -0.4312499321
I   I21       1.0  0.72364  0.01664  0.54229  1.0000 -0.4658569533
I   I22       1.0  0.27636  0.48336  0.04229  1.0000 -0.4658569533
I   I23       1.0  0.22364  0.98336  0.95771  1.0000 -0.4658569533
I   I24       1.0  0.77636  0.51664  0.45771  1.0000 -0.4658569533
I   I25       1.0  0.04135  0.01807  0.59731  1.0000 -0.4312499321
I   I26       1.0  0.95865  0.48193  0.09731  1.0000 -0.4312499321
I   I27       1.0  0.54135  0.98193  0.90269  1.0000 -0.4312499321
I   I28       1.0  0.45865  0.51807  0.40269  1.0000 -0.4312499321
I   I29       1.0  0.32302  0.95257  0.56354  1.0000 -0.4540116179
I   I30       1.0  0.67698  0.54743  0.06354  1.0000 -0.4582661692
I   I31       1.0  0.82302  0.04743  0.93646  1.0000 -0.4582661692
I   I32       1.0  0.17698  0.45257  0.43646  1.0000 -0.4540116179
I   I33       1.0  0.31162  0.80555  0.30358  1.0000 -0.4582661692
I   I34       1.0  0.68838  0.69445  0.80358  1.0000 -0.4582661692
I   I35       1.0  0.81162  0.19445  0.19642  1.0000 -0.4582661692
I   I36       1.0  0.18838  0.30555  0.69642  1.0000 -0.4582661692
I   I37       1.0  0.17277  0.66247  0.32224  1.0000 -0.4582661692
I   I38       1.0  0.82723  0.83753  0.82224  1.0000 -0.4582661692
I   I39       1.0  0.67277  0.33753  0.17776  1.0000 -0.4582661692
I   I40       1.0  0.32723  0.16247  0.67776  1.0000 -0.4582661692
I   I41       1.0  0.27474  0.92234  0.36767  1.0000 -0.4312499321
I   I42       1.0  0.72526  0.57766  0.86767  1.0000 -0.4312499321
I   I43       1.0  0.77474  0.07766  0.13233  1.0000 -0.4312499321
I   I44       1.0  0.22526  0.42234  0.63233  1.0000 -0.4312499321
I   I45       1.0  0.27636  0.98336  0.45771  1.0000 -0.4658569533
I   I46       1.0  0.72364  0.51664  0.95771  1.0000 -0.4658569533
I   I47       1.0  0.77636  0.01664  0.04229  1.0000 -0.4658569533
I   I48       1.0  0.22364  0.48336  0.54229  1.0000 -0.4658569533
N   N1        1.0  0.92990  0.06410  0.46760  1.0000 -0.1891342687
N   N2        1.0  0.07010  0.43590  0.96760  1.0000 -0.1891342687
N   N3        1.0  0.42990  0.93590  0.03240  1.0000 -0.1891342687
N   N4        1.0  0.57010  0.56410  0.53240  1.0000 -0.1891342687
N   N5        1.0  0.17830  0.10250  0.54478  1.0000 -0.3839711833
N   N6        1.0  0.82170  0.39750  0.04478  1.0000 -0.3839711833
N   N7        1.0  0.67830  0.89750  0.95522  1.0000 -0.3839711833
N   N8        1.0  0.32170  0.60250  0.45522  1.0000 -0.3839711833
N   N9        1.0  0.17340  0.13660  0.59244  1.0000 -0.3722631323
N   N10       1.0  0.82660  0.36340  0.09244  1.0000 -0.3722631323
N   N11       1.0  0.67340  0.86340  0.90756  1.0000 -0.3722631323
N   N12       1.0  0.32660  0.63660  0.40756  1.0000 -0.3722631323
N   N13       1.0  0.03050  0.13770  0.56293  1.0000 -0.3839711833
N   N14       1.0  0.96950  0.36230  0.06293  1.0000 -0.3839711833
N   N15       1.0  0.53050  0.86230  0.93707  1.0000 -0.3839711833
N   N16       1.0  0.46950  0.63770  0.43707  1.0000 -0.3839711833
N   N17       1.0  0.50830  0.06210  0.58385  1.0000 -0.1789738294
N   N18       1.0  0.49170  0.43790  0.08385  1.0000 -0.1789738294
N   N19       1.0  0.00830  0.93790  0.91615  1.0000 -0.1789738294
N   N20       1.0  0.99170  0.56210  0.41615  1.0000 -0.1789738294
N   N21       1.0  0.92090  0.21250  0.65697  1.0000 -0.1747700932
N   N22       1.0  0.07910  0.28750  0.15697  1.0000 -0.1747700932
N   N23       1.0  0.42090  0.78750  0.84303  1.0000 -0.1747700932
N   N24       1.0  0.57910  0.71250  0.34303  1.0000 -0.1747700932
N   N25       1.0  0.07660  0.26170  0.22610  1.0000 -0.1891342687
N   N26       1.0  0.92340  0.23830  0.72610  1.0000 -0.1891342687
N   N27       1.0  0.57660  0.73830  0.27390  1.0000 -0.1891342687
N   N28       1.0  0.42340  0.76170  0.77390  1.0000 -0.1891342687
N   N29       1.0  0.96550  0.32220  0.32394  1.0000 -0.4077413368
N   N30       1.0  0.03450  0.17780  0.82394  1.0000 -0.4077413368
N   N31       1.0  0.46550  0.67780  0.17606  1.0000 -0.4077413368
N   N32       1.0  0.53450  0.82220  0.67606  1.0000 -0.4077413368
N   N33       1.0  0.92770  0.28460  0.36935  1.0000 -0.4168937008
N   N34       1.0  0.07230  0.21540  0.86935  1.0000 -0.4168937008
N   N35       1.0  0.42770  0.71540  0.13065  1.0000 -0.4168937008
N   N36       1.0  0.57230  0.78460  0.63065  1.0000 -0.4168937008
N   N37       1.0  0.96120  0.23540  0.32816  1.0000 -0.4168937008
N   N38       1.0  0.03880  0.26460  0.82816  1.0000 -0.4168937008
N   N39       1.0  0.46120  0.76460  0.17184  1.0000 -0.4168937008
N   N40       1.0  0.53880  0.73540  0.67184  1.0000 -0.4168937008
N   N41       1.0  0.89610  0.46430  0.39011  1.0000 -0.1789738294
N   N42       1.0  0.10390  0.03570  0.89011  1.0000 -0.1789738294
N   N43       1.0  0.39610  0.53570  0.10989  1.0000 -0.1789738294
N   N44       1.0  0.60390  0.96430  0.60989  1.0000 -0.1789738294
N   N45       1.0  0.89160  0.11150  0.40598  1.0000 -0.1789738294
N   N46       1.0  0.10840  0.38850  0.90598  1.0000 -0.1789738294
N   N47       1.0  0.39160  0.88850  0.09402  1.0000 -0.1789738294
N   N48       1.0  0.60840  0.61150  0.59402  1.0000 -0.1789738294
N   N49       1.0  0.07010  0.93590  0.53240  1.0000 -0.1891342687
N   N50       1.0  0.92990  0.56410  0.03240  1.0000 -0.1891342687
N   N51       1.0  0.57010  0.06410  0.96760  1.0000 -0.1891342687
N   N52       1.0  0.42990  0.43590  0.46760  1.0000 -0.1891342687
N   N53       1.0  0.82170  0.89750  0.45522  1.0000 -0.3839711833
N   N54       1.0  0.17830  0.60250  0.95522  1.0000 -0.3839711833
N   N55       1.0  0.32170  0.10250  0.04478  1.0000 -0.3839711833
N   N56       1.0  0.67830  0.39750  0.54478  1.0000 -0.3839711833
N   N57       1.0  0.82660  0.86340  0.40756  1.0000 -0.3722631323
N   N58       1.0  0.17340  0.63660  0.90756  1.0000 -0.3722631323
N   N59       1.0  0.32660  0.13660  0.09244  1.0000 -0.3722631323
N   N60       1.0  0.67340  0.36340  0.59244  1.0000 -0.3722631323
N   N61       1.0  0.96950  0.86230  0.43707  1.0000 -0.3839711833
N   N62       1.0  0.03050  0.63770  0.93707  1.0000 -0.3839711833
N   N63       1.0  0.46950  0.13770  0.06293  1.0000 -0.3839711833
N   N64       1.0  0.53050  0.36230  0.56293  1.0000 -0.3839711833
N   N65       1.0  0.49170  0.93790  0.41615  1.0000 -0.1789738294
N   N66       1.0  0.50830  0.56210  0.91615  1.0000 -0.1789738294
N   N67       1.0  0.99170  0.06210  0.08385  1.0000 -0.1789738294
N   N68       1.0  0.00830  0.43790  0.58385  1.0000 -0.1789738294
N   N69       1.0  0.07910  0.78750  0.34303  1.0000 -0.1747700932
N   N70       1.0  0.92090  0.71250  0.84303  1.0000 -0.1747700932
N   N71       1.0  0.57910  0.21250  0.15697  1.0000 -0.1747700932
N   N72       1.0  0.42090  0.28750  0.65697  1.0000 -0.1747700932
N   N73       1.0  0.92340  0.73830  0.77390  1.0000 -0.1891342687
N   N74       1.0  0.07660  0.76170  0.27390  1.0000 -0.1891342687
N   N75       1.0  0.42340  0.26170  0.72610  1.0000 -0.1891342687
N   N76       1.0  0.57660  0.23830  0.22610  1.0000 -0.1891342687
N   N77       1.0  0.03450  0.67780  0.67606  1.0000 -0.4077413368
N   N78       1.0  0.96550  0.82220  0.17606  1.0000 -0.4077413368
N   N79       1.0  0.53450  0.32220  0.82394  1.0000 -0.4077413368
N   N80       1.0  0.46550  0.17780  0.32394  1.0000 -0.4077413368
N   N81       1.0  0.07230  0.71540  0.63065  1.0000 -0.4168937008
N   N82       1.0  0.92770  0.78460  0.13065  1.0000 -0.4168937008
N   N83       1.0  0.57230  0.28460  0.86935  1.0000 -0.4168937008
N   N84       1.0  0.42770  0.21540  0.36935  1.0000 -0.4168937008
N   N85       1.0  0.03880  0.76460  0.67184  1.0000 -0.4168937008
N   N86       1.0  0.96120  0.73540  0.17184  1.0000 -0.4168937008
N   N87       1.0  0.53880  0.23540  0.82816  1.0000 -0.4168937008
N   N88       1.0  0.46120  0.26460  0.32816  1.0000 -0.4168937008
N   N89       1.0  0.10390  0.53570  0.60989  1.0000 -0.1789738294
N   N90       1.0  0.89610  0.96430  0.10989  1.0000 -0.1789738294
N   N91       1.0  0.60390  0.46430  0.89011  1.0000 -0.1789738294
N   N92       1.0  0.39610  0.03570  0.39011  1.0000 -0.1789738294
N   N93       1.0  0.10840  0.88850  0.59402  1.0000 -0.1789738294
N   N94       1.0  0.89160  0.61150  0.09402  1.0000 -0.1789738294
N   N95       1.0  0.60840  0.11150  0.90598  1.0000 -0.1789738294
N   N96       1.0  0.39160  0.38850  0.40598  1.0000 -0.1789738294
