# DDEC6 charges by PACMAN v1.1 (https://github.com/mtap-research/PACMAN-charge/)
data_2005[Mn][lvt]3[ASR]2
_chemical_formula_sum              "Mn24 H312 C336 N64 O72"
_cell_length_a       30.0815
_cell_length_b       30.0815
_cell_length_c       30.0815
_cell_angle_alpha    94.8358
_cell_angle_beta     94.8358
_cell_angle_gamma    146.243

_symmetry_space_group_name_H-M    "P 1"
_symmetry_Int_Tables_number       1

loop_
  _symmetry_equiv_pos_as_xyz
  'x, y, z'

loop_
  _atom_site_type_symbol
  _atom_site_label
  _atom_site_symmetry_multiplicity
  _atom_site_fract_x
  _atom_site_fract_y
  _atom_site_fract_z
  _atom_site_occupancy
  _atom_site_charge
Mn  Mn1       1.0  0.99938  0.77776  0.37002  1.0000 0.9222398271
Mn  Mn2       1.0  0.87936  0.74938  0.72162  1.0000 0.9222398271
Mn  Mn3       1.0  0.02776  0.15774  0.27838  1.0000 0.9222398271
Mn  Mn4       1.0  0.40774  0.62936  0.62998  1.0000 0.9222398271
Mn  Mn5       1.0  0.25062  0.97224  0.12998  1.0000 0.9251916194
Mn  Mn6       1.0  0.37064  0.00062  0.77838  1.0000 0.9222398271
Mn  Mn7       1.0  0.22224  0.59226  0.22162  1.0000 0.9222398271
Mn  Mn8       1.0  0.84226  0.12064  0.87002  1.0000 0.9222398271
Mn  Mn9       1.0  0.91874  0.58873  0.24825  1.0000 0.9025579923
Mn  Mn10      1.0  0.92049  0.66874  0.83001  1.0000 0.9025579923
Mn  Mn11      1.0  0.83873  0.09048  0.16999  1.0000 0.9025579923
Mn  Mn12      1.0  0.34048  0.67049  0.75175  1.0000 0.9025579923
Mn  Mn13      1.0  0.33126  0.16127  0.25175  1.0000 0.9025579923
Mn  Mn14      1.0  0.32951  0.08126  0.66999  1.0000 0.9025579923
Mn  Mn15      1.0  0.41127  0.65952  0.33001  1.0000 0.9025579923
Mn  Mn16      1.0  0.90952  0.07951  0.74825  1.0000 0.9025579923
Mn  Mn17      1.0  0.12164  0.01459  0.33383  1.0000 0.8791987681
Mn  Mn18      1.0  0.03781  0.87164  0.60705  1.0000 0.8737517182
Mn  Mn19      1.0  0.26459  0.43076  0.39295  1.0000 0.8737517182
Mn  Mn20      1.0  0.68076  0.78781  0.66617  1.0000 0.8791987681
Mn  Mn21      1.0  0.12836  0.73541  0.16617  1.0000 0.8882895493
Mn  Mn22      1.0  0.21219  0.87836  0.89295  1.0000 0.8791987681
Mn  Mn23      1.0  0.98541  0.31924  0.10705  1.0000 0.8882895493
Mn  Mn24      1.0  0.56924  0.96219  0.83383  1.0000 0.8737517182
H   H1        1.0  0.77520  0.66980  0.35720  1.0000 0.1310822471
H   H2        1.0  0.66800  0.52520  0.60540  1.0000 0.1310822471
H   H3        1.0  0.91980  0.06260  0.39460  1.0000 0.1310822471
H   H4        1.0  0.31260  0.41800  0.64280  1.0000 0.1310822471
H   H5        1.0  0.47480  0.08020  0.14280  1.0000 0.1310822471
H   H6        1.0  0.58200  0.22480  0.89460  1.0000 0.1310822471
H   H7        1.0  0.33020  0.68740  0.10540  1.0000 0.1310822471
H   H8        1.0  0.93740  0.33200  0.85720  1.0000 0.1310822471
H   H9        1.0  0.64090  0.54300  0.31830  1.0000 0.1107264773
H   H10       1.0  0.57260  0.39090  0.59790  1.0000 0.1107264773
H   H11       1.0  0.79300  0.97470  0.40210  1.0000 0.1107264773
H   H12       1.0  0.22470  0.32260  0.68170  1.0000 0.1107264773
H   H13       1.0  0.60910  0.20700  0.18170  1.0000 0.1107264773
H   H14       1.0  0.67740  0.35910  0.90210  1.0000 0.1107264773
H   H15       1.0  0.45700  0.77530  0.09790  1.0000 0.1107264773
H   H16       1.0  0.02530  0.42740  0.81830  1.0000 0.1107264773
H   H17       1.0  0.59920  0.44100  0.27340  1.0000 0.1198903315
H   H18       1.0  0.57580  0.34920  0.65820  1.0000 0.1198903315
H   H19       1.0  0.69100  0.91760  0.34180  1.0000 0.1198903315
H   H20       1.0  0.16760  0.32580  0.72660  1.0000 0.1198903315
H   H21       1.0  0.65080  0.30900  0.22660  1.0000 0.1198903315
H   H22       1.0  0.67420  0.40080  0.84180  1.0000 0.1198903315
H   H23       1.0  0.55900  0.83240  0.15820  1.0000 0.1198903315
H   H24       1.0  0.08240  0.42420  0.77340  1.0000 0.1198903315
H   H25       1.0  0.70280  0.47530  0.26510  1.0000 0.1198903315
H   H26       1.0  0.68770  0.45280  0.72750  1.0000 0.1198903315
H   H27       1.0  0.72530  0.96020  0.27250  1.0000 0.1198903315
H   H28       1.0  0.21020  0.43770  0.73490  1.0000 0.1198903315
H   H29       1.0  0.54720  0.27470  0.23490  1.0000 0.1198903315
H   H30       1.0  0.56230  0.29720  0.77250  1.0000 0.1198903315
H   H31       1.0  0.52470  0.78980  0.22750  1.0000 0.1198903315
H   H32       1.0  0.03980  0.31230  0.76510  1.0000 0.1198903315
H   H33       1.0  0.11530  0.74060  0.32590  1.0000 0.1310822471
H   H34       1.0  0.03940  0.86530  0.87470  1.0000 0.1310822471
H   H35       1.0  0.99060  0.16470  0.12530  1.0000 0.1310822471
H   H36       1.0  0.41470  0.78940  0.67410  1.0000 0.1310822471
H   H37       1.0  0.13470  0.00940  0.17410  1.0000 0.1310822471
H   H38       1.0  0.21060  0.88470  0.62530  1.0000 0.1310822471
H   H39       1.0  0.25940  0.58530  0.37470  1.0000 0.1310822471
H   H40       1.0  0.83530  0.96060  0.82590  1.0000 0.1310822471
H   H41       1.0  0.14510  0.80080  0.29690  1.0000 0.1380265499
H   H42       1.0  0.09820  0.89510  0.84430  1.0000 0.1380265499
H   H43       1.0  0.05080  0.25390  0.15570  1.0000 0.1380265499
H   H44       1.0  0.50390  0.84820  0.70310  1.0000 0.1380265499
H   H45       1.0  0.10490  0.94920  0.20310  1.0000 0.1380265499
H   H46       1.0  0.15180  0.85490  0.65570  1.0000 0.1380265499
H   H47       1.0  0.19920  0.49610  0.34430  1.0000 0.1380265499
H   H48       1.0  0.74610  0.90180  0.79690  1.0000 0.1380265499
H   H49       1.0  0.21420  0.85640  0.39420  1.0000 0.1107264773
H   H50       1.0  0.07000  0.96420  0.85780  1.0000 0.1107264773
H   H51       1.0  0.10640  0.21220  0.14220  1.0000 0.1107264773
H   H52       1.0  0.46220  0.82000  0.60580  1.0000 0.1107264773
H   H53       1.0  0.03580  0.89360  0.10580  1.0000 0.1107264773
H   H54       1.0  0.18000  0.78580  0.64220  1.0000 0.1107264773
H   H55       1.0  0.14360  0.53780  0.35780  1.0000 0.1107264773
H   H56       1.0  0.78780  0.93000  0.89420  1.0000 0.1107264773
H   H57       1.0  0.25590  0.86770  0.35660  1.0000 0.1198903315
H   H58       1.0  0.14930  0.00590  0.88820  1.0000 0.1198903315
H   H59       1.0  0.11770  0.26110  0.11180  1.0000 0.1198903315
H   H60       1.0  0.51110  0.89930  0.64340  1.0000 0.1198903315
H   H61       1.0  0.99410  0.88230  0.14340  1.0000 0.1198903315
H   H62       1.0  0.10070  0.74410  0.61180  1.0000 0.1198903315
H   H63       1.0  0.13230  0.48890  0.38820  1.0000 0.1198903315
H   H64       1.0  0.73890  0.85070  0.85660  1.0000 0.1198903315
H   H65       1.0  0.24830  0.91450  0.36140  1.0000 0.1198903315
H   H66       1.0  0.13690  0.99830  0.83380  1.0000 0.1198903315
H   H67       1.0  0.16450  0.30310  0.16620  1.0000 0.1198903315
H   H68       1.0  0.55310  0.88690  0.63860  1.0000 0.1198903315
H   H69       1.0  0.00170  0.83550  0.13860  1.0000 0.1198903315
H   H70       1.0  0.11310  0.75170  0.66620  1.0000 0.1198903315
H   H71       1.0  0.08550  0.44690  0.33380  1.0000 0.1198903315
H   H72       1.0  0.69690  0.86310  0.86140  1.0000 0.1198903315
H   H73       1.0  0.91270  0.46820  0.32550  1.0000 0.1310822471
H   H74       1.0  0.83720  0.66270  0.94450  1.0000 0.1310822471
H   H75       1.0  0.71820  0.89270  0.05550  1.0000 0.1310822471
H   H76       1.0  0.14270  0.58720  0.67450  1.0000 0.1310822471
H   H77       1.0  0.33730  0.28180  0.17450  1.0000 0.1310822471
H   H78       1.0  0.41280  0.08730  0.55550  1.0000 0.1310822471
H   H79       1.0  0.53180  0.85730  0.44450  1.0000 0.1310822471
H   H80       1.0  0.10730  0.16280  0.82550  1.0000 0.1310822471
H   H81       1.0  0.97850  0.45500  0.32530  1.0000 0.1107264773
H   H82       1.0  0.90320  0.72850  0.02350  1.0000 0.1107264773
H   H83       1.0  0.70500  0.87970  0.97650  1.0000 0.1107264773
H   H84       1.0  0.12970  0.65320  0.67470  1.0000 0.1107264773
H   H85       1.0  0.27150  0.29500  0.17470  1.0000 0.1107264773
H   H86       1.0  0.34680  0.02150  0.47650  1.0000 0.1107264773
H   H87       1.0  0.54500  0.87030  0.52350  1.0000 0.1107264773
H   H88       1.0  0.12030  0.09680  0.82530  1.0000 0.1107264773
H   H89       1.0  0.07610  0.52320  0.28390  1.0000 0.1310822471
H   H90       1.0  0.04220  0.82610  0.05290  1.0000 0.1310822471
H   H91       1.0  0.77320  0.98930  0.94710  1.0000 0.1310822471
H   H92       1.0  0.23930  0.79220  0.71610  1.0000 0.1310822471
H   H93       1.0  0.17390  0.22680  0.21610  1.0000 0.1310822471
H   H94       1.0  0.20780  0.92390  0.44710  1.0000 0.1310822471
H   H95       1.0  0.47680  0.76070  0.55290  1.0000 0.1310822471
H   H96       1.0  0.01070  0.95780  0.78390  1.0000 0.1310822471
H   H97       1.0  0.10230  0.59990  0.23920  1.0000 0.1198903315
H   H98       1.0  0.11310  0.85230  0.00240  1.0000 0.1198903315
H   H99       1.0  0.84990  0.11070  0.99760  1.0000 0.1198903315
H   H100      1.0  0.36070  0.86310  0.76080  1.0000 0.1198903315
H   H101      1.0  0.14770  0.15010  0.26080  1.0000 0.1198903315
H   H102      1.0  0.13690  0.89770  0.49760  1.0000 0.1198903315
H   H103      1.0  0.40010  0.63930  0.50240  1.0000 0.1198903315
H   H104      1.0  0.88930  0.88690  0.73920  1.0000 0.1198903315
H   H105      1.0  0.00670  0.71380  0.12490  1.0000 0.1310822471
H   H106      1.0  0.13180  0.75670  0.79290  1.0000 0.1310822471
H   H107      1.0  0.96380  0.33890  0.20710  1.0000 0.1310822471
H   H108      1.0  0.58890  0.88180  0.87510  1.0000 0.1310822471
H   H109      1.0  0.24330  0.03620  0.37510  1.0000 0.1310822471
H   H110      1.0  0.11820  0.99330  0.70710  1.0000 0.1310822471
H   H111      1.0  0.28620  0.41110  0.29290  1.0000 0.1310822471
H   H112      1.0  0.66110  0.86820  0.62490  1.0000 0.1310822471
H   H113      1.0  0.01550  0.76270  0.16280  1.0000 0.1380265499
H   H114      1.0  0.10270  0.76550  0.75280  1.0000 0.1380265499
H   H115      1.0  0.01270  0.34990  0.24720  1.0000 0.1380265499
H   H116      1.0  0.59990  0.85270  0.83720  1.0000 0.1380265499
H   H117      1.0  0.23450  0.98730  0.33720  1.0000 0.1380265499
H   H118      1.0  0.14730  0.98450  0.74720  1.0000 0.1380265499
H   H119      1.0  0.23730  0.40010  0.25280  1.0000 0.1380265499
H   H120      1.0  0.65010  0.89730  0.66280  1.0000 0.1380265499
H   H121      1.0  0.86630  0.64020  0.14110  1.0000 0.1198903315
H   H122      1.0  0.97520  0.61630  0.72610  1.0000 0.1198903315
H   H123      1.0  0.89020  0.24910  0.27390  1.0000 0.1198903315
H   H124      1.0  0.49910  0.72520  0.85890  1.0000 0.1198903315
H   H125      1.0  0.38370  0.10980  0.35890  1.0000 0.1198903315
H   H126      1.0  0.27480  0.13370  0.77390  1.0000 0.1198903315
H   H127      1.0  0.35980  0.50090  0.22610  1.0000 0.1198903315
H   H128      1.0  0.75090  0.02480  0.64110  1.0000 0.1198903315
H   H129      1.0  0.90840  0.68860  0.10220  1.0000 0.1107264773
H   H130      1.0  0.05620  0.65840  0.71980  1.0000 0.1107264773
H   H131      1.0  0.93860  0.33640  0.28020  1.0000 0.1107264773
H   H132      1.0  0.58640  0.80620  0.89780  1.0000 0.1107264773
H   H133      1.0  0.34160  0.06140  0.39780  1.0000 0.1107264773
H   H134      1.0  0.19380  0.09160  0.78020  1.0000 0.1107264773
H   H135      1.0  0.31140  0.41360  0.21980  1.0000 0.1107264773
H   H136      1.0  0.66360  0.94380  0.60220  1.0000 0.1107264773
H   H137      1.0  0.86710  0.60560  0.09830  1.0000 0.1198903315
H   H138      1.0  0.01880  0.61710  0.76150  1.0000 0.1198903315
H   H139      1.0  0.85560  0.25730  0.23850  1.0000 0.1198903315
H   H140      1.0  0.50730  0.76880  0.90170  1.0000 0.1198903315
H   H141      1.0  0.38290  0.14440  0.40170  1.0000 0.1198903315
H   H142      1.0  0.23120  0.13290  0.73850  1.0000 0.1198903315
H   H143      1.0  0.39440  0.49270  0.26150  1.0000 0.1198903315
H   H144      1.0  0.74270  0.98120  0.59830  1.0000 0.1198903315
H   H145      1.0  0.75890  0.48980  0.18150  1.0000 0.1107264773
H   H146      1.0  0.82740  0.50890  0.76910  1.0000 0.1107264773
H   H147      1.0  0.73980  0.05830  0.23090  1.0000 0.1107264773
H   H148      1.0  0.30830  0.57740  0.81850  1.0000 0.1107264773
H   H149      1.0  0.49110  0.26020  0.31850  1.0000 0.1107264773
H   H150      1.0  0.42260  0.24110  0.73090  1.0000 0.1107264773
H   H151      1.0  0.51020  0.69170  0.26910  1.0000 0.1107264773
H   H152      1.0  0.94170  0.17260  0.68150  1.0000 0.1107264773
H   H153      1.0  0.65210  0.38170  0.11260  1.0000 0.1380265499
H   H154      1.0  0.78950  0.40210  0.77040  1.0000 0.1380265499
H   H155      1.0  0.63170  0.01910  0.22960  1.0000 0.1380265499
H   H156      1.0  0.26910  0.53950  0.88740  1.0000 0.1380265499
H   H157      1.0  0.59790  0.36830  0.38740  1.0000 0.1380265499
H   H158      1.0  0.46050  0.34790  0.72960  1.0000 0.1380265499
H   H159      1.0  0.61830  0.73090  0.27040  1.0000 0.1380265499
H   H160      1.0  0.98090  0.21050  0.61260  1.0000 0.1380265499
H   H161      1.0  0.73350  0.32650  0.11520  1.0000 0.1380265499
H   H162      1.0  0.86830  0.48350  0.90700  1.0000 0.1380265499
H   H163      1.0  0.57650  0.96130  0.09300  1.0000 0.1380265499
H   H164      1.0  0.21130  0.61830  0.88480  1.0000 0.1380265499
H   H165      1.0  0.51650  0.42350  0.38480  1.0000 0.1380265499
H   H166      1.0  0.38170  0.26650  0.59300  1.0000 0.1380265499
H   H167      1.0  0.67350  0.78870  0.40700  1.0000 0.1380265499
H   H168      1.0  0.03870  0.13170  0.61520  1.0000 0.1380265499
H   H169      1.0  0.83880  0.43640  0.18020  1.0000 0.1107264773
H   H170      1.0  0.90860  0.58880  0.90240  1.0000 0.1107264773
H   H171      1.0  0.68640  0.00620  0.09760  1.0000 0.1107264773
H   H172      1.0  0.25620  0.65860  0.81980  1.0000 0.1107264773
H   H173      1.0  0.41120  0.31360  0.31980  1.0000 0.1107264773
H   H174      1.0  0.34140  0.16120  0.59760  1.0000 0.1107264773
H   H175      1.0  0.56360  0.74380  0.40240  1.0000 0.1107264773
H   H176      1.0  0.99380  0.09140  0.68020  1.0000 0.1107264773
H   H177      1.0  0.58320  0.20860  0.08040  1.0000 0.1198903315
H   H178      1.0  0.75280  0.33320  0.87460  1.0000 0.1198903315
H   H179      1.0  0.45860  0.87820  0.12540  1.0000 0.1198903315
H   H180      1.0  0.12820  0.50280  0.91960  1.0000 0.1198903315
H   H181      1.0  0.66680  0.54140  0.41960  1.0000 0.1198903315
H   H182      1.0  0.49720  0.41680  0.62540  1.0000 0.1198903315
H   H183      1.0  0.79140  0.87180  0.37460  1.0000 0.1198903315
H   H184      1.0  0.12180  0.24720  0.58040  1.0000 0.1198903315
H   H185      1.0  0.61760  0.26140  0.04400  1.0000 0.1198903315
H   H186      1.0  0.82360  0.36760  0.85620  1.0000 0.1198903315
H   H187      1.0  0.51140  0.96740  0.14380  1.0000 0.1198903315
H   H188      1.0  0.21740  0.57360  0.95600  1.0000 0.1198903315
H   H189      1.0  0.63240  0.48860  0.45600  1.0000 0.1198903315
H   H190      1.0  0.42640  0.38240  0.64380  1.0000 0.1198903315
H   H191      1.0  0.73860  0.78260  0.35620  1.0000 0.1198903315
H   H192      1.0  0.03260  0.17640  0.54400  1.0000 0.1198903315
H   H193      1.0  0.23930  0.18680  0.46530  1.0000 0.1310822471
H   H194      1.0  0.02400  0.98930  0.55250  1.0000 0.1310822471
H   H195      1.0  0.43680  0.47150  0.44750  1.0000 0.1310822471
H   H196      1.0  0.72150  0.77400  0.53470  1.0000 0.1310822471
H   H197      1.0  0.01070  0.56320  0.03470  1.0000 0.1310822471
H   H198      1.0  0.22600  0.76070  0.94750  1.0000 0.1310822471
H   H199      1.0  0.81320  0.27850  0.05250  1.0000 0.1310822471
H   H200      1.0  0.52850  0.97600  0.96530  1.0000 0.1310822471
H   H201      1.0  0.23690  0.17520  0.53990  1.0000 0.0993537017
H   H202      1.0  0.94700  0.98690  0.56170  1.0000 0.0993537017
H   H203      1.0  0.42520  0.38530  0.43830  1.0000 0.0993537017
H   H204      1.0  0.63530  0.69700  0.46010  1.0000 0.0993537017
H   H205      1.0  0.01310  0.57480  0.96010  1.0000 0.0993537017
H   H206      1.0  0.30300  0.76310  0.93830  1.0000 0.0993537017
H   H207      1.0  0.82480  0.36470  0.06170  1.0000 0.0993537017
H   H208      1.0  0.61470  0.05300  0.03990  1.0000 0.0993537017
H   H209      1.0  0.17020  0.05590  0.55570  1.0000 0.1198903315
H   H210      1.0  0.86450  0.92020  0.61430  1.0000 0.1198903315
H   H211      1.0  0.30590  0.25020  0.38570  1.0000 0.1198903315
H   H212      1.0  0.50020  0.61450  0.44430  1.0000 0.1198903315
H   H213      1.0  0.07980  0.69410  0.94430  1.0000 0.1198903315
H   H214      1.0  0.38550  0.82980  0.88570  1.0000 0.1198903315
H   H215      1.0  0.94410  0.49980  0.11430  1.0000 0.1198903315
H   H216      1.0  0.74980  0.13550  0.05570  1.0000 0.1198903315
H   H217      1.0  0.11060  0.95320  0.49500  1.0000 0.1198903315
H   H218      1.0  0.86560  0.86060  0.65740  1.0000 0.1198903315
H   H219      1.0  0.20320  0.20820  0.34260  1.0000 0.1198903315
H   H220      1.0  0.45820  0.61560  0.50500  1.0000 0.1198903315
H   H221      1.0  0.13940  0.79680  0.00500  1.0000 0.1198903315
H   H222      1.0  0.38440  0.88940  0.84260  1.0000 0.1198903315
H   H223      1.0  0.04680  0.54180  0.15740  1.0000 0.1198903315
H   H224      1.0  0.79180  0.13440  0.99500  1.0000 0.1198903315
H   H225      1.0  0.97570  0.75990  0.25780  1.0000 0.1310822471
H   H226      1.0  0.96790  0.72570  0.71580  1.0000 0.1310822471
H   H227      1.0  0.00990  0.25210  0.28420  1.0000 0.1310822471
H   H228      1.0  0.50210  0.71790  0.74220  1.0000 0.1310822471
H   H229      1.0  0.27430  0.99010  0.24220  1.0000 0.1310822471
H   H230      1.0  0.28210  0.02430  0.78420  1.0000 0.1310822471
H   H231      1.0  0.24010  0.49790  0.21580  1.0000 0.1310822471
H   H232      1.0  0.74790  0.03210  0.75780  1.0000 0.1310822471
H   H233      1.0  0.00780  0.81480  0.22280  1.0000 0.1380265499
H   H234      1.0  0.03500  0.75780  0.69300  1.0000 0.1380265499
H   H235      1.0  0.06480  0.34200  0.30700  1.0000 0.1380265499
H   H236      1.0  0.59200  0.78500  0.77720  1.0000 0.1380265499
H   H237      1.0  0.24220  0.93520  0.27720  1.0000 0.1380265499
H   H238      1.0  0.21500  0.99220  0.80700  1.0000 0.1380265499
H   H239      1.0  0.18520  0.40800  0.19300  1.0000 0.1380265499
H   H240      1.0  0.65800  0.96500  0.72280  1.0000 0.1380265499
H   H241      1.0  0.86420  0.72580  0.25620  1.0000 0.1198903315
H   H242      1.0  0.85800  0.61420  0.63840  1.0000 0.1198903315
H   H243      1.0  0.97580  0.21960  0.36160  1.0000 0.1198903315
H   H244      1.0  0.46960  0.60800  0.74380  1.0000 0.1198903315
H   H245      1.0  0.38580  0.02420  0.24380  1.0000 0.1198903315
H   H246      1.0  0.39200  0.13580  0.86160  1.0000 0.1198903315
H   H247      1.0  0.27420  0.53040  0.13840  1.0000 0.1198903315
H   H248      1.0  0.78040  0.14200  0.75620  1.0000 0.1198903315
H   H249      1.0  0.84960  0.68420  0.20760  1.0000 0.1310822471
H   H250      1.0  0.89200  0.59960  0.66540  1.0000 0.1310822471
H   H251      1.0  0.93420  0.22660  0.33460  1.0000 0.1310822471
H   H252      1.0  0.47660  0.64200  0.79240  1.0000 0.1310822471
H   H253      1.0  0.40040  0.06580  0.29240  1.0000 0.1310822471
H   H254      1.0  0.35800  0.15040  0.83460  1.0000 0.1310822471
H   H255      1.0  0.31580  0.52340  0.16540  1.0000 0.1310822471
H   H256      1.0  0.77340  0.10800  0.70760  1.0000 0.1310822471
H   H257      1.0  0.89040  0.76730  0.21430  1.0000 0.1310822471
H   H258      1.0  0.92610  0.64040  0.62310  1.0000 0.1310822471
H   H259      1.0  0.01730  0.30300  0.37690  1.0000 0.1310822471
H   H260      1.0  0.55300  0.67610  0.78570  1.0000 0.1310822471
H   H261      1.0  0.35960  0.98270  0.28570  1.0000 0.1310822471
H   H262      1.0  0.32390  0.10960  0.87690  1.0000 0.1310822471
H   H263      1.0  0.23270  0.44700  0.12310  1.0000 0.1310822471
H   H264      1.0  0.69700  0.07390  0.71430  1.0000 0.1310822471
H   H265      1.0  0.28010  0.93970  0.00200  1.0000 0.1198903315
H   H266      1.0  0.52810  0.03010  0.84040  1.0000 0.1198903315
H   H267      1.0  0.18970  0.68770  0.15960  1.0000 0.1198903315
H   H268      1.0  0.93770  0.27810  0.99800  1.0000 0.1198903315
H   H269      1.0  0.96990  0.81030  0.49800  1.0000 0.1198903315
H   H270      1.0  0.72190  0.71990  0.65960  1.0000 0.1198903315
H   H271      1.0  0.06030  0.06230  0.34040  1.0000 0.1198903315
H   H272      1.0  0.31230  0.47190  0.50200  1.0000 0.1198903315
H   H273      1.0  0.39200  0.05990  0.06390  1.0000 0.1380265499
H   H274      1.0  0.57810  0.14200  0.83210  1.0000 0.1380265499
H   H275      1.0  0.30990  0.74600  0.16790  1.0000 0.1380265499
H   H276      1.0  0.99600  0.32810  0.93610  1.0000 0.1380265499
H   H277      1.0  0.85800  0.69010  0.43610  1.0000 0.1380265499
H   H278      1.0  0.67190  0.60800  0.66790  1.0000 0.1380265499
H   H279      1.0  0.94010  0.00400  0.33210  1.0000 0.1380265499
H   H280      1.0  0.25400  0.42190  0.56390  1.0000 0.1380265499
H   H281      1.0  0.50380  0.19310  0.97210  1.0000 0.1380265499
H   H282      1.0  0.78170  0.25380  0.81070  1.0000 0.1380265499
H   H283      1.0  0.44310  0.97100  0.18930  1.0000 0.1380265499
H   H284      1.0  0.22100  0.53170  0.02790  1.0000 0.1380265499
H   H285      1.0  0.74620  0.55690  0.52790  1.0000 0.1380265499
H   H286      1.0  0.46830  0.49620  0.68930  1.0000 0.1380265499
H   H287      1.0  0.80690  0.77900  0.31070  1.0000 0.1380265499
H   H288      1.0  0.02900  0.21830  0.47210  1.0000 0.1380265499
H   H289      1.0  0.39620  0.07300  0.91360  1.0000 0.1107264773
H   H290      1.0  0.73260  0.14620  0.82320  1.0000 0.1107264773
H   H291      1.0  0.32300  0.90940  0.17680  1.0000 0.1107264773
H   H292      1.0  0.15940  0.48260  0.08640  1.0000 0.1107264773
H   H293      1.0  0.85380  0.67700  0.58640  1.0000 0.1107264773
H   H294      1.0  0.51740  0.60380  0.67680  1.0000 0.1107264773
H   H295      1.0  0.92700  0.84060  0.32320  1.0000 0.1107264773
H   H296      1.0  0.09060  0.26740  0.41360  1.0000 0.1107264773
H   H297      1.0  0.51240  0.21010  0.09210  1.0000 0.1310822471
H   H298      1.0  0.67030  0.26240  0.80230  1.0000 0.1310822471
H   H299      1.0  0.46010  0.86800  0.19770  1.0000 0.1310822471
H   H300      1.0  0.11800  0.42030  0.90790  1.0000 0.1310822471
H   H301      1.0  0.73760  0.53990  0.40790  1.0000 0.1310822471
H   H302      1.0  0.57970  0.48760  0.69770  1.0000 0.1310822471
H   H303      1.0  0.78990  0.88200  0.30230  1.0000 0.1310822471
H   H304      1.0  0.13200  0.32970  0.59210  1.0000 0.1310822471
H   H305      1.0  0.54710  0.26360  0.05590  1.0000 0.1198903315
H   H306      1.0  0.74120  0.29710  0.78350  1.0000 0.1198903315
H   H307      1.0  0.51360  0.95770  0.21650  1.0000 0.1198903315
H   H308      1.0  0.20770  0.49120  0.94410  1.0000 0.1198903315
H   H309      1.0  0.70290  0.48640  0.44410  1.0000 0.1198903315
H   H310      1.0  0.50880  0.45290  0.71650  1.0000 0.1198903315
H   H311      1.0  0.73640  0.79230  0.28350  1.0000 0.1198903315
H   H312      1.0  0.04230  0.25880  0.55590  1.0000 0.1198903315
C   C1        1.0  0.82583  0.65335  0.33778  1.0000 0.312366181
C   C2        1.0  0.73805  0.57583  0.67248  1.0000 0.312366181
C   C3        1.0  0.90335  0.06557  0.32752  1.0000 0.312366181
C   C4        1.0  0.31557  0.48805  0.66222  1.0000 0.312366181
C   C5        1.0  0.42417  0.09665  0.16222  1.0000 0.312366181
C   C6        1.0  0.51195  0.17417  0.82752  1.0000 0.312366181
C   C7        1.0  0.34665  0.68443  0.17248  1.0000 0.312366181
C   C8        1.0  0.93443  0.26195  0.83778  1.0000 0.312366181
C   C9        1.0  0.76097  0.63014  0.33911  1.0000 -0.2289322904
C   C10       1.0  0.67186  0.51097  0.63083  1.0000 -0.2289322904
C   C11       1.0  0.88014  0.04103  0.36917  1.0000 -0.2289322904
C   C12       1.0  0.29103  0.42186  0.66089  1.0000 -0.2289322904
C   C13       1.0  0.48903  0.11986  0.16089  1.0000 -0.2289322904
C   C14       1.0  0.57814  0.23903  0.86917  1.0000 -0.2289322904
C   C15       1.0  0.36986  0.70897  0.13083  1.0000 -0.2289322904
C   C16       1.0  0.95897  0.32814  0.83911  1.0000 -0.2289322904
C   C17       1.0  0.68140  0.55520  0.31600  1.0000 -0.0605241438
C   C18       1.0  0.61540  0.43140  0.62620  1.0000 -0.0605241438
C   C19       1.0  0.80520  0.98920  0.37380  1.0000 -0.0605241438
C   C20       1.0  0.23920  0.36540  0.68400  1.0000 -0.0605241438
C   C21       1.0  0.56860  0.19480  0.18400  1.0000 -0.0605241438
C   C22       1.0  0.63460  0.31860  0.87380  1.0000 -0.0605241438
C   C23       1.0  0.44480  0.76080  0.12620  1.0000 -0.0605241438
C   C24       1.0  0.01080  0.38460  0.81600  1.0000 -0.0605241438
C   C25       1.0  0.65640  0.49480  0.28880  1.0000 -0.1625597972
C   C26       1.0  0.61760  0.40640  0.66160  1.0000 -0.1625597972
C   C27       1.0  0.74480  0.95600  0.33840  1.0000 -0.1625597972
C   C28       1.0  0.20600  0.36760  0.71120  1.0000 -0.1625597972
C   C29       1.0  0.59360  0.25520  0.21120  1.0000 -0.1625597972
C   C30       1.0  0.63240  0.34360  0.83840  1.0000 -0.1625597972
C   C31       1.0  0.50520  0.79400  0.16160  1.0000 -0.1625597972
C   C32       1.0  0.04400  0.38240  0.78880  1.0000 -0.1625597972
C   C33       1.0  0.71850  0.51536  0.28446  1.0000 -0.0877844832
C   C34       1.0  0.68404  0.46850  0.70314  1.0000 -0.0877844832
C   C35       1.0  0.76536  0.98090  0.29686  1.0000 -0.0877844832
C   C36       1.0  0.23090  0.43404  0.71554  1.0000 -0.0877844832
C   C37       1.0  0.53150  0.23464  0.21554  1.0000 -0.0877844832
C   C38       1.0  0.56596  0.28150  0.79686  1.0000 -0.0877844832
C   C39       1.0  0.48464  0.76910  0.20314  1.0000 -0.0877844832
C   C40       1.0  0.01910  0.31596  0.78446  1.0000 -0.0877844832
C   C41       1.0  0.80169  0.59325  0.30814  1.0000 -0.1625597972
C   C42       1.0  0.74355  0.55169  0.70844  1.0000 -0.1625597972
C   C43       1.0  0.84325  0.03511  0.29156  1.0000 -0.1625597972
C   C44       1.0  0.28511  0.49355  0.69186  1.0000 -0.1625597972
C   C45       1.0  0.44831  0.15675  0.19186  1.0000 -0.1625597972
C   C46       1.0  0.50645  0.19831  0.79156  1.0000 -0.1625597972
C   C47       1.0  0.40675  0.71489  0.20844  1.0000 -0.1625597972
C   C48       1.0  0.96489  0.25645  0.80814  1.0000 -0.1625597972
C   C49       1.0  0.86210  0.61083  0.30073  1.0000 0.4403070481
C   C50       1.0  0.81137  0.61210  0.75127  1.0000 0.4403070481
C   C51       1.0  0.86083  0.06010  0.24873  1.0000 0.4403070481
C   C52       1.0  0.31010  0.56137  0.69927  1.0000 0.4403070481
C   C53       1.0  0.38790  0.13917  0.19927  1.0000 0.4403070481
C   C54       1.0  0.43863  0.13790  0.74873  1.0000 0.4403070481
C   C55       1.0  0.38917  0.68990  0.25127  1.0000 0.4403070481
C   C56       1.0  0.93990  0.18863  0.80073  1.0000 0.4403070481
C   C57       1.0  0.07111  0.76619  0.33550  1.0000 0.4584780716
C   C58       1.0  0.98561  0.82111  0.80492  1.0000 0.4584780716
C   C59       1.0  0.01619  0.18069  0.19508  1.0000 0.4584780716
C   C60       1.0  0.43069  0.73561  0.66450  1.0000 0.4584780716
C   C61       1.0  0.17889  0.98381  0.16450  1.0000 0.4584780716
C   C62       1.0  0.26439  0.92889  0.69508  1.0000 0.4584780716
C   C63       1.0  0.23381  0.56931  0.30492  1.0000 0.4584780716
C   C64       1.0  0.81931  0.01439  0.83550  1.0000 0.4584780716
C   C65       1.0  0.13699  0.78954  0.32753  1.0000 -0.2454415141
C   C66       1.0  0.05946  0.88699  0.84745  1.0000 -0.2454415141
C   C67       1.0  0.03954  0.21201  0.15255  1.0000 -0.2454415141
C   C68       1.0  0.46201  0.80946  0.67247  1.0000 -0.2454415141
C   C69       1.0  0.11301  0.96046  0.17247  1.0000 -0.2454415141
C   C70       1.0  0.19054  0.86301  0.65255  1.0000 -0.2454415141
C   C71       1.0  0.21046  0.53799  0.34745  1.0000 -0.2454415141
C   C72       1.0  0.78799  0.94054  0.82753  1.0000 -0.2454415141
C   C73       1.0  0.22130  0.86358  0.36308  1.0000 -0.3389758546
C   C74       1.0  0.10822  0.97130  0.85772  1.0000 -0.3389758546
C   C75       1.0  0.11358  0.25050  0.14228  1.0000 -0.3389758546
C   C76       1.0  0.50050  0.85822  0.63692  1.0000 -0.3389758546
C   C77       1.0  0.02870  0.88642  0.13692  1.0000 -0.3389758546
C   C78       1.0  0.14178  0.77870  0.64228  1.0000 -0.3389758546
C   C79       1.0  0.13642  0.49950  0.35772  1.0000 -0.3389758546
C   C80       1.0  0.74950  0.89178  0.86308  1.0000 -0.3389758546
C   C81       1.0  0.96346  0.53813  0.27939  1.0000 0.2939756
C   C82       1.0  0.93407  0.71346  0.92533  1.0000 0.2939756
C   C83       1.0  0.78813  0.00874  0.07467  1.0000 0.2939756
C   C84       1.0  0.25874  0.68407  0.72061  1.0000 0.2939756
C   C85       1.0  0.28654  0.21187  0.22061  1.0000 0.2939756
C   C86       1.0  0.31593  0.03654  0.57467  1.0000 0.2939756
C   C87       1.0  0.46187  0.74126  0.42533  1.0000 0.2939756
C   C88       1.0  0.99126  0.06593  0.77939  1.0000 0.2939756
C   C89       1.0  0.95003  0.49392  0.30695  1.0000 -0.2119921134
C   C90       1.0  0.89308  0.70003  0.95611  1.0000 -0.2119921134
C   C91       1.0  0.74392  0.93697  0.04389  1.0000 -0.2119921134
C   C92       1.0  0.18697  0.64308  0.69305  1.0000 -0.2119921134
C   C93       1.0  0.29997  0.25608  0.19305  1.0000 -0.2119921134
C   C94       1.0  0.35692  0.04997  0.54389  1.0000 -0.2119921134
C   C95       1.0  0.50608  0.81303  0.45611  1.0000 -0.2119921134
C   C96       1.0  0.06303  0.10692  0.80695  1.0000 -0.2119921134
C   C97       1.0  0.99048  0.48742  0.30750  1.0000 -0.0605241438
C   C98       1.0  0.93298  0.74048  0.00306  1.0000 -0.0605241438
C   C99       1.0  0.73742  0.92992  0.99694  1.0000 -0.0605241438
C   C100      1.0  0.17992  0.68298  0.69250  1.0000 -0.0605241438
C   C101      1.0  0.25952  0.26258  0.19250  1.0000 -0.0605241438
C   C102      1.0  0.31702  0.00952  0.49694  1.0000 -0.0605241438
C   C103      1.0  0.51258  0.82008  0.50306  1.0000 -0.0605241438
C   C104      1.0  0.07008  0.06702  0.80750  1.0000 -0.0605241438
C   C105      1.0  0.04755  0.52689  0.28284  1.0000 -0.1375228884
C   C106      1.0  0.01471  0.79755  0.02066  1.0000 -0.1375228884
C   C107      1.0  0.77689  0.99405  0.97934  1.0000 -0.1375228884
C   C108      1.0  0.24405  0.76471  0.71716  1.0000 -0.1375228884
C   C109      1.0  0.20245  0.22311  0.21716  1.0000 -0.1375228884
C   C110      1.0  0.23529  0.95245  0.47934  1.0000 -0.1375228884
C   C111      1.0  0.47311  0.75595  0.52066  1.0000 -0.1375228884
C   C112      1.0  0.00595  0.98529  0.78284  1.0000 -0.1375228884
C   C113      1.0  0.06272  0.57223  0.25635  1.0000 -0.0782692268
C   C114      1.0  0.05637  0.81272  0.99049  1.0000 -0.0782692268
C   C115      1.0  0.82223  0.06588  0.00951  1.0000 -0.0782692268
C   C116      1.0  0.31588  0.80637  0.74365  1.0000 -0.0782692268
C   C117      1.0  0.18728  0.17777  0.24365  1.0000 -0.0782692268
C   C118      1.0  0.19363  0.93728  0.50951  1.0000 -0.0782692268
C   C119      1.0  0.42777  0.68412  0.49049  1.0000 -0.0782692268
C   C120      1.0  0.93412  0.94363  0.75635  1.0000 -0.0782692268
C   C121      1.0  0.02120  0.57832  0.25412  1.0000 -0.1625597972
C   C122      1.0  0.01708  0.77120  0.94288  1.0000 -0.1625597972
C   C123      1.0  0.82832  0.07420  0.05712  1.0000 -0.1625597972
C   C124      1.0  0.32420  0.76708  0.74588  1.0000 -0.1625597972
C   C125      1.0  0.22880  0.17168  0.24588  1.0000 -0.1625597972
C   C126      1.0  0.23292  0.97880  0.55712  1.0000 -0.1625597972
C   C127      1.0  0.42168  0.67580  0.44288  1.0000 -0.1625597972
C   C128      1.0  0.92580  0.98292  0.75412  1.0000 -0.1625597972
C   C129      1.0  0.03968  0.62527  0.22335  1.0000 0.448786981
C   C130      1.0  0.06633  0.78968  0.91441  1.0000 0.448786981
C   C131      1.0  0.87527  0.15192  0.08559  1.0000 0.448786981
C   C132      1.0  0.40192  0.81633  0.77665  1.0000 0.448786981
C   C133      1.0  0.21032  0.12473  0.27665  1.0000 0.448786981
C   C134      1.0  0.18367  0.96032  0.58559  1.0000 0.448786981
C   C135      1.0  0.37473  0.59808  0.41441  1.0000 0.448786981
C   C136      1.0  0.84808  0.93367  0.72335  1.0000 0.448786981
C   C137      1.0  0.97498  0.67195  0.18253  1.0000 0.448786981
C   C138      1.0  0.04245  0.72498  0.80303  1.0000 0.448786981
C   C139      1.0  0.92195  0.23942  0.19697  1.0000 0.448786981
C   C140      1.0  0.48942  0.79245  0.81747  1.0000 0.448786981
C   C141      1.0  0.27502  0.07805  0.31747  1.0000 0.448786981
C   C142      1.0  0.20755  0.02502  0.69697  1.0000 0.448786981
C   C143      1.0  0.32805  0.51058  0.30303  1.0000 0.448786981
C   C144      1.0  0.76058  0.95755  0.68253  1.0000 0.448786981
C   C145      1.0  0.97941  0.70667  0.14688  1.0000 -0.2454415141
C   C146      1.0  0.08253  0.72941  0.77274  1.0000 -0.2454415141
C   C147      1.0  0.95667  0.30979  0.22726  1.0000 -0.2454415141
C   C148      1.0  0.55979  0.83253  0.85312  1.0000 -0.2454415141
C   C149      1.0  0.27059  0.04333  0.35312  1.0000 -0.2454415141
C   C150      1.0  0.16747  0.02059  0.72726  1.0000 -0.2454415141
C   C151      1.0  0.29333  0.44021  0.27274  1.0000 -0.2454415141
C   C152      1.0  0.69021  0.91747  0.64688  1.0000 -0.2454415141
C   C153      1.0  0.89844  0.65600  0.11984  1.0000 -0.3278031644
C   C154      1.0  0.02860  0.64844  0.74244  1.0000 -0.3278031644
C   C155      1.0  0.90600  0.28616  0.25756  1.0000 -0.3278031644
C   C156      1.0  0.53616  0.77860  0.88016  1.0000 -0.3278031644
C   C157      1.0  0.35156  0.09400  0.38016  1.0000 -0.3278031644
C   C158      1.0  0.22140  0.10156  0.75756  1.0000 -0.3278031644
C   C159      1.0  0.34400  0.46384  0.24244  1.0000 -0.3278031644
C   C160      1.0  0.71384  0.97140  0.61984  1.0000 -0.3278031644
C   C161      1.0  0.75240  0.45419  0.16859  1.0000 0.0893948911
C   C162      1.0  0.83381  0.50240  0.79821  1.0000 0.0893948911
C   C163      1.0  0.70419  0.03560  0.20179  1.0000 0.0893948911
C   C164      1.0  0.28560  0.58381  0.83141  1.0000 0.0893948911
C   C165      1.0  0.49760  0.29581  0.33141  1.0000 0.0893948911
C   C166      1.0  0.41619  0.24760  0.70179  1.0000 0.0893948911
C   C167      1.0  0.54581  0.71440  0.29821  1.0000 0.0893948911
C   C168      1.0  0.96440  0.16619  0.66859  1.0000 0.0893948911
C   C169      1.0  0.68680  0.38850  0.12830  1.0000 -0.2289322904
C   C170      1.0  0.80850  0.43680  0.79830  1.0000 -0.2289322904
C   C171      1.0  0.63850  0.01020  0.20170  1.0000 -0.2289322904
C   C172      1.0  0.26020  0.55850  0.87170  1.0000 -0.2289322904
C   C173      1.0  0.56320  0.36150  0.37170  1.0000 -0.2289322904
C   C174      1.0  0.44150  0.31320  0.70170  1.0000 -0.2289322904
C   C175      1.0  0.61150  0.73980  0.29830  1.0000 -0.2289322904
C   C176      1.0  0.98980  0.19150  0.62830  1.0000 -0.2289322904
C   C177      1.0  0.67510  0.33265  0.11215  1.0000 0.1491136429
C   C178      1.0  0.81295  0.42510  0.84245  1.0000 0.1491136429
C   C179      1.0  0.58265  0.97050  0.15755  1.0000 0.1491136429
C   C180      1.0  0.22050  0.56295  0.88785  1.0000 0.1491136429
C   C181      1.0  0.57490  0.41735  0.38785  1.0000 0.1491136429
C   C182      1.0  0.43705  0.32490  0.65755  1.0000 0.1491136429
C   C183      1.0  0.66735  0.77950  0.34245  1.0000 0.1491136429
C   C184      1.0  0.02950  0.18705  0.61215  1.0000 0.1491136429
C   C185      1.0  0.73340  0.35587  0.12927  1.0000 -0.2027769005
C   C186      1.0  0.85413  0.48340  0.87753  1.0000 -0.2027769005
C   C187      1.0  0.60587  0.97660  0.12247  1.0000 -0.2027769005
C   C188      1.0  0.22660  0.60413  0.87073  1.0000 -0.2027769005
C   C189      1.0  0.51660  0.39413  0.37073  1.0000 -0.2027769005
C   C190      1.0  0.39587  0.26660  0.62247  1.0000 -0.2027769005
C   C191      1.0  0.64413  0.77340  0.37753  1.0000 -0.2027769005
C   C192      1.0  0.02340  0.14587  0.62927  1.0000 -0.2027769005
C   C193      1.0  0.79770  0.42319  0.16829  1.0000 0.0893948911
C   C194      1.0  0.87941  0.54770  0.87451  1.0000 0.0893948911
C   C195      1.0  0.67319  0.00490  0.12549  1.0000 0.0893948911
C   C196      1.0  0.25490  0.62941  0.83171  1.0000 0.0893948911
C   C197      1.0  0.45230  0.32681  0.33171  1.0000 0.0893948911
C   C198      1.0  0.37059  0.20230  0.62549  1.0000 0.0893948911
C   C199      1.0  0.57681  0.74510  0.37451  1.0000 0.0893948911
C   C200      1.0  0.99510  0.12059  0.66829  1.0000 0.0893948911
C   C201      1.0  0.59980  0.25173  0.07273  1.0000 -0.2190647847
C   C202      1.0  0.77707  0.34980  0.84807  1.0000 -0.2190647847
C   C203      1.0  0.50173  0.92900  0.15193  1.0000 -0.2190647847
C   C204      1.0  0.17900  0.52707  0.92727  1.0000 -0.2190647847
C   C205      1.0  0.65020  0.49827  0.42727  1.0000 -0.2190647847
C   C206      1.0  0.47293  0.40020  0.65193  1.0000 -0.2190647847
C   C207      1.0  0.74827  0.82100  0.34807  1.0000 -0.2190647847
C   C208      1.0  0.07100  0.22293  0.57273  1.0000 -0.2190647847
C   C209      1.0  0.17401  0.07606  0.43347  1.0000 0.3015644037
C   C210      1.0  0.99054  0.92401  0.59795  1.0000 0.3015644037
C   C211      1.0  0.32606  0.39259  0.40205  1.0000 0.3015644037
C   C212      1.0  0.64259  0.74054  0.56653  1.0000 0.3015644037
C   C213      1.0  0.07599  0.67394  0.06653  1.0000 0.3015644037
C   C214      1.0  0.25946  0.82599  0.90205  1.0000 0.3015644037
C   C215      1.0  0.92394  0.35741  0.09795  1.0000 0.3015644037
C   C216      1.0  0.60741  0.00946  0.93347  1.0000 0.3015644037
C   C217      1.0  0.21185  0.13830  0.47095  1.0000 -0.2119921134
C   C218      1.0  0.99090  0.96185  0.57355  1.0000 -0.2119921134
C   C219      1.0  0.38830  0.41735  0.42645  1.0000 -0.2119921134
C   C220      1.0  0.66735  0.74090  0.52905  1.0000 -0.2119921134
C   C221      1.0  0.03815  0.61170  0.02905  1.0000 -0.2119921134
C   C222      1.0  0.25910  0.78815  0.92645  1.0000 -0.2119921134
C   C223      1.0  0.86170  0.33265  0.07355  1.0000 -0.2119921134
C   C224      1.0  0.58265  0.00910  0.97095  1.0000 -0.2119921134
C   C225      1.0  0.21094  0.13187  0.51541  1.0000 -0.0782692268
C   C226      1.0  0.94553  0.96094  0.57907  1.0000 -0.0782692268
C   C227      1.0  0.38187  0.36646  0.42093  1.0000 -0.0782692268
C   C228      1.0  0.61646  0.69553  0.48459  1.0000 -0.0782692268
C   C229      1.0  0.03906  0.61813  0.98459  1.0000 -0.0782692268
C   C230      1.0  0.30447  0.78906  0.92093  1.0000 -0.0782692268
C   C231      1.0  0.86813  0.38354  0.07907  1.0000 -0.0782692268
C   C232      1.0  0.63354  0.05447  0.01541  1.0000 -0.0782692268
C   C233      1.0  0.17169  0.06122  0.52491  1.0000 -0.1338373041
C   C234      1.0  0.89678  0.92169  0.61047  1.0000 -0.1338373041
C   C235      1.0  0.31122  0.28631  0.38953  1.0000 -0.1338373041
C   C236      1.0  0.53631  0.64678  0.47509  1.0000 -0.1338373041
C   C237      1.0  0.07831  0.68878  0.97509  1.0000 -0.1338373041
C   C238      1.0  0.35322  0.82831  0.88953  1.0000 -0.1338373041
C   C239      1.0  0.93878  0.46369  0.11047  1.0000 -0.1338373041
C   C240      1.0  0.71369  0.10322  0.02491  1.0000 -0.1338373041
C   C241      1.0  0.13572  0.00035  0.48867  1.0000 -0.0782692268
C   C242      1.0  0.89705  0.88572  0.63537  1.0000 -0.0782692268
C   C243      1.0  0.25035  0.26168  0.36463  1.0000 -0.0782692268
C   C244      1.0  0.51168  0.64705  0.51133  1.0000 -0.0782692268
C   C245      1.0  0.11428  0.74965  0.01133  1.0000 -0.0782692268
C   C246      1.0  0.35295  0.86428  0.86463  1.0000 -0.0782692268
C   C247      1.0  0.99965  0.48832  0.13537  1.0000 -0.0782692268
C   C248      1.0  0.73832  0.10295  0.98867  1.0000 -0.0782692268
C   C249      1.0  0.13444  0.00472  0.44296  1.0000 -0.1519429005
C   C250      1.0  0.94148  0.88444  0.62972  1.0000 -0.1519429005
C   C251      1.0  0.25472  0.31176  0.37028  1.0000 -0.1519429005
C   C252      1.0  0.56176  0.69148  0.55704  1.0000 -0.1519429005
C   C253      1.0  0.11556  0.74528  0.05704  1.0000 -0.1519429005
C   C254      1.0  0.30852  0.86556  0.87028  1.0000 -0.1519429005
C   C255      1.0  0.99528  0.43824  0.12972  1.0000 -0.1519429005
C   C256      1.0  0.68824  0.05852  0.94296  1.0000 -0.1519429005
C   C257      1.0  0.09277  0.93575  0.40652  1.0000 0.4403070481
C   C258      1.0  0.93625  0.84277  0.65702  1.0000 0.4403070481
C   C259      1.0  0.18575  0.27923  0.34298  1.0000 0.4403070481
C   C260      1.0  0.52923  0.68625  0.59348  1.0000 0.4403070481
C   C261      1.0  0.15723  0.81425  0.09348  1.0000 0.4403070481
C   C262      1.0  0.31375  0.90723  0.84298  1.0000 0.4403070481
C   C263      1.0  0.06425  0.47077  0.15702  1.0000 0.4403070481
C   C264      1.0  0.72077  0.06375  0.90652  1.0000 0.4403070481
C   C265      1.0  0.02955  0.86517  0.28812  1.0000 0.448786981
C   C266      1.0  0.99143  0.77955  0.66438  1.0000 0.448786981
C   C267      1.0  0.11517  0.32705  0.33562  1.0000 0.448786981
C   C268      1.0  0.57705  0.74143  0.71188  1.0000 0.448786981
C   C269      1.0  0.22045  0.88483  0.21188  1.0000 0.448786981
C   C270      1.0  0.25857  0.97045  0.83562  1.0000 0.448786981
C   C271      1.0  0.13483  0.42295  0.16438  1.0000 0.448786981
C   C272      1.0  0.67295  0.00857  0.78812  1.0000 0.448786981
C   C273      1.0  0.98017  0.79392  0.24809  1.0000 -0.2708138107
C   C274      1.0  0.98208  0.73017  0.68625  1.0000 -0.2708138107
C   C275      1.0  0.04392  0.29583  0.31375  1.0000 -0.2708138107
C   C276      1.0  0.54583  0.73208  0.75191  1.0000 -0.2708138107
C   C277      1.0  0.26983  0.95608  0.25191  1.0000 -0.2708138107
C   C278      1.0  0.26792  0.01983  0.81375  1.0000 -0.2708138107
C   C279      1.0  0.20608  0.45417  0.18625  1.0000 -0.2708138107
C   C280      1.0  0.70417  0.01792  0.74809  1.0000 -0.2708138107
C   C281      1.0  0.88660  0.73710  0.22970  1.0000 -0.3479155945
C   C282      1.0  0.90690  0.63660  0.64950  1.0000 -0.3479155945
C   C283      1.0  0.98710  0.25740  0.35050  1.0000 -0.3479155945
C   C284      1.0  0.50740  0.65690  0.77030  1.0000 -0.3479155945
C   C285      1.0  0.36340  0.01290  0.27030  1.0000 -0.3479155945
C   C286      1.0  0.34310  0.11340  0.85050  1.0000 -0.3479155945
C   C287      1.0  0.26290  0.49260  0.14950  1.0000 -0.3479155945
C   C288      1.0  0.74260  0.09310  0.72970  1.0000 -0.3479155945
C   C289      1.0  0.32648  0.99206  0.99574  1.0000 0.1107264773
C   C290      1.0  0.58074  0.07648  0.83442  1.0000 0.1107264773
C   C291      1.0  0.24206  0.74632  0.16558  1.0000 0.1107264773
C   C292      1.0  0.99632  0.33074  0.00426  1.0000 0.1107264773
C   C293      1.0  0.92352  0.75794  0.50426  1.0000 0.1107264773
C   C294      1.0  0.66926  0.67352  0.66558  1.0000 0.1107264773
C   C295      1.0  0.00794  0.00368  0.33442  1.0000 0.1107264773
C   C296      1.0  0.25368  0.41926  0.49574  1.0000 0.1107264773
C   C297      1.0  0.39264  0.06387  0.03291  1.0000 -0.2119921134
C   C298      1.0  0.60973  0.14264  0.82877  1.0000 -0.2119921134
C   C299      1.0  0.31387  0.78096  0.17123  1.0000 -0.2119921134
C   C300      1.0  0.03096  0.35973  0.96709  1.0000 -0.2119921134
C   C301      1.0  0.85736  0.68613  0.46709  1.0000 -0.2119921134
C   C302      1.0  0.64027  0.60736  0.67123  1.0000 -0.2119921134
C   C303      1.0  0.93613  0.96904  0.32877  1.0000 -0.2119921134
C   C304      1.0  0.21904  0.39027  0.53291  1.0000 -0.2119921134
C   C305      1.0  0.45990  0.14165  0.02435  1.0000 0.1627150783
C   C306      1.0  0.68555  0.20990  0.81825  1.0000 0.1627150783
C   C307      1.0  0.39165  0.86730  0.18175  1.0000 0.1627150783
C   C308      1.0  0.11730  0.43555  0.97565  1.0000 0.1627150783
C   C309      1.0  0.79010  0.60835  0.47565  1.0000 0.1627150783
C   C310      1.0  0.56445  0.54010  0.68175  1.0000 0.1627150783
C   C311      1.0  0.85835  0.88270  0.31825  1.0000 0.1627150783
C   C312      1.0  0.13270  0.31445  0.52435  1.0000 0.1627150783
C   C313      1.0  0.45852  0.14175  0.97947  1.0000 -0.2027769005
C   C314      1.0  0.72905  0.20852  0.81677  1.0000 -0.1949818051
C   C315      1.0  0.39175  0.91228  0.18323  1.0000 -0.2027769005
C   C316      1.0  0.16228  0.47905  0.02053  1.0000 -0.1949818051
C   C317      1.0  0.79148  0.60825  0.52053  1.0000 -0.1949818051
C   C318      1.0  0.52095  0.54148  0.68323  1.0000 -0.1949818051
C   C319      1.0  0.85825  0.83772  0.31677  1.0000 -0.1949818051
C   C320      1.0  0.08772  0.27095  0.47947  1.0000 -0.1949818051
C   C321      1.0  0.39398  0.07015  0.94473  1.0000 0.0662713106
C   C322      1.0  0.69925  0.14398  0.82383  1.0000 0.0662713106
C   C323      1.0  0.32015  0.87542  0.17617  1.0000 0.0662713106
C   C324      1.0  0.12542  0.44925  0.05527  1.0000 0.0662713106
C   C325      1.0  0.85602  0.67985  0.55527  1.0000 0.0662713106
C   C326      1.0  0.55075  0.60602  0.67617  1.0000 0.0662713106
C   C327      1.0  0.92985  0.87458  0.32383  1.0000 0.0662713106
C   C328      1.0  0.12458  0.30075  0.44473  1.0000 0.0662713106
C   C329      1.0  0.53130  0.22100  0.06370  1.0000 -0.2289322904
C   C330      1.0  0.71760  0.28130  0.81030  1.0000 -0.2289322904
C   C331      1.0  0.47100  0.90730  0.18970  1.0000 -0.2289322904
C   C332      1.0  0.15730  0.46760  0.93630  1.0000 -0.2289322904
C   C333      1.0  0.71870  0.52900  0.43630  1.0000 -0.2289322904
C   C334      1.0  0.53240  0.46870  0.68970  1.0000 -0.2289322904
C   C335      1.0  0.77900  0.84270  0.31030  1.0000 -0.2289322904
C   C336      1.0  0.09270  0.28240  0.56370  1.0000 -0.2289322904
N   N1        1.0  0.94159  0.68402  0.32281  1.0000 -0.3479155945
N   N2        1.0  0.86878  0.69159  0.75757  1.0000 -0.3479155945
N   N3        1.0  0.93402  0.11121  0.24243  1.0000 -0.3479155945
N   N4        1.0  0.36121  0.61878  0.67719  1.0000 -0.3479155945
N   N5        1.0  0.30841  0.06598  0.17719  1.0000 -0.3479155945
N   N6        1.0  0.38122  0.05841  0.74243  1.0000 -0.3479155945
N   N7        1.0  0.31598  0.63879  0.25757  1.0000 -0.3479155945
N   N8        1.0  0.88879  0.13122  0.82281  1.0000 -0.3479155945
N   N9        1.0  0.99480  0.69443  0.31143  1.0000 -0.3237188011
N   N10       1.0  0.93337  0.74480  0.80037  1.0000 -0.3237188011
N   N11       1.0  0.94443  0.13300  0.19963  1.0000 -0.3237188011
N   N12       1.0  0.38300  0.68337  0.68857  1.0000 -0.3237188011
N   N13       1.0  0.25520  0.05557  0.18857  1.0000 -0.3237188011
N   N14       1.0  0.31663  0.00520  0.69963  1.0000 -0.3237188011
N   N15       1.0  0.30557  0.61700  0.30037  1.0000 -0.3237188011
N   N16       1.0  0.86700  0.06663  0.81143  1.0000 -0.3237188011
N   N17       1.0  0.99797  0.62844  0.21787  1.0000 -0.3389758546
N   N18       1.0  0.03010  0.74797  0.86953  1.0000 -0.3389758546
N   N19       1.0  0.87844  0.16057  0.13047  1.0000 -0.3389758546
N   N20       1.0  0.41057  0.78010  0.78213  1.0000 -0.3389758546
N   N21       1.0  0.25203  0.12156  0.28213  1.0000 -0.3389758546
N   N22       1.0  0.21990  0.00203  0.63047  1.0000 -0.3389758546
N   N23       1.0  0.37156  0.58943  0.36953  1.0000 -0.3389758546
N   N24       1.0  0.83943  0.96990  0.71787  1.0000 -0.3389758546
N   N25       1.0  0.01500  0.66831  0.18431  1.0000 -0.3108100808
N   N26       1.0  0.08069  0.76500  0.84669  1.0000 -0.3108100808
N   N27       1.0  0.91831  0.23400  0.15331  1.0000 -0.3108100808
N   N28       1.0  0.48400  0.83069  0.81569  1.0000 -0.3108100808
N   N29       1.0  0.23500  0.08169  0.31569  1.0000 -0.3108100808
N   N30       1.0  0.16931  0.98500  0.65331  1.0000 -0.3108100808
N   N31       1.0  0.33169  0.51600  0.34669  1.0000 -0.3108100808
N   N32       1.0  0.76600  0.91931  0.68431  1.0000 -0.3108100808
N   N33       1.0  0.80531  0.46859  0.18910  1.0000 -0.2190647847
N   N34       1.0  0.86621  0.55531  0.83672  1.0000 -0.2119921134
N   N35       1.0  0.71859  0.02949  0.16328  1.0000 -0.2119921134
N   N36       1.0  0.27949  0.61621  0.81090  1.0000 -0.2190647847
N   N37       1.0  0.44469  0.28141  0.31090  1.0000 -0.2119921134
N   N38       1.0  0.38379  0.19469  0.66328  1.0000 -0.2190647847
N   N39       1.0  0.53141  0.72051  0.33672  1.0000 -0.2119921134
N   N40       1.0  0.97051  0.13379  0.68910  1.0000 -0.2190647847
N   N41       1.0  0.08544  0.93530  0.36222  1.0000 -0.3389758546
N   N42       1.0  0.97322  0.83544  0.65014  1.0000 -0.3389758546
N   N43       1.0  0.18530  0.32308  0.34986  1.0000 -0.3389758546
N   N44       1.0  0.57308  0.72322  0.63778  1.0000 -0.3389758546
N   N45       1.0  0.16456  0.81470  0.13778  1.0000 -0.3389758546
N   N46       1.0  0.27678  0.91456  0.84986  1.0000 -0.3389758546
N   N47       1.0  0.06470  0.42692  0.15014  1.0000 -0.3389758546
N   N48       1.0  0.67692  0.02678  0.86222  1.0000 -0.3389758546
N   N49       1.0  0.04089  0.86394  0.33023  1.0000 -0.3278031644
N   N50       1.0  0.96066  0.79089  0.67695  1.0000 -0.3237188011
N   N51       1.0  0.11394  0.28371  0.32305  1.0000 -0.3278031644
N   N52       1.0  0.53371  0.71066  0.66977  1.0000 -0.3278031644
N   N53       1.0  0.20911  0.88606  0.16977  1.0000 -0.3278031644
N   N54       1.0  0.28934  0.95911  0.82305  1.0000 -0.3278031644
N   N55       1.0  0.13606  0.46629  0.17695  1.0000 -0.3278031644
N   N56       1.0  0.71629  0.03934  0.83023  1.0000 -0.3278031644
N   N57       1.0  0.32639  0.99458  0.95217  1.0000 -0.2190647847
N   N58       1.0  0.62422  0.07639  0.83181  1.0000 -0.2190647847
N   N59       1.0  0.24458  0.79241  0.16819  1.0000 -0.2190647847
N   N60       1.0  0.04241  0.37422  0.04783  1.0000 -0.2190647847
N   N61       1.0  0.92361  0.75542  0.54783  1.0000 -0.2190647847
N   N62       1.0  0.62578  0.67361  0.66819  1.0000 -0.2190647847
N   N63       1.0  0.00542  0.95759  0.33181  1.0000 -0.2190647847
N   N64       1.0  0.20759  0.37578  0.45217  1.0000 -0.2190647847
O   O1        1.0  0.89939  0.72353  0.36572  1.0000 -0.4781168648
O   O2        1.0  0.78367  0.64939  0.67586  1.0000 -0.4781168648
O   O3        1.0  0.97353  0.10781  0.32414  1.0000 -0.4781168648
O   O4        1.0  0.35781  0.53367  0.63428  1.0000 -0.4781168648
O   O5        1.0  0.35061  0.02647  0.13428  1.0000 -0.4781168648
O   O6        1.0  0.46633  0.10061  0.82414  1.0000 -0.4781168648
O   O7        1.0  0.27647  0.64219  0.17586  1.0000 -0.4781168648
O   O8        1.0  0.89219  0.21633  0.86572  1.0000 -0.4781168648
O   O9        1.0  0.83686  0.55462  0.27278  1.0000 -0.4724789847
O   O10       1.0  0.81408  0.58686  0.78224  1.0000 -0.4724789847
O   O11       1.0  0.80462  0.03184  0.21776  1.0000 -0.4724789847
O   O12       1.0  0.28184  0.56408  0.72722  1.0000 -0.4724789847
O   O13       1.0  0.41314  0.19538  0.22722  1.0000 -0.4724789847
O   O14       1.0  0.43592  0.16314  0.71776  1.0000 -0.4724789847
O   O15       1.0  0.44538  0.71816  0.28224  1.0000 -0.4724789847
O   O16       1.0  0.96816  0.18592  0.77278  1.0000 -0.4724789847
O   O17       1.0  0.09273  0.81820  0.36609  1.0000 -0.4975759937
O   O18       1.0  0.97664  0.84273  0.77453  1.0000 -0.4975759937
O   O19       1.0  0.06820  0.20211  0.22547  1.0000 -0.4975759937
O   O20       1.0  0.45211  0.72664  0.63391  1.0000 -0.4975759937
O   O21       1.0  0.15727  0.93180  0.13391  1.0000 -0.4975759937
O   O22       1.0  0.27336  0.90727  0.72547  1.0000 -0.4975759937
O   O23       1.0  0.18180  0.54789  0.27453  1.0000 -0.4975759937
O   O24       1.0  0.79789  0.02336  0.86609  1.0000 -0.4975759937
O   O25       1.0  0.92052  0.53962  0.28028  1.0000 -0.4724789847
O   O26       1.0  0.89024  0.67052  0.88090  1.0000 -0.4724789847
O   O27       1.0  0.78962  0.00934  0.11910  1.0000 -0.4724789847
O   O28       1.0  0.25934  0.64024  0.71972  1.0000 -0.4724789847
O   O29       1.0  0.32948  0.21038  0.21972  1.0000 -0.4724789847
O   O30       1.0  0.35976  0.07948  0.61910  1.0000 -0.4724789847
O   O31       1.0  0.46038  0.74066  0.38090  1.0000 -0.4724789847
O   O32       1.0  0.99066  0.10976  0.78028  1.0000 -0.4724789847
O   O33       1.0  0.09458  0.66152  0.20182  1.0000 -0.4607036888
O   O34       1.0  0.14276  0.84458  0.93306  1.0000 -0.4607036888
O   O35       1.0  0.91152  0.20970  0.06694  1.0000 -0.4607036888
O   O36       1.0  0.45970  0.89276  0.79818  1.0000 -0.4607036888
O   O37       1.0  0.15542  0.08848  0.29818  1.0000 -0.4607036888
O   O38       1.0  0.10724  0.90542  0.56694  1.0000 -0.4607036888
O   O39       1.0  0.33848  0.54030  0.43306  1.0000 -0.4607036888
O   O40       1.0  0.79030  0.85724  0.70182  1.0000 -0.4607036888
O   O41       1.0  0.92764  0.64333  0.20955  1.0000 -0.4940977461
O   O42       1.0  0.96809  0.67764  0.78431  1.0000 -0.4940977461
O   O43       1.0  0.89333  0.18378  0.21569  1.0000 -0.4940977461
O   O44       1.0  0.43378  0.71809  0.79045  1.0000 -0.4940977461
O   O45       1.0  0.32236  0.10667  0.29045  1.0000 -0.4940977461
O   O46       1.0  0.28191  0.07236  0.71569  1.0000 -0.4940977461
O   O47       1.0  0.35667  0.56622  0.28431  1.0000 -0.4940977461
O   O48       1.0  0.81622  0.03191  0.70955  1.0000 -0.4940977461
O   O49       1.0  0.17823  0.08868  0.39165  1.0000 -0.4724789847
O   O50       1.0  0.03658  0.92823  0.58955  1.0000 -0.4724789847
O   O51       1.0  0.33868  0.44703  0.41045  1.0000 -0.4724789847
O   O52       1.0  0.69703  0.78658  0.60835  1.0000 -0.4724789847
O   O53       1.0  0.07177  0.66132  0.10835  1.0000 -0.4724789847
O   O54       1.0  0.21342  0.82177  0.91045  1.0000 -0.4724789847
O   O55       1.0  0.91132  0.30297  0.08955  1.0000 -0.4724789847
O   O56       1.0  0.55297  0.96342  0.89165  1.0000 -0.4724789847
O   O57       1.0  0.06365  0.87591  0.41810  1.0000 -0.4781168648
O   O58       1.0  0.89555  0.81365  0.68774  1.0000 -0.4781168648
O   O59       1.0  0.12591  0.20781  0.31226  1.0000 -0.4781168648
O   O60       1.0  0.45781  0.64555  0.58190  1.0000 -0.4781168648
O   O61       1.0  0.18635  0.87409  0.08190  1.0000 -0.4781168648
O   O62       1.0  0.35445  0.93635  0.81226  1.0000 -0.4781168648
O   O63       1.0  0.12409  0.54219  0.18774  1.0000 -0.4781168648
O   O64       1.0  0.79219  0.10445  0.91810  1.0000 -0.4781168648
O   O65       1.0  0.05762  0.92577  0.27867  1.0000 -0.4724789847
O   O66       1.0  0.02895  0.80762  0.63185  1.0000 -0.4724789847
O   O67       1.0  0.17577  0.39710  0.36815  1.0000 -0.4724789847
O   O68       1.0  0.64710  0.77895  0.72133  1.0000 -0.4724789847
O   O69       1.0  0.19238  0.82423  0.22133  1.0000 -0.4781168648
O   O70       1.0  0.22105  0.94238  0.86815  1.0000 -0.4781168648
O   O71       1.0  0.07423  0.35290  0.13185  1.0000 -0.4781168648
O   O72       1.0  0.60290  0.97105  0.77867  1.0000 -0.4724789847
