# DDEC6 charges by PACMAN v1.1 (https://github.com/mtap-research/PACMAN-charge/)
data_2005[Cu][pts]3[ASR]2
_chemical_formula_sum              "Cu4 H40 C68 N4 O16"
_cell_length_a       16.0699
_cell_length_b       16.0699
_cell_length_c       23.5937
_cell_angle_alpha    90
_cell_angle_beta     90
_cell_angle_gamma    123.322

_symmetry_space_group_name_H-M    "P 1"
_symmetry_Int_Tables_number       1

loop_
  _symmetry_equiv_pos_as_xyz
  'x, y, z'

loop_
  _atom_site_type_symbol
  _atom_site_label
  _atom_site_symmetry_multiplicity
  _atom_site_fract_x
  _atom_site_fract_y
  _atom_site_fract_z
  _atom_site_occupancy
  _atom_site_charge
Cu  Cu1       1.0  0.90392  0.46568  0.50000  1.0000 0.8566392827
Cu  Cu2       1.0  0.09608  0.53432  0.50000  1.0000 0.8566392827
Cu  Cu3       1.0  0.53432  0.09608  0.00000  1.0000 0.8566392827
Cu  Cu4       1.0  0.46568  0.90392  0.00000  1.0000 0.8566392827
H   H1        1.0  0.09640  0.34440  0.36990  1.0000 0.1300307597
H   H2        1.0  0.90360  0.65560  0.36990  1.0000 0.1300307597
H   H3        1.0  0.65560  0.90360  0.13010  1.0000 0.1300307597
H   H4        1.0  0.34440  0.09640  0.13010  1.0000 0.1300307597
H   H5        1.0  0.90360  0.65560  0.63010  1.0000 0.1300307597
H   H6        1.0  0.09640  0.34440  0.63010  1.0000 0.1300307597
H   H7        1.0  0.34440  0.09640  0.86990  1.0000 0.1300307597
H   H8        1.0  0.65560  0.90360  0.86990  1.0000 0.1300307597
H   H9        1.0  0.06690  0.23350  0.29730  1.0000 0.1300307597
H   H10       1.0  0.93310  0.76650  0.29730  1.0000 0.1300307597
H   H11       1.0  0.76650  0.93310  0.20270  1.0000 0.1300307597
H   H12       1.0  0.23350  0.06690  0.20270  1.0000 0.1300307597
H   H13       1.0  0.93310  0.76650  0.70270  1.0000 0.1300307597
H   H14       1.0  0.06690  0.23350  0.70270  1.0000 0.1300307597
H   H15       1.0  0.23350  0.06690  0.79730  1.0000 0.1300307597
H   H16       1.0  0.76650  0.93310  0.79730  1.0000 0.1300307597
H   H17       1.0  0.77740  0.12880  0.30260  1.0000 0.1300307597
H   H18       1.0  0.22260  0.87120  0.30260  1.0000 0.1300307597
H   H19       1.0  0.87120  0.22260  0.19740  1.0000 0.1300307597
H   H20       1.0  0.12880  0.77740  0.19740  1.0000 0.1300307597
H   H21       1.0  0.22260  0.87120  0.69740  1.0000 0.1300307597
H   H22       1.0  0.77740  0.12880  0.69740  1.0000 0.1300307597
H   H23       1.0  0.12880  0.77740  0.80260  1.0000 0.1300307597
H   H24       1.0  0.87120  0.22260  0.80260  1.0000 0.1300307597
H   H25       1.0  0.80680  0.24220  0.37160  1.0000 0.1300307597
H   H26       1.0  0.19320  0.75780  0.37160  1.0000 0.1300307597
H   H27       1.0  0.75780  0.19320  0.12840  1.0000 0.1300307597
H   H28       1.0  0.24220  0.80680  0.12840  1.0000 0.1300307597
H   H29       1.0  0.19320  0.75780  0.62840  1.0000 0.1300307597
H   H30       1.0  0.80680  0.24220  0.62840  1.0000 0.1300307597
H   H31       1.0  0.24220  0.80680  0.87160  1.0000 0.1300307597
H   H32       1.0  0.75780  0.19320  0.87160  1.0000 0.1300307597
H   H33       1.0  0.95390  0.03470  0.33430  1.0000 0.1300307597
H   H34       1.0  0.04610  0.96530  0.33430  1.0000 0.1300307597
H   H35       1.0  0.96530  0.04610  0.16570  1.0000 0.1300307597
H   H36       1.0  0.03470  0.95390  0.16570  1.0000 0.1300307597
H   H37       1.0  0.04610  0.96530  0.66570  1.0000 0.1300307597
H   H38       1.0  0.95390  0.03470  0.66570  1.0000 0.1300307597
H   H39       1.0  0.03470  0.95390  0.83430  1.0000 0.1300307597
H   H40       1.0  0.96530  0.04610  0.83430  1.0000 0.1300307597
C   C1        1.0  0.97164  0.37684  0.42401  1.0000 0.5736108589
C   C2        1.0  0.02836  0.62316  0.42401  1.0000 0.5736108589
C   C3        1.0  0.62316  0.02836  0.07599  1.0000 0.5736108589
C   C4        1.0  0.37684  0.97164  0.07599  1.0000 0.5736108589
C   C5        1.0  0.02836  0.62316  0.57599  1.0000 0.5736108589
C   C6        1.0  0.97164  0.37684  0.57599  1.0000 0.5736108589
C   C7        1.0  0.37684  0.97164  0.92401  1.0000 0.5736108589
C   C8        1.0  0.62316  0.02836  0.92401  1.0000 0.5736108589
C   C9        1.0  0.95397  0.30453  0.37845  1.0000 -0.0604449558
C   C10       1.0  0.04603  0.69547  0.37845  1.0000 -0.0604449558
C   C11       1.0  0.69547  0.04603  0.12155  1.0000 -0.0604449558
C   C12       1.0  0.30453  0.95397  0.12155  1.0000 -0.0604449558
C   C13       1.0  0.04603  0.69547  0.62155  1.0000 -0.0604449558
C   C14       1.0  0.95397  0.30453  0.62155  1.0000 -0.0604449558
C   C15       1.0  0.30453  0.95397  0.87845  1.0000 -0.0604449558
C   C16       1.0  0.69547  0.04603  0.87845  1.0000 -0.0604449558
C   C17       1.0  0.03208  0.30156  0.35618  1.0000 -0.0761304081
C   C18       1.0  0.96792  0.69844  0.35618  1.0000 -0.0761304081
C   C19       1.0  0.69844  0.96792  0.14382  1.0000 -0.0744060111
C   C20       1.0  0.30156  0.03208  0.14382  1.0000 -0.0761304081
C   C21       1.0  0.96792  0.69844  0.64382  1.0000 -0.0761304081
C   C22       1.0  0.03208  0.30156  0.64382  1.0000 -0.0761304081
C   C23       1.0  0.30156  0.03208  0.85618  1.0000 -0.0761304081
C   C24       1.0  0.69844  0.96792  0.85618  1.0000 -0.0744060111
C   C25       1.0  0.01407  0.23403  0.31298  1.0000 -0.1961992425
C   C26       1.0  0.98593  0.76597  0.31298  1.0000 -0.1899262445
C   C27       1.0  0.76597  0.98593  0.18702  1.0000 -0.1961992425
C   C28       1.0  0.23403  0.01407  0.18702  1.0000 -0.1899262445
C   C29       1.0  0.98593  0.76597  0.68702  1.0000 -0.1899262445
C   C30       1.0  0.01407  0.23403  0.68702  1.0000 -0.1961992425
C   C31       1.0  0.23403  0.01407  0.81298  1.0000 -0.1961992425
C   C32       1.0  0.76597  0.98593  0.81298  1.0000 -0.1961992425
C   C33       1.0  0.91816  0.16780  0.29343  1.0000 0.1656124525
C   C34       1.0  0.08184  0.83220  0.29343  1.0000 0.1656124525
C   C35       1.0  0.83220  0.08184  0.20657  1.0000 0.1656124525
C   C36       1.0  0.16780  0.91816  0.20657  1.0000 0.1644923407
C   C37       1.0  0.08184  0.83220  0.70657  1.0000 0.1656124525
C   C38       1.0  0.91816  0.16780  0.70657  1.0000 0.1656124525
C   C39       1.0  0.16780  0.91816  0.79343  1.0000 0.1656124525
C   C40       1.0  0.83220  0.08184  0.79343  1.0000 0.1656124525
C   C41       1.0  0.84195  0.17217  0.31574  1.0000 -0.1899262445
C   C42       1.0  0.15805  0.82783  0.31574  1.0000 -0.1899262445
C   C43       1.0  0.82783  0.15805  0.18426  1.0000 -0.1899262445
C   C44       1.0  0.17217  0.84195  0.18426  1.0000 -0.1899262445
C   C45       1.0  0.15805  0.82783  0.68426  1.0000 -0.1899262445
C   C46       1.0  0.84195  0.17217  0.68426  1.0000 -0.1899262445
C   C47       1.0  0.17217  0.84195  0.81574  1.0000 -0.1899262445
C   C48       1.0  0.82783  0.15805  0.81574  1.0000 -0.1899262445
C   C49       1.0  0.85957  0.23993  0.35739  1.0000 -0.0761304081
C   C50       1.0  0.14043  0.76007  0.35739  1.0000 -0.0761304081
C   C51       1.0  0.76007  0.14043  0.14261  1.0000 -0.0761304081
C   C52       1.0  0.23993  0.85957  0.14261  1.0000 -0.0761304081
C   C53       1.0  0.14043  0.76007  0.64261  1.0000 -0.0761304081
C   C54       1.0  0.85957  0.23993  0.64261  1.0000 -0.0761304081
C   C55       1.0  0.23993  0.85957  0.85739  1.0000 -0.0761304081
C   C56       1.0  0.76007  0.14043  0.85739  1.0000 -0.0761304081
C   C57       1.0  0.95021  0.04979  0.25000  1.0000 0.13574435
C   C58       1.0  0.04979  0.95021  0.25000  1.0000 0.13574435
C   C59       1.0  0.04979  0.95021  0.75000  1.0000 0.13574435
C   C60       1.0  0.95021  0.04979  0.75000  1.0000 0.13574435
C   C61       1.0  0.97376  0.02254  0.29995  1.0000 -0.1687598571
C   C62       1.0  0.02624  0.97746  0.29995  1.0000 -0.1687598571
C   C63       1.0  0.97746  0.02624  0.20005  1.0000 -0.1687598571
C   C64       1.0  0.02254  0.97376  0.20005  1.0000 -0.1687598571
C   C65       1.0  0.02624  0.97746  0.70005  1.0000 -0.1687598571
C   C66       1.0  0.97376  0.02254  0.70005  1.0000 -0.1687598571
C   C67       1.0  0.02254  0.97376  0.79995  1.0000 -0.1687598571
C   C68       1.0  0.97746  0.02624  0.79995  1.0000 -0.1687598571
N   N1        1.0  0.90035  0.09965  0.25000  1.0000 -0.1687598571
N   N2        1.0  0.09965  0.90035  0.25000  1.0000 -0.1687598571
N   N3        1.0  0.09965  0.90035  0.75000  1.0000 -0.1687598571
N   N4        1.0  0.90035  0.09965  0.75000  1.0000 -0.1687598571
O   O1        1.0  0.89803  0.37605  0.44164  1.0000 -0.5183372539
O   O2        1.0  0.10197  0.62395  0.44164  1.0000 -0.5183372539
O   O3        1.0  0.62395  0.10197  0.05836  1.0000 -0.5183372539
O   O4        1.0  0.37605  0.89803  0.05836  1.0000 -0.5148719233
O   O5        1.0  0.10197  0.62395  0.55836  1.0000 -0.5183372539
O   O6        1.0  0.89803  0.37605  0.55836  1.0000 -0.5183372539
O   O7        1.0  0.37605  0.89803  0.94164  1.0000 -0.5183372539
O   O8        1.0  0.62395  0.10197  0.94164  1.0000 -0.5183372539
O   O9        1.0  0.05993  0.43273  0.44163  1.0000 -0.5183372539
O   O10       1.0  0.94007  0.56727  0.44163  1.0000 -0.5183372539
O   O11       1.0  0.56727  0.94007  0.05837  1.0000 -0.5183372539
O   O12       1.0  0.43273  0.05993  0.05837  1.0000 -0.5183372539
O   O13       1.0  0.94007  0.56727  0.55837  1.0000 -0.5183372539
O   O14       1.0  0.05993  0.43273  0.55837  1.0000 -0.5183372539
O   O15       1.0  0.43273  0.05993  0.94163  1.0000 -0.5183372539
O   O16       1.0  0.56727  0.94007  0.94163  1.0000 -0.5183372539
