# DDEC6 charges by PACMAN v1.1 (https://github.com/mtap-research/PACMAN-charge/)
data_2005[Tb][nan]3[ASR]1
_chemical_formula_sum              "Tb4 H12 C36 O24"
_cell_length_a       10.2792
_cell_length_b       10.2792
_cell_length_c       14.5376
_cell_angle_alpha    90
_cell_angle_beta     90
_cell_angle_gamma    90

_symmetry_space_group_name_H-M    "P 1"
_symmetry_Int_Tables_number       1

loop_
  _symmetry_equiv_pos_as_xyz
  'x, y, z'

loop_
  _atom_site_type_symbol
  _atom_site_label
  _atom_site_symmetry_multiplicity
  _atom_site_fract_x
  _atom_site_fract_y
  _atom_site_fract_z
  _atom_site_occupancy
  _atom_site_charge
Tb  Tb1       1.0  0.85129  0.85129  0.37500  1.0000 2.1215302498
Tb  Tb2       1.0  0.14871  0.14871  0.87500  1.0000 2.1215302498
Tb  Tb3       1.0  0.14871  0.85129  0.62500  1.0000 2.1215302498
Tb  Tb4       1.0  0.85129  0.14871  0.12500  1.0000 2.1215302498
H   H1        1.0  0.92670  0.43580  0.37170  1.0000 0.1365564168
H   H2        1.0  0.07330  0.56420  0.87170  1.0000 0.1365564168
H   H3        1.0  0.56420  0.92670  0.62170  1.0000 0.1365564168
H   H4        1.0  0.43580  0.07330  0.12170  1.0000 0.1365564168
H   H5        1.0  0.07330  0.43580  0.62830  1.0000 0.1365564168
H   H6        1.0  0.92670  0.56420  0.12830  1.0000 0.1365564168
H   H7        1.0  0.43580  0.92670  0.37830  1.0000 0.1365564168
H   H8        1.0  0.56420  0.07330  0.87830  1.0000 0.1365564168
H   H9        1.0  0.00000  0.10100  0.50000  1.0000 0.1086875127
H   H10       1.0  0.00000  0.89900  0.00000  1.0000 0.1086875127
H   H11       1.0  0.89900  0.00000  0.75000  1.0000 0.1086875127
H   H12       1.0  0.10100  0.00000  0.25000  1.0000 0.1086875127
C   C1        1.0  0.95950  0.39490  0.42310  1.0000 -0.0923773422
C   C2        1.0  0.95900  0.26100  0.42330  1.0000 -0.0376816248
C   C3        1.0  0.91430  0.18550  0.34020  1.0000 0.6445467622
C   C4        1.0  0.04050  0.60510  0.92310  1.0000 -0.0923773422
C   C5        1.0  0.04100  0.73900  0.92330  1.0000 -0.0376816248
C   C6        1.0  0.08570  0.81450  0.84020  1.0000 0.6445467622
C   C7        1.0  0.60510  0.95950  0.67310  1.0000 -0.0923773422
C   C8        1.0  0.73900  0.95900  0.67330  1.0000 -0.0376816248
C   C9        1.0  0.81450  0.91430  0.59020  1.0000 0.6445467622
C   C10       1.0  0.39490  0.04050  0.17310  1.0000 -0.0923773422
C   C11       1.0  0.26100  0.04100  0.17330  1.0000 -0.0376816248
C   C12       1.0  0.18550  0.08570  0.09020  1.0000 0.6445467622
C   C13       1.0  0.04050  0.39490  0.57690  1.0000 -0.0923773422
C   C14       1.0  0.04100  0.26100  0.57670  1.0000 -0.0376816248
C   C15       1.0  0.08570  0.18550  0.65980  1.0000 0.6445467622
C   C16       1.0  0.95950  0.60510  0.07690  1.0000 -0.0923773422
C   C17       1.0  0.95900  0.73900  0.07670  1.0000 -0.0376816248
C   C18       1.0  0.91430  0.81450  0.15980  1.0000 0.6445467622
C   C19       1.0  0.39490  0.95950  0.32690  1.0000 -0.0923773422
C   C20       1.0  0.26100  0.95900  0.32670  1.0000 -0.0376816248
C   C21       1.0  0.18550  0.91430  0.40980  1.0000 0.6445467622
C   C22       1.0  0.60510  0.04050  0.82690  1.0000 -0.0923773422
C   C23       1.0  0.73900  0.04100  0.82670  1.0000 -0.0376816248
C   C24       1.0  0.81450  0.08570  0.90980  1.0000 0.6445467622
C   C25       1.0  0.00000  0.46100  0.50000  1.0000 -0.0376816248
C   C26       1.0  0.00000  0.19400  0.50000  1.0000 -0.1132700368
C   C27       1.0  0.00000  0.60900  0.50000  1.0000 0.6761163623
C   C28       1.0  0.00000  0.53900  0.00000  1.0000 -0.0376816248
C   C29       1.0  0.00000  0.80600  0.00000  1.0000 -0.1132700368
C   C30       1.0  0.00000  0.39100  0.00000  1.0000 0.6761163623
C   C31       1.0  0.53900  0.00000  0.75000  1.0000 -0.0376816248
C   C32       1.0  0.80600  0.00000  0.75000  1.0000 -0.1132700368
C   C33       1.0  0.39100  0.00000  0.75000  1.0000 0.6761163623
C   C34       1.0  0.46100  0.00000  0.25000  1.0000 -0.0376816248
C   C35       1.0  0.19400  0.00000  0.25000  1.0000 -0.1132700368
C   C36       1.0  0.60900  0.00000  0.25000  1.0000 0.6761163623
O   O1        1.0  0.92910  0.66470  0.44180  1.0000 -0.6946041583
O   O2        1.0  0.88940  0.06910  0.34790  1.0000 -0.676566705
O   O3        1.0  0.75620  0.90810  0.51470  1.0000 -0.6575645803
O   O4        1.0  0.07090  0.33530  0.94180  1.0000 -0.6946041583
O   O5        1.0  0.11060  0.93090  0.84790  1.0000 -0.676566705
O   O6        1.0  0.24380  0.09190  0.01470  1.0000 -0.6575645803
O   O7        1.0  0.33530  0.92910  0.69180  1.0000 -0.6946041583
O   O8        1.0  0.93090  0.88940  0.59790  1.0000 -0.676566705
O   O9        1.0  0.09190  0.75620  0.76470  1.0000 -0.6575645803
O   O10       1.0  0.66470  0.07090  0.19180  1.0000 -0.6946041583
O   O11       1.0  0.06910  0.11060  0.09790  1.0000 -0.676566705
O   O12       1.0  0.90810  0.24380  0.26470  1.0000 -0.6575645803
O   O13       1.0  0.07090  0.66470  0.55820  1.0000 -0.6946041583
O   O14       1.0  0.11060  0.06910  0.65210  1.0000 -0.676566705
O   O15       1.0  0.24380  0.90810  0.48530  1.0000 -0.6575645803
O   O16       1.0  0.92910  0.33530  0.05820  1.0000 -0.6946041583
O   O17       1.0  0.88940  0.93090  0.15210  1.0000 -0.676566705
O   O18       1.0  0.75620  0.09190  0.98530  1.0000 -0.6575645803
O   O19       1.0  0.66470  0.92910  0.30820  1.0000 -0.6946041583
O   O20       1.0  0.06910  0.88940  0.40210  1.0000 -0.676566705
O   O21       1.0  0.90810  0.75620  0.23530  1.0000 -0.6575645803
O   O22       1.0  0.33530  0.07090  0.80820  1.0000 -0.6946041583
O   O23       1.0  0.93090  0.11060  0.90210  1.0000 -0.676566705
O   O24       1.0  0.09190  0.24380  0.73530  1.0000 -0.6575645803
