# DDEC6 charges by PACMAN v1.1 (https://github.com/mtap-research/PACMAN-charge/)
data_2005[Mn][lvt]2[ASR]6
_chemical_formula_sum              "Mn24 H312 C336 N64 O72"
_cell_length_a       29.9878
_cell_length_b       29.9878
_cell_length_c       29.9878
_cell_angle_alpha    94.9432
_cell_angle_beta     94.9432
_cell_angle_gamma    145.859

_symmetry_space_group_name_H-M    "P 1"
_symmetry_Int_Tables_number       1

loop_
  _symmetry_equiv_pos_as_xyz
  'x, y, z'

loop_
  _atom_site_type_symbol
  _atom_site_label
  _atom_site_symmetry_multiplicity
  _atom_site_fract_x
  _atom_site_fract_y
  _atom_site_fract_z
  _atom_site_occupancy
  _atom_site_charge
Mn  Mn1       1.0  0.52777  0.65856  0.27957  1.0000 0.908041735
Mn  Mn2       1.0  0.49820  0.27777  0.36921  1.0000 0.908041735
Mn  Mn3       1.0  0.90856  0.12899  0.63079  1.0000 0.908041735
Mn  Mn4       1.0  0.37899  0.24820  0.72043  1.0000 0.908041735
Mn  Mn5       1.0  0.72223  0.09144  0.22043  1.0000 0.908041735
Mn  Mn6       1.0  0.75180  0.47223  0.13079  1.0000 0.908041735
Mn  Mn7       1.0  0.34144  0.62101  0.86921  1.0000 0.908041735
Mn  Mn8       1.0  0.87101  0.50180  0.77957  1.0000 0.908041735
Mn  Mn9       1.0  0.33655  0.59025  0.17174  1.0000 0.901306045
Mn  Mn10      1.0  0.41481  0.08655  0.24630  1.0000 0.901306045
Mn  Mn11      1.0  0.84025  0.16851  0.75370  1.0000 0.901306045
Mn  Mn12      1.0  0.41851  0.16481  0.82826  1.0000 0.901306045
Mn  Mn13      1.0  0.91345  0.15975  0.32826  1.0000 0.901306045
Mn  Mn14      1.0  0.83519  0.66345  0.25370  1.0000 0.901306045
Mn  Mn15      1.0  0.40975  0.58149  0.74630  1.0000 0.901306045
Mn  Mn16      1.0  0.83149  0.58519  0.67174  1.0000 0.901306045
Mn  Mn17      1.0  0.76637  0.93257  0.39222  1.0000 0.8894641891
Mn  Mn18      1.0  0.62415  0.51637  0.33380  1.0000 0.8792638575
Mn  Mn19      1.0  0.18257  0.29035  0.66620  1.0000 0.8792638575
Mn  Mn20      1.0  0.54035  0.37415  0.60778  1.0000 0.8792638575
Mn  Mn21      1.0  0.48363  0.81743  0.10778  1.0000 0.8894641891
Mn  Mn22      1.0  0.62585  0.23363  0.16620  1.0000 0.8792638575
Mn  Mn23      1.0  0.06743  0.45965  0.83380  1.0000 0.8792638575
Mn  Mn24      1.0  0.70965  0.37585  0.89222  1.0000 0.8792638575
H   H1        1.0  0.42890  0.57260  0.39770  1.0000 0.1307498661
H   H2        1.0  0.28120  0.17890  0.35630  1.0000 0.1307498661
H   H3        1.0  0.82260  0.92490  0.64370  1.0000 0.1307498661
H   H4        1.0  0.17490  0.03120  0.60230  1.0000 0.1307498661
H   H5        1.0  0.82110  0.17740  0.10230  1.0000 0.1307498661
H   H6        1.0  0.96880  0.57110  0.14370  1.0000 0.1307498661
H   H7        1.0  0.42740  0.82510  0.85630  1.0000 0.1307498661
H   H8        1.0  0.07510  0.71880  0.89770  1.0000 0.1307498661
H   H9        1.0  0.30530  0.49000  0.40830  1.0000 0.1104069797
H   H10       1.0  0.14700  0.05530  0.31530  1.0000 0.1104069797
H   H11       1.0  0.74000  0.83170  0.68470  1.0000 0.1104069797
H   H12       1.0  0.08170  0.89700  0.59170  1.0000 0.1104069797
H   H13       1.0  0.94470  0.26000  0.09170  1.0000 0.1104069797
H   H14       1.0  0.10300  0.69470  0.18470  1.0000 0.1104069797
H   H15       1.0  0.51000  0.91830  0.81530  1.0000 0.1104069797
H   H16       1.0  0.16830  0.85300  0.90830  1.0000 0.1104069797
H   H17       1.0  0.19330  0.41770  0.34360  1.0000 0.1197123528
H   H18       1.0  0.09970  0.94330  0.27560  1.0000 0.1197123528
H   H19       1.0  0.66770  0.82410  0.72440  1.0000 0.1197123528
H   H20       1.0  0.07410  0.84970  0.65640  1.0000 0.1197123528
H   H21       1.0  0.05670  0.33230  0.15640  1.0000 0.1197123528
H   H22       1.0  0.15030  0.80670  0.22440  1.0000 0.1197123528
H   H23       1.0  0.58230  0.92590  0.77560  1.0000 0.1197123528
H   H24       1.0  0.17590  0.90030  0.84360  1.0000 0.1197123528
H   H25       1.0  0.23200  0.46950  0.27650  1.0000 0.1197123528
H   H26       1.0  0.20550  0.98200  0.26250  1.0000 0.1197123528
H   H27       1.0  0.71950  0.94300  0.73750  1.0000 0.1197123528
H   H28       1.0  0.19300  0.95550  0.72350  1.0000 0.1197123528
H   H29       1.0  0.01800  0.28050  0.22350  1.0000 0.1197123528
H   H30       1.0  0.04450  0.76800  0.23750  1.0000 0.1197123528
H   H31       1.0  0.53050  0.80700  0.76250  1.0000 0.1197123528
H   H32       1.0  0.05700  0.79450  0.77650  1.0000 0.1197123528
H   H33       1.0  0.48500  0.65850  0.12490  1.0000 0.1307498661
H   H34       1.0  0.61010  0.23500  0.32650  1.0000 0.1307498661
H   H35       1.0  0.90850  0.28360  0.67350  1.0000 0.1307498661
H   H36       1.0  0.53360  0.36010  0.87510  1.0000 0.1307498661
H   H37       1.0  0.76500  0.09150  0.37510  1.0000 0.1307498661
H   H38       1.0  0.63990  0.51500  0.17350  1.0000 0.1307498661
H   H39       1.0  0.34150  0.46640  0.82650  1.0000 0.1307498661
H   H40       1.0  0.71640  0.38990  0.62490  1.0000 0.1307498661
H   H41       1.0  0.54470  0.74790  0.15440  1.0000 0.1391393556
H   H42       1.0  0.64030  0.29470  0.29680  1.0000 0.1391393556
H   H43       1.0  0.99790  0.34350  0.70320  1.0000 0.1391393556
H   H44       1.0  0.59350  0.39030  0.84560  1.0000 0.1391393556
H   H45       1.0  0.70530  0.00210  0.34560  1.0000 0.1391393556
H   H46       1.0  0.60970  0.45530  0.20320  1.0000 0.1391393556
H   H47       1.0  0.25210  0.40650  0.79680  1.0000 0.1391393556
H   H48       1.0  0.65650  0.35970  0.65440  1.0000 0.1391393556
H   H49       1.0  0.59890  0.70440  0.14230  1.0000 0.1197123528
H   H50       1.0  0.70660  0.34890  0.39450  1.0000 0.1197123528
H   H51       1.0  0.95440  0.31210  0.60550  1.0000 0.1197123528
H   H52       1.0  0.56210  0.45660  0.85770  1.0000 0.1197123528
H   H53       1.0  0.65110  0.04560  0.35770  1.0000 0.1197123528
H   H54       1.0  0.54340  0.40110  0.10550  1.0000 0.1197123528
H   H55       1.0  0.29560  0.43790  0.89450  1.0000 0.1197123528
H   H56       1.0  0.68790  0.29340  0.64230  1.0000 0.1197123528
H   H57       1.0  0.61130  0.75400  0.11190  1.0000 0.1197123528
H   H58       1.0  0.74940  0.36130  0.35730  1.0000 0.1197123528
H   H59       1.0  0.00400  0.39210  0.64270  1.0000 0.1197123528
H   H60       1.0  0.64210  0.49940  0.88810  1.0000 0.1197123528
H   H61       1.0  0.63870  0.99600  0.38810  1.0000 0.1197123528
H   H62       1.0  0.50060  0.38870  0.14270  1.0000 0.1197123528
H   H63       1.0  0.24600  0.35790  0.85730  1.0000 0.1197123528
H   H64       1.0  0.60790  0.25060  0.61190  1.0000 0.1197123528
H   H65       1.0  0.65710  0.79520  0.16670  1.0000 0.1197123528
H   H66       1.0  0.74040  0.40710  0.36190  1.0000 0.1197123528
H   H67       1.0  0.04520  0.37850  0.63810  1.0000 0.1197123528
H   H68       1.0  0.62850  0.49040  0.83330  1.0000 0.1197123528
H   H69       1.0  0.59290  0.95480  0.33333  1.0000 0.1197123528
H   H70       1.0  0.50960  0.34290  0.13810  1.0000 0.1197123528
H   H71       1.0  0.20480  0.37150  0.86190  1.0000 0.1197123528
H   H72       1.0  0.62150  0.25960  0.66667  1.0000 0.1197123528
H   H73       1.0  0.21020  0.38820  0.05700  1.0000 0.1391393556
H   H74       1.0  0.40320  0.96020  0.32200  1.0000 0.1391393556
H   H75       1.0  0.63820  0.08120  0.67800  1.0000 0.1391393556
H   H76       1.0  0.33120  0.15320  0.94300  1.0000 0.1391393556
H   H77       1.0  0.03980  0.36180  0.44300  1.0000 0.1391393556
H   H78       1.0  0.84680  0.78980  0.17800  1.0000 0.1391393556
H   H79       1.0  0.61180  0.66880  0.82200  1.0000 0.1391393556
H   H80       1.0  0.91880  0.59680  0.55700  1.0000 0.1391393556
H   H81       1.0  0.20160  0.37680  0.97880  1.0000 0.1104069797
H   H82       1.0  0.47280  0.95160  0.32480  1.0000 0.1104069797
H   H83       1.0  0.62680  0.14800  0.67520  1.0000 0.1104069797
H   H84       1.0  0.39800  0.22280  0.02120  1.0000 0.1104069797
H   H85       1.0  0.04840  0.37320  0.52120  1.0000 0.1104069797
H   H86       1.0  0.77720  0.79840  0.17520  1.0000 0.1104069797
H   H87       1.0  0.62320  0.60200  0.82480  1.0000 0.1104069797
H   H88       1.0  0.85200  0.52720  0.47880  1.0000 0.1104069797
H   H89       1.0  0.26830  0.48490  0.94860  1.0000 0.1307498661
H   H90       1.0  0.56970  0.01830  0.28340  1.0000 0.1307498661
H   H91       1.0  0.73490  0.28630  0.71660  1.0000 0.1307498661
H   H92       1.0  0.53630  0.31970  0.05140  1.0000 0.1307498661
H   H93       1.0  0.98170  0.26510  0.55140  1.0000 0.1307498661
H   H94       1.0  0.68030  0.73170  0.21660  1.0000 0.1307498661
H   H95       1.0  0.51510  0.46370  0.78340  1.0000 0.1307498661
H   H96       1.0  0.71370  0.43030  0.44860  1.0000 0.1307498661
H   H97       1.0  0.34450  0.60610  0.99780  1.0000 0.1197123528
H   H98       1.0  0.59670  0.09450  0.23840  1.0000 0.1197123528
H   H99       1.0  0.85610  0.35830  0.76160  1.0000 0.1197123528
H   H100      1.0  0.60830  0.34670  0.00220  1.0000 0.1197123528
H   H101      1.0  0.90550  0.14390  0.50220  1.0000 0.1197123528
H   H102      1.0  0.65330  0.65550  0.26160  1.0000 0.1197123528
H   H103      1.0  0.39390  0.39170  0.73840  1.0000 0.1197123528
H   H104      1.0  0.64170  0.40330  0.49780  1.0000 0.1197123528
H   H105      1.0  0.47740  0.84860  0.20980  1.0000 0.1307498661
H   H106      1.0  0.51760  0.22740  0.12880  1.0000 0.1307498661
H   H107      1.0  0.09860  0.38880  0.87120  1.0000 0.1307498661
H   H108      1.0  0.63880  0.26760  0.79020  1.0000 0.1307498661
H   H109      1.0  0.77260  0.90140  0.29020  1.0000 0.1307498661
H   H110      1.0  0.73240  0.52260  0.37120  1.0000 0.1307498661
H   H111      1.0  0.15140  0.36120  0.62880  1.0000 0.1307498661
H   H112      1.0  0.61120  0.48240  0.70980  1.0000 0.1307498661
H   H113      1.0  0.50070  0.84040  0.25490  1.0000 0.1307498661
H   H114      1.0  0.49580  0.25070  0.16030  1.0000 0.1307498661
H   H115      1.0  0.09040  0.33550  0.83970  1.0000 0.1307498661
H   H116      1.0  0.58550  0.24580  0.74510  1.0000 0.1307498661
H   H117      1.0  0.74930  0.90960  0.24510  1.0000 0.1307498661
H   H118      1.0  0.75420  0.49930  0.33970  1.0000 0.1307498661
H   H119      1.0  0.15960  0.41450  0.66030  1.0000 0.1307498661
H   H120      1.0  0.66450  0.50420  0.75490  1.0000 0.1307498661
H   H121      1.0  0.40900  0.79370  0.27990  1.0000 0.1197123528
H   H122      1.0  0.37910  0.15900  0.11530  1.0000 0.1197123528
H   H123      1.0  0.04370  0.26380  0.88470  1.0000 0.1197123528
H   H124      1.0  0.51380  0.12910  0.72010  1.0000 0.1197123528
H   H125      1.0  0.84100  0.95630  0.22010  1.0000 0.1197123528
H   H126      1.0  0.87090  0.59100  0.38470  1.0000 0.1197123528
H   H127      1.0  0.20630  0.48620  0.61530  1.0000 0.1197123528
H   H128      1.0  0.73620  0.62090  0.77990  1.0000 0.1197123528
H   H129      1.0  0.40240  0.82340  0.24180  1.0000 0.1197123528
H   H130      1.0  0.41060  0.15240  0.07900  1.0000 0.1197123528
H   H131      1.0  0.07340  0.33160  0.92100  1.0000 0.1197123528
H   H132      1.0  0.58160  0.16060  0.75820  1.0000 0.1197123528
H   H133      1.0  0.84760  0.92660  0.25820  1.0000 0.1197123528
H   H134      1.0  0.83940  0.59760  0.42100  1.0000 0.1197123528
H   H135      1.0  0.17660  0.41840  0.57900  1.0000 0.1197123528
H   H136      1.0  0.66840  0.58940  0.74180  1.0000 0.1197123528
H   H137      1.0  0.34110  0.72980  0.23030  1.0000 0.1307498661
H   H138      1.0  0.36080  0.09110  0.11130  1.0000 0.1307498661
H   H139      1.0  0.97980  0.24950  0.88870  1.0000 0.1307498661
H   H140      1.0  0.49950  0.11080  0.76970  1.0000 0.1307498661
H   H141      1.0  0.90890  0.02020  0.26970  1.0000 0.1307498661
H   H142      1.0  0.88920  0.65890  0.38870  1.0000 0.1307498661
H   H143      1.0  0.27020  0.50050  0.61130  1.0000 0.1307498661
H   H144      1.0  0.75050  0.63920  0.73030  1.0000 0.1307498661
H   H145      1.0  0.23940  0.55830  0.23510  1.0000 0.1197123528
H   H146      1.0  0.25430  0.98940  0.18110  1.0000 0.1197123528
H   H147      1.0  0.80830  0.07320  0.81890  1.0000 0.1197123528
H   H148      1.0  0.32320  0.00430  0.76490  1.0000 0.1197123528
H   H149      1.0  0.01060  0.19170  0.26490  1.0000 0.1197123528
H   H150      1.0  0.99570  0.76060  0.31890  1.0000 0.1197123528
H   H151      1.0  0.44170  0.67680  0.68110  1.0000 0.1197123528
H   H152      1.0  0.92680  0.74570  0.73510  1.0000 0.1197123528
H   H153      1.0  0.12970  0.51960  0.23350  1.0000 0.1391393556
H   H154      1.0  0.14620  0.87970  0.11010  1.0000 0.1391393556
H   H155      1.0  0.76960  0.03610  0.88990  1.0000 0.1391393556
H   H156      1.0  0.28610  0.89620  0.76650  1.0000 0.1391393556
H   H157      1.0  0.12030  0.23040  0.26650  1.0000 0.1391393556
H   H158      1.0  0.10380  0.87030  0.38990  1.0000 0.1391393556
H   H159      1.0  0.48040  0.71390  0.61010  1.0000 0.1391393556
H   H160      1.0  0.96390  0.85380  0.73350  1.0000 0.1391393556
H   H161      1.0  0.09420  0.49210  0.10250  1.0000 0.1307498661
H   H162      1.0  0.24170  0.84420  0.10210  1.0000 0.1307498661
H   H163      1.0  0.74210  0.13960  0.89790  1.0000 0.1307498661
H   H164      1.0  0.38960  0.99170  0.89750  1.0000 0.1307498661
H   H165      1.0  0.15580  0.25790  0.39750  1.0000 0.1307498661
H   H166      1.0  0.00830  0.90580  0.39790  1.0000 0.1307498661
H   H167      1.0  0.50790  0.61040  0.60210  1.0000 0.1307498661
H   H168      1.0  0.86040  0.75830  0.60250  1.0000 0.1307498661
H   H169      1.0  0.20000  0.53290  0.10590  1.0000 0.1104069797
H   H170      1.0  0.34410  0.95000  0.16710  1.0000 0.1104069797
H   H171      1.0  0.78290  0.17700  0.83290  1.0000 0.1104069797
H   H172      1.0  0.42700  0.09410  0.89410  1.0000 0.1104069797
H   H173      1.0  0.05000  0.21710  0.39410  1.0000 0.1104069797
H   H174      1.0  0.90590  0.80000  0.33290  1.0000 0.1104069797
H   H175      1.0  0.46710  0.57300  0.66710  1.0000 0.1104069797
H   H176      1.0  0.82300  0.65590  0.60590  1.0000 0.1104069797
H   H177      1.0  0.96970  0.40370  0.12360  1.0000 0.1307498661
H   H178      1.0  0.09610  0.71970  0.06600  1.0000 0.1307498661
H   H179      1.0  0.65370  0.03010  0.93400  1.0000 0.1307498661
H   H180      1.0  0.28010  0.84610  0.87640  1.0000 0.1307498661
H   H181      1.0  0.28030  0.34630  0.37640  1.0000 0.1307498661
H   H182      1.0  0.15390  0.03030  0.43400  1.0000 0.1307498661
H   H183      1.0  0.59630  0.71990  0.56600  1.0000 0.1307498661
H   H184      1.0  0.96990  0.90390  0.62360  1.0000 0.1307498661
H   H185      1.0  0.02420  0.48610  0.16070  1.0000 0.1197123528
H   H186      1.0  0.11350  0.77420  0.03810  1.0000 0.1197123528
H   H187      1.0  0.73610  0.07540  0.96190  1.0000 0.1197123528
H   H188      1.0  0.32540  0.86350  0.83930  1.0000 0.1197123528
H   H189      1.0  0.22580  0.26390  0.33930  1.0000 0.1197123528
H   H190      1.0  0.13650  0.97580  0.46190  1.0000 0.1197123528
H   H191      1.0  0.51390  0.67460  0.53810  1.0000 0.1197123528
H   H192      1.0  0.92460  0.88650  0.66070  1.0000 0.1197123528
H   H193      1.0  0.93570  0.96930  0.44860  1.0000 0.1307498661
H   H194      1.0  0.73710  0.68570  0.46640  1.0000 0.1307498661
H   H195      1.0  0.21930  0.27070  0.53360  1.0000 0.1307498661
H   H196      1.0  0.52070  0.48710  0.55140  1.0000 0.1307498661
H   H197      1.0  0.31430  0.78070  0.05140  1.0000 0.1307498661
H   H198      1.0  0.51290  0.06430  0.03360  1.0000 0.1307498661
H   H199      1.0  0.03070  0.47930  0.96640  1.0000 0.1307498661
H   H200      1.0  0.72930  0.26290  0.94860  1.0000 0.1307498661
H   H201      1.0  0.92320  0.88240  0.43820  1.0000 0.1009288353
H   H202      1.0  0.73500  0.67320  0.54080  1.0000 0.1009288353
H   H203      1.0  0.13240  0.19420  0.45920  1.0000 0.1009288353
H   H204      1.0  0.44420  0.48500  0.56180  1.0000 0.1009288353
H   H205      1.0  0.32680  0.86760  0.06180  1.0000 0.1009288353
H   H206      1.0  0.51500  0.07680  0.95920  1.0000 0.1009288353
H   H207      1.0  0.11760  0.55580  0.04080  1.0000 0.1009288353
H   H208      1.0  0.80580  0.26500  0.93820  1.0000 0.1009288353
H   H209      1.0  0.80470  0.74860  0.38830  1.0000 0.1197123528
H   H210      1.0  0.66640  0.55470  0.55610  1.0000 0.1197123528
H   H211      1.0  0.99860  0.11030  0.44390  1.0000 0.1197123528
H   H212      1.0  0.36030  0.41640  0.61170  1.0000 0.1197123528
H   H213      1.0  0.44530  0.00140  0.11170  1.0000 0.1197123528
H   H214      1.0  0.58360  0.19530  0.94390  1.0000 0.1197123528
H   H215      1.0  0.25140  0.63970  0.05610  1.0000 0.1197123528
H   H216      1.0  0.88970  0.33360  0.88830  1.0000 0.1197123528
H   H217      1.0  0.70220  0.70690  0.34370  1.0000 0.1197123528
H   H218      1.0  0.60850  0.45220  0.49530  1.0000 0.1197123528
H   H219      1.0  0.95690  0.11320  0.50470  1.0000 0.1197123528
H   H220      1.0  0.36320  0.35850  0.65630  1.0000 0.1197123528
H   H221      1.0  0.54780  0.04310  0.15630  1.0000 0.1197123528
H   H222      1.0  0.64150  0.29780  0.00470  1.0000 0.1197123528
H   H223      1.0  0.29310  0.63680  0.99530  1.0000 0.1197123528
H   H224      1.0  0.88680  0.39150  0.84370  1.0000 0.1197123528
H   H225      1.0  0.51400  0.75600  0.28200  1.0000 0.1307498661
H   H226      1.0  0.48200  0.26400  0.25800  1.0000 0.1307498661
H   H227      1.0  0.00600  0.22400  0.74200  1.0000 0.1307498661
H   H228      1.0  0.47400  0.23200  0.71800  1.0000 0.1307498661
H   H229      1.0  0.73600  0.99400  0.21800  1.0000 0.1307498661
H   H230      1.0  0.76800  0.48600  0.24200  1.0000 0.1391393556
H   H231      1.0  0.24400  0.52600  0.75800  1.0000 0.1307498661
H   H232      1.0  0.77600  0.51800  0.78200  1.0000 0.1307498661
H   H233      1.0  0.57040  0.84700  0.30260  1.0000 0.1391393556
H   H234      1.0  0.51780  0.32040  0.22340  1.0000 0.1391393556
H   H235      1.0  0.09700  0.29440  0.77660  1.0000 0.1391393556
H   H236      1.0  0.54440  0.26780  0.69740  1.0000 0.1391393556
H   H237      1.0  0.67960  0.90300  0.19740  1.0000 0.1391393556
H   H238      1.0  0.73220  0.42960  0.27660  1.0000 0.1391393556
H   H239      1.0  0.15300  0.45560  0.72340  1.0000 0.1391393556
H   H240      1.0  0.70560  0.48220  0.80260  1.0000 0.1391393556
H   H241      1.0  0.43790  0.70700  0.33650  1.0000 0.1307498661
H   H242      1.0  0.35140  0.18790  0.23090  1.0000 0.1307498661
H   H243      1.0  0.95700  0.12050  0.76910  1.0000 0.1307498661
H   H244      1.0  0.37050  0.10140  0.66350  1.0000 0.1307498661
H   H245      1.0  0.81210  0.04300  0.16350  1.0000 0.1307498661
H   H246      1.0  0.89860  0.56210  0.26910  1.0000 0.1307498661
H   H247      1.0  0.29300  0.62950  0.73090  1.0000 0.1307498661
H   H248      1.0  0.87950  0.64860  0.83650  1.0000 0.1307498661
H   H249      1.0  0.48710  0.79470  0.35300  1.0000 0.1391393556
H   H250      1.0  0.38410  0.23710  0.19240  1.0000 0.1307498661
H   H251      1.0  0.04470  0.19170  0.80760  1.0000 0.1307498661
H   H252      1.0  0.44170  0.13410  0.64700  1.0000 0.1307498661
H   H253      1.0  0.76290  0.95530  0.14700  1.0000 0.1391393556
H   H254      1.0  0.86590  0.51290  0.30760  1.0000 0.1307498661
H   H255      1.0  0.20530  0.55830  0.69240  1.0000 0.1307498661
H   H256      1.0  0.80830  0.61590  0.85300  1.0000 0.1307498661
H   H257      1.0  0.52110  0.77930  0.37880  1.0000 0.1197123528
H   H258      1.0  0.39230  0.27110  0.24180  1.0000 0.1197123528
H   H259      1.0  0.02930  0.15050  0.75820  1.0000 0.1197123528
H   H260      1.0  0.40050  0.14230  0.62120  1.0000 0.1197123528
H   H261      1.0  0.72890  0.97070  0.12120  1.0000 0.1197123528
H   H262      1.0  0.85770  0.47890  0.25820  1.0000 0.1197123528
H   H263      1.0  0.22070  0.59950  0.74180  1.0000 0.1197123528
H   H264      1.0  0.84950  0.60770  0.87880  1.0000 0.1197123528
H   H265      1.0  0.68690  0.18520  0.15490  1.0000 0.1197123528
H   H266      1.0  0.78200  0.43690  0.00170  1.0000 0.1197123528
H   H267      1.0  0.43520  0.78030  0.99830  1.0000 0.1197123528
H   H268      1.0  0.03030  0.53200  0.84510  1.0000 0.1197123528
H   H269      1.0  0.56310  0.56480  0.34510  1.0000 0.1197123528
H   H270      1.0  0.46800  0.31310  0.49830  1.0000 0.1197123528
H   H271      1.0  0.81480  0.96970  0.50170  1.0000 0.1197123528
H   H272      1.0  0.21970  0.21800  0.65490  1.0000 0.1197123528
H   H273      1.0  0.80290  0.23950  0.16120  1.0000 0.1391393556
H   H274      1.0  0.89170  0.55290  0.06340  1.0000 0.1391393556
H   H275      1.0  0.48950  0.82830  0.93660  1.0000 0.1391393556
H   H276      1.0  0.07830  0.64170  0.83880  1.0000 0.1391393556
H   H277      1.0  0.44710  0.51050  0.33880  1.0000 0.1391393556
H   H278      1.0  0.35830  0.19710  0.43660  1.0000 0.1391393556
H   H279      1.0  0.76050  0.92170  0.56340  1.0000 0.1391393556
H   H280      1.0  0.17170  0.10830  0.66120  1.0000 0.1391393556
H   H281      1.0  0.93900  0.46590  0.19010  1.0000 0.1391393556
H   H282      1.0  0.99890  0.68900  0.97310  1.0000 0.1391393556
H   H283      1.0  0.71590  0.02580  0.02690  1.0000 0.1391393556
H   H284      1.0  0.27580  0.74890  0.80990  1.0000 0.1391393556
H   H285      1.0  0.31100  0.28410  0.30990  1.0000 0.1391393556
H   H286      1.0  0.25110  0.06100  0.52690  1.0000 0.1391393556
H   H287      1.0  0.53410  0.72420  0.47310  1.0000 0.1391393556
H   H288      1.0  0.97420  0.00110  0.69010  1.0000 0.1391393556
H   H289      1.0  0.81910  0.40640  0.18110  1.0000 0.1104069797
H   H290      1.0  0.88800  0.56910  0.91270  1.0000 0.1104069797
H   H291      1.0  0.65640  0.97530  0.08730  1.0000 0.1104069797
H   H292      1.0  0.22530  0.63800  0.81890  1.0000 0.1104069797
H   H293      1.0  0.43090  0.34360  0.31890  1.0000 0.1104069797
H   H294      1.0  0.36200  0.18090  0.58730  1.0000 0.1104069797
H   H295      1.0  0.59360  0.77470  0.41270  1.0000 0.1104069797
H   H296      1.0  0.02470  0.11200  0.68110  1.0000 0.1104069797
H   H297      1.0  0.94610  0.35050  0.18100  1.0000 0.1307498661
H   H298      1.0  0.01510  0.69610  0.09560  1.0000 0.1307498661
H   H299      1.0  0.60050  0.91950  0.90440  1.0000 0.1307498661
H   H300      1.0  0.16950  0.76510  0.81900  1.0000 0.1307498661
H   H301      1.0  0.30390  0.39950  0.31900  1.0000 0.1307498661
H   H302      1.0  0.23490  0.05390  0.40440  1.0000 0.1307498661
H   H303      1.0  0.64950  0.83050  0.59560  1.0000 0.1307498661
H   H304      1.0  0.08050  0.98490  0.68100  1.0000 0.1307498661
H   H305      1.0  0.99760  0.43230  0.21710  1.0000 0.1307498661
H   H306      1.0  0.03050  0.74760  0.06530  1.0000 0.1307498661
H   H307      1.0  0.68230  0.96520  0.93470  1.0000 0.1307498661
H   H308      1.0  0.21520  0.78050  0.78290  1.0000 0.1307498661
H   H309      1.0  0.25240  0.31770  0.28290  1.0000 0.1307498661
H   H310      1.0  0.21950  0.00240  0.43470  1.0000 0.1307498661
H   H311      1.0  0.56770  0.78480  0.56530  1.0000 0.1307498661
H   H312      1.0  0.03480  0.96950  0.71710  1.0000 0.1307498661
C   C1        1.0  0.40827  0.57120  0.33127  1.0000 0.3194968894
C   C2        1.0  0.32700  0.15827  0.33707  1.0000 0.3194968894
C   C3        1.0  0.82120  0.98993  0.66293  1.0000 0.3194968894
C   C4        1.0  0.23993  0.07700  0.66873  1.0000 0.3194968894
C   C5        1.0  0.84173  0.17880  0.16873  1.0000 0.3194968894
C   C6        1.0  0.92300  0.59173  0.16293  1.0000 0.3194968894
C   C7        1.0  0.42880  0.76007  0.83707  1.0000 0.3194968894
C   C8        1.0  0.01007  0.67300  0.83127  1.0000 0.3194968894
C   C9        1.0  0.38835  0.55021  0.37256  1.0000 -0.2432531912
C   C10       1.0  0.26579  0.13835  0.33814  1.0000 -0.2432531912
C   C11       1.0  0.80021  0.92765  0.66186  1.0000 -0.2432531912
C   C12       1.0  0.17765  0.01579  0.62744  1.0000 -0.2432531912
C   C13       1.0  0.86165  0.19979  0.12744  1.0000 -0.2432531912
C   C14       1.0  0.98421  0.61165  0.16186  1.0000 -0.2432531912
C   C15       1.0  0.44979  0.82235  0.83814  1.0000 -0.2432531912
C   C16       1.0  0.07235  0.73421  0.87256  1.0000 -0.2432531912
C   C17       1.0  0.31440  0.49970  0.37870  1.0000 -0.0520120745
C   C18       1.0  0.18570  0.06440  0.31470  1.0000 -0.0520120745
C   C19       1.0  0.74970  0.87100  0.68530  1.0000 -0.0520120745
C   C20       1.0  0.12100  0.93570  0.62130  1.0000 -0.0520120745
C   C21       1.0  0.93560  0.25030  0.12130  1.0000 -0.0520120745
C   C22       1.0  0.06430  0.68560  0.18530  1.0000 -0.0520120745
C   C23       1.0  0.50030  0.87900  0.81470  1.0000 -0.0520120745
C   C24       1.0  0.12900  0.81430  0.87870  1.0000 -0.0520120745
C   C25       1.0  0.24810  0.45970  0.34120  1.0000 -0.1711588551
C   C26       1.0  0.15690  0.99810  0.28840  1.0000 -0.1711588551
C   C27       1.0  0.70970  0.86850  0.71160  1.0000 -0.1711588551
C   C28       1.0  0.11850  0.90690  0.65880  1.0000 -0.1711588551
C   C29       1.0  0.00190  0.29030  0.15880  1.0000 -0.1711588551
C   C30       1.0  0.09310  0.75190  0.21160  1.0000 -0.1711588551
C   C31       1.0  0.54030  0.88150  0.78840  1.0000 -0.1711588551
C   C32       1.0  0.13150  0.84310  0.84120  1.0000 -0.1711588551
C   C33       1.0  0.27053  0.48740  0.30033  1.0000 -0.0782416959
C   C34       1.0  0.22020  0.02053  0.28313  1.0000 -0.0782416959
C   C35       1.0  0.73740  0.93707  0.71687  1.0000 -0.0782416959
C   C36       1.0  0.18707  0.97020  0.69967  1.0000 -0.0782416959
C   C37       1.0  0.97947  0.26260  0.19967  1.0000 -0.0782416959
C   C38       1.0  0.02980  0.72947  0.21687  1.0000 -0.0782416959
C   C39       1.0  0.51260  0.81293  0.78313  1.0000 -0.0782416959
C   C40       1.0  0.06293  0.77980  0.80033  1.0000 -0.0782416959
C   C41       1.0  0.34649  0.53954  0.29503  1.0000 -0.153102766
C   C42       1.0  0.30146  0.09649  0.30695  1.0000 -0.153102766
C   C43       1.0  0.78954  0.99451  0.69305  1.0000 -0.153102766
C   C44       1.0  0.24451  0.05146  0.70497  1.0000 -0.153102766
C   C45       1.0  0.90351  0.21046  0.20497  1.0000 -0.153102766
C   C46       1.0  0.94854  0.65351  0.19305  1.0000 -0.153102766
C   C47       1.0  0.46046  0.75549  0.80695  1.0000 -0.153102766
C   C48       1.0  0.00549  0.69854  0.79503  1.0000 -0.153102766
C   C49       1.0  0.36245  0.56342  0.25187  1.0000 0.432313541
C   C50       1.0  0.36058  0.11245  0.29903  1.0000 0.432313541
C   C51       1.0  0.81342  0.06155  0.70097  1.0000 0.432313541
C   C52       1.0  0.31155  0.11058  0.74813  1.0000 0.432313541
C   C53       1.0  0.88755  0.18658  0.24813  1.0000 0.432313541
C   C54       1.0  0.88942  0.63755  0.20097  1.0000 0.432313541
C   C55       1.0  0.43658  0.68845  0.79903  1.0000 0.432313541
C   C56       1.0  0.93845  0.63942  0.75187  1.0000 0.432313541
C   C57       1.0  0.51266  0.67788  0.19474  1.0000 0.4470083385
C   C58       1.0  0.56792  0.26266  0.33478  1.0000 0.4470083385
C   C59       1.0  0.92788  0.23314  0.66522  1.0000 0.4470083385
C   C60       1.0  0.48314  0.31792  0.80526  1.0000 0.4470083385
C   C61       1.0  0.73734  0.07212  0.30526  1.0000 0.4470083385
C   C62       1.0  0.68208  0.48734  0.16522  1.0000 0.4470083385
C   C63       1.0  0.32212  0.51686  0.83478  1.0000 0.4470083385
C   C64       1.0  0.76686  0.43208  0.69474  1.0000 0.4470083385
C   C65       1.0  0.53397  0.70630  0.15207  1.0000 -0.2521220431
C   C66       1.0  0.63190  0.28397  0.32767  1.0000 -0.2521220431
C   C67       1.0  0.95630  0.30423  0.67233  1.0000 -0.2521220431
C   C68       1.0  0.55423  0.38190  0.84793  1.0000 -0.2521220431
C   C69       1.0  0.71603  0.04370  0.34793  1.0000 -0.2521220431
C   C70       1.0  0.61810  0.46603  0.17233  1.0000 -0.2521220431
C   C71       1.0  0.29370  0.44577  0.82767  1.0000 -0.2521220431
C   C72       1.0  0.69577  0.36810  0.65207  1.0000 -0.2521220431
C   C73       1.0  0.60650  0.74312  0.14242  1.0000 -0.3286005034
C   C74       1.0  0.71408  0.35650  0.36338  1.0000 -0.3286005034
C   C75       1.0  0.99312  0.35070  0.63662  1.0000 -0.3286005034
C   C76       1.0  0.60070  0.46408  0.85758  1.0000 -0.3286005034
C   C77       1.0  0.64350  0.00688  0.35758  1.0000 -0.3286005034
C   C78       1.0  0.53592  0.39350  0.13662  1.0000 -0.3286005034
C   C79       1.0  0.25688  0.39930  0.86338  1.0000 -0.3286005034
C   C80       1.0  0.64930  0.28592  0.64242  1.0000 -0.3286005034
C   C81       1.0  0.28484  0.50640  0.07644  1.0000 0.3088265739
C   C82       1.0  0.45840  0.03484  0.27844  1.0000 0.3088265739
C   C83       1.0  0.75640  0.17996  0.72156  1.0000 0.3088265739
C   C84       1.0  0.42996  0.20840  0.92356  1.0000 0.3088265739
C   C85       1.0  0.96516  0.24360  0.42356  1.0000 0.3088265739
C   C86       1.0  0.79160  0.71516  0.22156  1.0000 0.3088265739
C   C87       1.0  0.49360  0.57004  0.77844  1.0000 0.3088265739
C   C88       1.0  0.82004  0.54160  0.57644  1.0000 0.3088265739
C   C89       1.0  0.23826  0.43326  0.04552  1.0000 -0.210080095
C   C90       1.0  0.44274  0.98826  0.30500  1.0000 -0.210080095
C   C91       1.0  0.68326  0.13774  0.69500  1.0000 -0.210080095
C   C92       1.0  0.38774  0.19274  0.95448  1.0000 -0.210080095
C   C93       1.0  0.01174  0.31674  0.45448  1.0000 -0.210080095
C   C94       1.0  0.80726  0.76174  0.19500  1.0000 -0.210080095
C   C95       1.0  0.56674  0.61226  0.80500  1.0000 -0.210080095
C   C96       1.0  0.86226  0.55726  0.54552  1.0000 -0.210080095
C   C97       1.0  0.23311  0.42665  0.99916  1.0000 -0.0599489177
C   C98       1.0  0.48395  0.98311  0.30646  1.0000 -0.0599489177
C   C99       1.0  0.67665  0.17749  0.69354  1.0000 -0.0599489177
C   C100      1.0  0.42749  0.23395  0.00084  1.0000 -0.0599489177
C   C101      1.0  0.01689  0.32335  0.50084  1.0000 -0.0599489177
C   C102      1.0  0.76605  0.76689  0.19354  1.0000 -0.0599489177
C   C103      1.0  0.57335  0.57251  0.80646  1.0000 -0.0599489177
C   C104      1.0  0.82251  0.51605  0.49916  1.0000 -0.0599489177
C   C105      1.0  0.27249  0.49055  0.98104  1.0000 -0.1327011597
C   C106      1.0  0.54145  0.02249  0.28194  1.0000 -0.1327011597
C   C107      1.0  0.74055  0.25951  0.71806  1.0000 -0.1327011597
C   C108      1.0  0.50951  0.29145  0.01896  1.0000 -0.1327011597
C   C109      1.0  0.97751  0.25945  0.51896  1.0000 -0.1327011597
C   C110      1.0  0.70855  0.72751  0.21806  1.0000 -0.1327011597
C   C111      1.0  0.50945  0.49049  0.78194  1.0000 -0.1327011597
C   C112      1.0  0.74049  0.45855  0.48104  1.0000 -0.1327011597
C   C113      1.0  0.31782  0.56230  0.01032  1.0000 -0.0782416959
C   C114      1.0  0.55750  0.06782  0.25552  1.0000 -0.0782416959
C   C115      1.0  0.81230  0.30198  0.74448  1.0000 -0.0782416959
C   C116      1.0  0.55198  0.30750  0.98968  1.0000 -0.0782416959
C   C117      1.0  0.93218  0.18770  0.48968  1.0000 -0.0782416959
C   C118      1.0  0.69250  0.68218  0.24448  1.0000 -0.0782416959
C   C119      1.0  0.43770  0.44802  0.75552  1.0000 -0.0782416959
C   C120      1.0  0.69802  0.44250  0.51032  1.0000 -0.0782416959
C   C121      1.0  0.32574  0.57266  0.05820  1.0000 -0.1578869719
C   C122      1.0  0.51754  0.07574  0.25308  1.0000 -0.1578869719
C   C123      1.0  0.82266  0.26446  0.74692  1.0000 -0.1578869719
C   C124      1.0  0.51446  0.26754  0.94180  1.0000 -0.1578869719
C   C125      1.0  0.92426  0.17734  0.44180  1.0000 -0.1578869719
C   C126      1.0  0.73246  0.67426  0.24692  1.0000 -0.1578869719
C   C127      1.0  0.42734  0.48554  0.75308  1.0000 -0.1578869719
C   C128      1.0  0.73554  0.48246  0.55820  1.0000 -0.1578869719
C   C129      1.0  0.37352  0.65089  0.08681  1.0000 0.4372047313
C   C130      1.0  0.53671  0.12352  0.22263  1.0000 0.432313541
C   C131      1.0  0.90089  0.31408  0.77737  1.0000 0.432313541
C   C132      1.0  0.56408  0.28671  0.91319  1.0000 0.432313541
C   C133      1.0  0.87648  0.09911  0.41319  1.0000 0.432313541
C   C134      1.0  0.71329  0.62648  0.27737  1.0000 0.432313541
C   C135      1.0  0.34911  0.43592  0.72263  1.0000 0.432313541
C   C136      1.0  0.68592  0.46329  0.58681  1.0000 0.432313541
C   C137      1.0  0.41930  0.73878  0.19828  1.0000 0.4557581402
C   C138      1.0  0.47102  0.16930  0.18052  1.0000 0.4557581402
C   C139      1.0  0.98878  0.29050  0.81948  1.0000 0.4557581402
C   C140      1.0  0.54050  0.22102  0.80172  1.0000 0.4557581402
C   C141      1.0  0.83070  0.01122  0.30172  1.0000 0.4557581402
C   C142      1.0  0.77898  0.58070  0.31948  1.0000 0.4557581402
C   C143      1.0  0.26122  0.45950  0.68052  1.0000 0.4557581402
C   C144      1.0  0.70950  0.52898  0.69828  1.0000 0.4557581402
C   C145      1.0  0.45436  0.81008  0.22844  1.0000 -0.2339981564
C   C146      1.0  0.47592  0.20436  0.14428  1.0000 -0.2339981564
C   C147      1.0  0.06008  0.33164  0.85572  1.0000 -0.2339981564
C   C148      1.0  0.58164  0.22592  0.77156  1.0000 -0.2339981564
C   C149      1.0  0.79564  0.93992  0.27156  1.0000 -0.2339981564
C   C150      1.0  0.77408  0.54564  0.35572  1.0000 -0.2339981564
C   C151      1.0  0.18992  0.41836  0.64428  1.0000 -0.2339981564
C   C152      1.0  0.66836  0.52408  0.72844  1.0000 -0.2339981564
C   C153      1.0  0.39740  0.78750  0.24650  1.0000 -0.3209147771
C   C154      1.0  0.40090  0.14740  0.10990  1.0000 -0.3286005034
C   C155      1.0  0.03750  0.29100  0.89010  1.0000 -0.3209147771
C   C156      1.0  0.54100  0.15090  0.75350  1.0000 -0.3209147771
C   C157      1.0  0.85260  0.96250  0.25350  1.0000 -0.3286005034
C   C158      1.0  0.84910  0.60260  0.39010  1.0000 -0.3286005034
C   C159      1.0  0.21250  0.45900  0.60990  1.0000 -0.3209147771
C   C160      1.0  0.70900  0.59910  0.74650  1.0000 -0.3209147771
C   C161      1.0  0.20390  0.53660  0.20610  1.0000 0.0230777523
C   C162      1.0  0.24780  0.95390  0.16730  1.0000 0.0230777523
C   C163      1.0  0.78660  0.08050  0.83270  1.0000 0.0230777523
C   C164      1.0  0.33050  0.99780  0.79390  1.0000 0.0230777523
C   C165      1.0  0.04610  0.21340  0.29390  1.0000 0.0230777523
C   C166      1.0  0.00220  0.79610  0.33270  1.0000 0.0230777523
C   C167      1.0  0.46340  0.66950  0.66730  1.0000 0.0230777523
C   C168      1.0  0.91950  0.75220  0.70610  1.0000 0.0230777523
C   C169      1.0  0.13730  0.51150  0.20540  1.0000 -0.2521220431
C   C170      1.0  0.18190  0.88730  0.12580  1.0000 -0.2563331828
C   C171      1.0  0.76150  0.05610  0.87420  1.0000 -0.2521220431
C   C172      1.0  0.30610  0.93190  0.79460  1.0000 -0.2521220431
C   C173      1.0  0.11270  0.23850  0.29460  1.0000 -0.2521220431
C   C174      1.0  0.06810  0.86270  0.37420  1.0000 -0.2521220431
C   C175      1.0  0.48850  0.69390  0.62580  1.0000 -0.2521220431
C   C176      1.0  0.94390  0.81810  0.70540  1.0000 -0.2521220431
C   C177      1.0  0.08291  0.47380  0.16051  1.0000 0.1391393556
C   C178      1.0  0.17240  0.83291  0.10911  1.0000 0.1391393556
C   C179      1.0  0.72380  0.06329  0.89089  1.0000 0.1391393556
C   C180      1.0  0.31329  0.92240  0.83949  1.0000 0.1391393556
C   C181      1.0  0.16709  0.27620  0.33949  1.0000 0.1391393556
C   C182      1.0  0.07760  0.91709  0.39089  1.0000 0.1391393556
C   C183      1.0  0.52620  0.68671  0.60911  1.0000 0.1391393556
C   C184      1.0  0.93671  0.82760  0.66051  1.0000 0.1391393556
C   C185      1.0  0.11459  0.49390  0.12989  1.0000 -0.1981382295
C   C186      1.0  0.23470  0.86459  0.12069  1.0000 -0.1981382295
C   C187      1.0  0.74390  0.11401  0.87931  1.0000 -0.1981382295
C   C188      1.0  0.36401  0.98470  0.87011  1.0000 -0.1981382295
C   C189      1.0  0.13541  0.25610  0.37011  1.0000 -0.1981382295
C   C190      1.0  0.01530  0.88541  0.37931  1.0000 -0.1981382295
C   C191      1.0  0.50610  0.63599  0.62069  1.0000 -0.1981382295
C   C192      1.0  0.88599  0.76530  0.62989  1.0000 -0.1981382295
C   C193      1.0  0.18066  0.52020  0.13286  1.0000 0.0902273438
C   C194      1.0  0.29780  0.93066  0.16046  1.0000 0.0902273438
C   C195      1.0  0.77020  0.13734  0.83954  1.0000 0.0902273438
C   C196      1.0  0.38734  0.04780  0.86714  1.0000 0.0902273438
C   C197      1.0  0.06934  0.22980  0.36714  1.0000 0.0902273438
C   C198      1.0  0.95220  0.81934  0.33954  1.0000 0.0902273438
C   C199      1.0  0.47980  0.61266  0.66046  1.0000 0.0902273438
C   C200      1.0  0.86266  0.70220  0.63286  1.0000 0.0902273438
C   C201      1.0  0.00610  0.43920  0.15590  1.0000 -0.210080095
C   C202      1.0  0.10020  0.75610  0.06690  1.0000 -0.210080095
C   C203      1.0  0.68920  0.03330  0.93310  1.0000 -0.210080095
C   C204      1.0  0.28330  0.85020  0.84410  1.0000 -0.210080095
C   C205      1.0  0.24390  0.31080  0.34410  1.0000 -0.210080095
C   C206      1.0  0.14980  0.99390  0.43310  1.0000 -0.210080095
C   C207      1.0  0.56080  0.71670  0.56690  1.0000 -0.210080095
C   C208      1.0  0.96670  0.89980  0.65590  1.0000 -0.210080095
C   C209      1.0  0.82715  0.89308  0.40183  1.0000 0.3027609818
C   C210      1.0  0.67532  0.57715  0.43407  1.0000 0.3027609818
C   C211      1.0  0.14308  0.24125  0.56593  1.0000 0.3027609818
C   C212      1.0  0.49125  0.42532  0.59817  1.0000 0.3027609818
C   C213      1.0  0.42285  0.85692  0.09817  1.0000 0.3027609818
C   C214      1.0  0.57468  0.17285  0.06593  1.0000 0.3027609818
C   C215      1.0  0.10692  0.50875  0.93407  1.0000 0.3027609818
C   C216      1.0  0.75875  0.32468  0.90183  1.0000 0.3027609818
C   C217      1.0  0.88758  0.91590  0.42688  1.0000 -0.210080095
C   C218      1.0  0.71070  0.63758  0.47168  1.0000 -0.210080095
C   C219      1.0  0.16590  0.23902  0.52832  1.0000 -0.210080095
C   C220      1.0  0.48902  0.46070  0.57312  1.0000 -0.210080095
C   C221      1.0  0.36242  0.83410  0.07312  1.0000 -0.210080095
C   C222      1.0  0.53930  0.11242  0.02832  1.0000 -0.210080095
C   C223      1.0  0.08410  0.51098  0.97168  1.0000 -0.210080095
C   C224      1.0  0.76098  0.28930  0.92688  1.0000 -0.210080095
C   C225      1.0  0.87989  0.86389  0.42118  1.0000 -0.0782416959
C   C226      1.0  0.70871  0.62989  0.51600  1.0000 -0.0782416959
C   C227      1.0  0.11389  0.19271  0.48400  1.0000 -0.0782416959
C   C228      1.0  0.44271  0.45871  0.57882  1.0000 -0.0782416959
C   C229      1.0  0.37011  0.88611  0.07882  1.0000 -0.0782416959
C   C230      1.0  0.54129  0.12011  0.98400  1.0000 -0.0782416959
C   C231      1.0  0.13611  0.55729  0.01600  1.0000 -0.0782416959
C   C232      1.0  0.80729  0.29129  0.92118  1.0000 -0.0782416959
C   C233      1.0  0.81048  0.78515  0.39123  1.0000 -0.1407402374
C   C234      1.0  0.66925  0.56048  0.52533  1.0000 -0.1407402374
C   C235      1.0  0.03515  0.14392  0.47467  1.0000 -0.1407402374
C   C236      1.0  0.39392  0.41925  0.60877  1.0000 -0.1407402374
C   C237      1.0  0.43952  0.96485  0.10877  1.0000 -0.1407402374
C   C238      1.0  0.58075  0.18952  0.97467  1.0000 -0.1407402374
C   C239      1.0  0.21485  0.60608  0.02533  1.0000 -0.1407402374
C   C240      1.0  0.85608  0.33075  0.89123  1.0000 -0.1407402374
C   C241      1.0  0.74938  0.76043  0.36541  1.0000 -0.0782416959
C   C242      1.0  0.63397  0.49938  0.48895  1.0000 -0.0782416959
C   C243      1.0  0.01043  0.14502  0.51105  1.0000 -0.0782416959
C   C244      1.0  0.39502  0.38397  0.63459  1.0000 -0.0782416959
C   C245      1.0  0.50062  0.98957  0.13459  1.0000 -0.0782416959
C   C246      1.0  0.61603  0.25062  0.01105  1.0000 -0.0782416959
C   C247      1.0  0.23957  0.60498  0.98895  1.0000 -0.0782416959
C   C248      1.0  0.85498  0.36603  0.86541  1.0000 -0.0782416959
C   C249      1.0  0.75510  0.81183  0.37033  1.0000 -0.1407402374
C   C250      1.0  0.63477  0.50510  0.44327  1.0000 -0.1407402374
C   C251      1.0  0.06183  0.19150  0.55673  1.0000 -0.1407402374
C   C252      1.0  0.44150  0.38477  0.62967  1.0000 -0.1407402374
C   C253      1.0  0.49490  0.93817  0.12967  1.0000 -0.1407402374
C   C254      1.0  0.61523  0.24490  0.05673  1.0000 -0.1407402374
C   C255      1.0  0.18817  0.55850  0.94327  1.0000 -0.1407402374
C   C256      1.0  0.80850  0.36523  0.87033  1.0000 -0.1407402374
C   C257      1.0  0.68616  0.77997  0.34233  1.0000 0.4372047313
C   C258      1.0  0.59383  0.43616  0.40619  1.0000 0.4372047313
C   C259      1.0  0.02997  0.18764  0.59381  1.0000 0.4372047313
C   C260      1.0  0.43764  0.34383  0.65767  1.0000 0.4372047313
C   C261      1.0  0.56384  0.97003  0.15767  1.0000 0.4372047313
C   C262      1.0  0.65617  0.31384  0.09381  1.0000 0.4372047313
C   C263      1.0  0.22003  0.56236  0.90619  1.0000 0.4372047313
C   C264      1.0  0.81236  0.40617  0.84233  1.0000 0.4372047313
C   C265      1.0  0.61847  0.83082  0.33449  1.0000 0.4470083385
C   C266      1.0  0.53398  0.36847  0.28765  1.0000 0.4470083385
C   C267      1.0  0.08082  0.24633  0.71235  1.0000 0.4470083385
C   C268      1.0  0.49633  0.28398  0.66551  1.0000 0.4470083385
C   C269      1.0  0.63153  0.91918  0.16551  1.0000 0.4470083385
C   C270      1.0  0.71602  0.38153  0.21235  1.0000 0.4470083385
C   C271      1.0  0.16918  0.50367  0.78765  1.0000 0.4470083385
C   C272      1.0  0.75367  0.46602  0.83449  1.0000 0.4470083385
C   C273      1.0  0.54883  0.80128  0.31091  1.0000 -0.2908942283
C   C274      1.0  0.48792  0.29883  0.24755  1.0000 -0.2908942283
C   C275      1.0  0.05128  0.24037  0.75245  1.0000 -0.2908942283
C   C276      1.0  0.49037  0.23792  0.68909  1.0000 -0.2908942283
C   C277      1.0  0.70117  0.94872  0.18909  1.0000 -0.2908942283
C   C278      1.0  0.76208  0.45117  0.25245  1.0000 -0.2908942283
C   C279      1.0  0.19872  0.50963  0.74755  1.0000 -0.2908942283
C   C280      1.0  0.75963  0.51208  0.81091  1.0000 -0.2908942283
C   C281      1.0  0.49290  0.76690  0.34880  1.0000 -0.3501809699
C   C282      1.0  0.39410  0.24290  0.22600  1.0000 -0.3501809699
C   C283      1.0  0.01690  0.16810  0.77400  1.0000 -0.3501809699
C   C284      1.0  0.41810  0.14410  0.65120  1.0000 -0.3501809699
C   C285      1.0  0.75710  0.98310  0.15120  1.0000 -0.3501809699
C   C286      1.0  0.85590  0.50710  0.27400  1.0000 -0.3501809699
C   C287      1.0  0.23310  0.58190  0.72600  1.0000 -0.3501809699
C   C288      1.0  0.83190  0.60590  0.84880  1.0000 -0.3501809699
C   C289      1.0  0.73928  0.24366  0.16234  1.0000 0.1009288353
C   C290      1.0  0.82694  0.48928  0.99562  1.0000 0.1009288353
C   C291      1.0  0.49366  0.83132  0.00438  1.0000 0.1009288353
C   C292      1.0  0.08132  0.57694  0.83766  1.0000 0.1009288353
C   C293      1.0  0.51072  0.50634  0.33766  1.0000 0.1009288353
C   C294      1.0  0.42306  0.26072  0.50438  1.0000 0.1009288353
C   C295      1.0  0.75634  0.91868  0.49562  1.0000 0.1009288353
C   C296      1.0  0.16868  0.17306  0.66234  1.0000 0.1009288353
C   C297      1.0  0.80794  0.27536  0.16630  1.0000 -0.1981382295
C   C298      1.0  0.89164  0.55794  0.03258  1.0000 -0.1981382295
C   C299      1.0  0.52536  0.85906  0.96742  1.0000 -0.1981382295
C   C300      1.0  0.10906  0.64164  0.83370  1.0000 -0.1981382295
C   C301      1.0  0.44206  0.47464  0.33370  1.0000 -0.1981382295
C   C302      1.0  0.35836  0.19206  0.46742  1.0000 -0.1981382295
C   C303      1.0  0.72464  0.89094  0.53258  1.0000 -0.1981382295
C   C304      1.0  0.14094  0.10836  0.66630  1.0000 -0.1981382295
C   C305      1.0  0.88419  0.35919  0.17758  1.0000 0.1627656862
C   C306      1.0  0.95661  0.63419  0.02500  1.0000 0.1627656862
C   C307      1.0  0.60919  0.93161  0.97500  1.0000 0.1627656862
C   C308      1.0  0.18161  0.70661  0.82242  1.0000 0.1627656862
C   C309      1.0  0.36581  0.39081  0.32242  1.0000 0.1627656862
C   C310      1.0  0.29339  0.11581  0.47500  1.0000 0.1627656862
C   C311      1.0  0.64081  0.81839  0.52500  1.0000 0.1627656862
C   C312      1.0  0.06839  0.04339  0.67758  1.0000 0.1627656862
C   C313      1.0  0.88722  0.40743  0.18285  1.0000 -0.1981382295
C   C314      1.0  0.95437  0.63722  0.97979  1.0000 -0.1981382295
C   C315      1.0  0.65743  0.97458  0.02021  1.0000 -0.1981382295
C   C316      1.0  0.22458  0.70437  0.81715  1.0000 -0.1981382295
C   C317      1.0  0.36278  0.34257  0.31715  1.0000 -0.1981382295
C   C318      1.0  0.29563  0.11278  0.52021  1.0000 -0.1981382295
C   C319      1.0  0.59257  0.77542  0.47979  1.0000 -0.1981382295
C   C320      1.0  0.02542  0.04563  0.68285  1.0000 -0.1981382295
C   C321      1.0  0.81574  0.37184  0.17778  1.0000 0.076805827
C   C322      1.0  0.88796  0.56574  0.94390  1.0000 0.076805827
C   C323      1.0  0.62184  0.94406  0.05610  1.0000 0.076805827
C   C324      1.0  0.19406  0.63796  0.82222  1.0000 0.076805827
C   C325      1.0  0.43426  0.37816  0.32222  1.0000 0.076805827
C   C326      1.0  0.36204  0.18426  0.55610  1.0000 0.076805827
C   C327      1.0  0.62816  0.80594  0.44390  1.0000 0.076805827
C   C328      1.0  0.05594  0.11204  0.67778  1.0000 0.076805827
C   C329      1.0  0.96230  0.39600  0.18470  1.0000 -0.2155565687
C   C330      1.0  0.02760  0.71230  0.06630  1.0000 -0.2155565687
C   C331      1.0  0.64600  0.96130  0.93370  1.0000 -0.2155565687
C   C332      1.0  0.21130  0.77760  0.81530  1.0000 -0.2155565687
C   C333      1.0  0.28770  0.35400  0.31530  1.0000 -0.2155565687
C   C334      1.0  0.22240  0.03770  0.43370  1.0000 -0.2155565687
C   C335      1.0  0.60400  0.78870  0.56630  1.0000 -0.2155565687
C   C336      1.0  0.03870  0.97240  0.68470  1.0000 -0.2155565687
N   N1        1.0  0.43414  0.61298  0.24420  1.0000 -0.3501809699
N   N2        1.0  0.43994  0.18414  0.32116  1.0000 -0.3501809699
N   N3        1.0  0.86298  0.11878  0.67884  1.0000 -0.3501809699
N   N4        1.0  0.36878  0.18994  0.75580  1.0000 -0.3501809699
N   N5        1.0  0.81586  0.13702  0.25580  1.0000 -0.3501809699
N   N6        1.0  0.81006  0.56586  0.17884  1.0000 -0.3501809699
N   N7        1.0  0.38702  0.63122  0.82116  1.0000 -0.3501809699
N   N8        1.0  0.88122  0.56006  0.74420  1.0000 -0.3501809699
N   N9        1.0  0.44259  0.63281  0.20092  1.0000 -0.3209147771
N   N10       1.0  0.49167  0.19259  0.30978  1.0000 -0.3209147771
N   N11       1.0  0.88281  0.18189  0.69022  1.0000 -0.3209147771
N   N12       1.0  0.43189  0.24167  0.79908  1.0000 -0.3209147771
N   N13       1.0  0.80741  0.11719  0.29908  1.0000 -0.3209147771
N   N14       1.0  0.75833  0.55741  0.19022  1.0000 -0.3209147771
N   N15       1.0  0.36719  0.56811  0.80978  1.0000 -0.3209147771
N   N16       1.0  0.81811  0.50833  0.70092  1.0000 -0.3209147771
N   N17       1.0  0.37621  0.65948  0.13143  1.0000 -0.3501809699
N   N18       1.0  0.49478  0.12621  0.21673  1.0000 -0.3501809699
N   N19       1.0  0.90948  0.27805  0.78327  1.0000 -0.3501809699
N   N20       1.0  0.52805  0.24478  0.86857  1.0000 -0.3501809699
N   N21       1.0  0.87379  0.09052  0.36857  1.0000 -0.3501809699
N   N22       1.0  0.75522  0.62379  0.28327  1.0000 -0.3501809699
N   N23       1.0  0.34052  0.47195  0.71673  1.0000 -0.3501809699
N   N24       1.0  0.72195  0.50522  0.63143  1.0000 -0.3501809699
N   N25       1.0  0.41651  0.73318  0.15449  1.0000 -0.3209147771
N   N26       1.0  0.51202  0.16651  0.18333  1.0000 -0.3209147771
N   N27       1.0  0.98318  0.32869  0.81667  1.0000 -0.3209147771
N   N28       1.0  0.57869  0.26202  0.84551  1.0000 -0.3209147771
N   N29       1.0  0.83349  0.01682  0.34551  1.0000 -0.3209147771
N   N30       1.0  0.73798  0.58349  0.31667  1.0000 -0.3209147771
N   N31       1.0  0.26682  0.42131  0.68333  1.0000 -0.3209147771
N   N32       1.0  0.67131  0.48798  0.65449  1.0000 -0.3209147771
N   N33       1.0  0.21650  0.52909  0.16399  1.0000 -0.210080095
N   N34       1.0  0.30251  0.96650  0.18741  1.0000 -0.210080095
N   N35       1.0  0.77909  0.11510  0.81259  1.0000 -0.210080095
N   N36       1.0  0.36510  0.05251  0.83601  1.0000 -0.210080095
N   N37       1.0  0.03350  0.22091  0.33601  1.0000 -0.210080095
N   N38       1.0  0.94749  0.78350  0.31259  1.0000 -0.210080095
N   N39       1.0  0.47091  0.63490  0.68741  1.0000 -0.210080095
N   N40       1.0  0.88490  0.69749  0.66399  1.0000 -0.210080095
N   N41       1.0  0.68725  0.82484  0.34963  1.0000 -0.3501809699
N   N42       1.0  0.58762  0.43725  0.36241  1.0000 -0.3435597077
N   N43       1.0  0.07484  0.22521  0.63759  1.0000 -0.3435597077
N   N44       1.0  0.47521  0.33762  0.65037  1.0000 -0.3435597077
N   N45       1.0  0.56275  0.92516  0.15037  1.0000 -0.3501809699
N   N46       1.0  0.66238  0.31275  0.13759  1.0000 -0.3435597077
N   N47       1.0  0.17516  0.52479  0.86241  1.0000 -0.3435597077
N   N48       1.0  0.77479  0.41238  0.84963  1.0000 -0.3435597077
N   N49       1.0  0.61594  0.78608  0.32202  1.0000 -0.3286005034
N   N50       1.0  0.54392  0.36594  0.32986  1.0000 -0.3286005034
N   N51       1.0  0.03608  0.21406  0.67014  1.0000 -0.3286005034
N   N52       1.0  0.46406  0.29392  0.67798  1.0000 -0.3286005034
N   N53       1.0  0.63406  0.96392  0.17798  1.0000 -0.3286005034
N   N54       1.0  0.70608  0.38406  0.17014  1.0000 -0.3286005034
N   N55       1.0  0.21392  0.53594  0.82986  1.0000 -0.3286005034
N   N56       1.0  0.78594  0.45608  0.82202  1.0000 -0.3286005034
N   N57       1.0  0.74134  0.28958  0.16832  1.0000 -0.210080095
N   N58       1.0  0.82302  0.49134  0.95176  1.0000 -0.210080095
N   N59       1.0  0.53958  0.87126  0.04824  1.0000 -0.210080095
N   N60       1.0  0.12126  0.57302  0.83168  1.0000 -0.210080095
N   N61       1.0  0.50866  0.46042  0.33168  1.0000 -0.210080095
N   N62       1.0  0.42698  0.25866  0.54824  1.0000 -0.210080095
N   N63       1.0  0.71042  0.87874  0.45176  1.0000 -0.210080095
N   N64       1.0  0.12874  0.17698  0.66832  1.0000 -0.210080095
O   O1        1.0  0.47684  0.61295  0.32739  1.0000 -0.4693842486
O   O2        1.0  0.39945  0.22684  0.36389  1.0000 -0.4693842486
O   O3        1.0  0.86295  0.03556  0.63611  1.0000 -0.4693842486
O   O4        1.0  0.28556  0.14945  0.67261  1.0000 -0.4693842486
O   O5        1.0  0.77316  0.13705  0.17261  1.0000 -0.4693842486
O   O6        1.0  0.85055  0.52316  0.13611  1.0000 -0.4693842486
O   O7        1.0  0.38705  0.71444  0.86389  1.0000 -0.4693842486
O   O8        1.0  0.96444  0.60055  0.82739  1.0000 -0.4693842486
O   O9        1.0  0.30483  0.53380  0.22097  1.0000 -0.4693842486
O   O10       1.0  0.33386  0.05483  0.27103  1.0000 -0.4693842486
O   O11       1.0  0.78380  0.06283  0.72897  1.0000 -0.4693842486
O   O12       1.0  0.31283  0.08386  0.77903  1.0000 -0.4693842486
O   O13       1.0  0.94517  0.21620  0.27903  1.0000 -0.4693842486
O   O14       1.0  0.91614  0.69517  0.22897  1.0000 -0.4693842486
O   O15       1.0  0.46620  0.68717  0.77103  1.0000 -0.4693842486
O   O16       1.0  0.93717  0.66614  0.72097  1.0000 -0.4693842486
O   O17       1.0  0.56517  0.69924  0.22531  1.0000 -0.5005332858
O   O18       1.0  0.58986  0.31517  0.36593  1.0000 -0.5005332858
O   O19       1.0  0.94924  0.22393  0.63407  1.0000 -0.5005332858
O   O20       1.0  0.47393  0.33986  0.77469  1.0000 -0.5005332858
O   O21       1.0  0.68483  0.05076  0.27469  1.0000 -0.5005332858
O   O22       1.0  0.66014  0.43483  0.13407  1.0000 -0.5005332858
O   O23       1.0  0.30076  0.52607  0.86593  1.0000 -0.5005332858
O   O24       1.0  0.77607  0.41014  0.72531  1.0000 -0.5005332858
O   O25       1.0  0.28759  0.50870  0.12107  1.0000 -0.4693842486
O   O26       1.0  0.41652  0.03759  0.27889  1.0000 -0.4693842486
O   O27       1.0  0.75870  0.13763  0.72111  1.0000 -0.4693842486
O   O28       1.0  0.38763  0.16652  0.87893  1.0000 -0.4693842486
O   O29       1.0  0.96241  0.24130  0.37893  1.0000 -0.4693842486
O   O30       1.0  0.83348  0.71241  0.22111  1.0000 -0.4693842486
O   O31       1.0  0.49130  0.61237  0.77889  1.0000 -0.4693842486
O   O32       1.0  0.86237  0.58348  0.62107  1.0000 -0.4693842486
O   O33       1.0  0.40949  0.70759  0.06776  1.0000 -0.4558337634
O   O34       1.0  0.59173  0.15949  0.20190  1.0000 -0.4534958705
O   O35       1.0  0.95759  0.38983  0.79810  1.0000 -0.4534958705
O   O36       1.0  0.63983  0.34173  0.93224  1.0000 -0.4558337634
O   O37       1.0  0.84051  0.04241  0.43224  1.0000 -0.4558337634
O   O38       1.0  0.65827  0.59051  0.29810  1.0000 -0.4534958705
O   O39       1.0  0.29241  0.36017  0.70190  1.0000 -0.4534958705
O   O40       1.0  0.61017  0.40827  0.56776  1.0000 -0.4534958705
O   O41       1.0  0.39020  0.68337  0.21683  1.0000 -0.4795572965
O   O42       1.0  0.42337  0.14020  0.20683  1.0000 -0.4795572965
O   O43       1.0  0.93337  0.21654  0.79317  1.0000 -0.4795572965
O   O44       1.0  0.46654  0.17337  0.78317  1.0000 -0.4795572965
O   O45       1.0  0.85980  0.06663  0.28317  1.0000 -0.4795572965
O   O46       1.0  0.82663  0.60980  0.29317  1.0000 -0.4795572965
O   O47       1.0  0.31663  0.53346  0.70683  1.0000 -0.4795572965
O   O48       1.0  0.78346  0.57663  0.71683  1.0000 -0.4795572965
O   O49       1.0  0.84045  0.94825  0.40956  1.0000 -0.4795572965
O   O50       1.0  0.68089  0.59045  0.39220  1.0000 -0.4795572965
O   O51       1.0  0.19825  0.28869  0.60780  1.0000 -0.4795572965
O   O52       1.0  0.53869  0.43089  0.59044  1.0000 -0.4795572965
O   O53       1.0  0.40955  0.80175  0.09044  1.0000 -0.4795572965
O   O54       1.0  0.56911  0.15955  0.10780  1.0000 -0.4795572965
O   O55       1.0  0.05175  0.46131  0.89220  1.0000 -0.4795572965
O   O56       1.0  0.71131  0.31911  0.90956  1.0000 -0.4795572965
O   O57       1.0  0.62629  0.70856  0.31279  1.0000 -0.4795572965
O   O58       1.0  0.56350  0.37629  0.41773  1.0000 -0.4795572965
O   O59       1.0  0.95856  0.14577  0.58227  1.0000 -0.4795572965
O   O60       1.0  0.39577  0.31350  0.68721  1.0000 -0.4795572965
O   O61       1.0  0.62371  0.04144  0.18721  1.0000 -0.4795572965
O   O62       1.0  0.68650  0.37371  0.08227  1.0000 -0.4795572965
O   O63       1.0  0.29144  0.60423  0.91773  1.0000 -0.4795572965
O   O64       1.0  0.85423  0.43650  0.81279  1.0000 -0.4795572965
O   O65       1.0  0.67874  0.90054  0.36700  1.0000 -0.4795572965
O   O66       1.0  0.56174  0.42874  0.27820  1.0000 -0.4795572965
O   O67       1.0  0.15054  0.28354  0.72180  1.0000 -0.4795572965
O   O68       1.0  0.53354  0.31174  0.63300  1.0000 -0.4795572965
O   O69       1.0  0.57126  0.84946  0.13300  1.0000 -0.4795572965
O   O70       1.0  0.68826  0.32126  0.22180  1.0000 -0.4795572965
O   O71       1.0  0.09946  0.46646  0.77820  1.0000 -0.4795572965
O   O72       1.0  0.71646  0.43826  0.86700  1.0000 -0.4795572965
