# DDEC6 charges by PACMAN v1.1 (https://github.com/mtap-research/PACMAN-charge/)
data_2005[Pr][nan]3[ASR]2
_chemical_formula_sum              "Pr4 H24 C24 O32"
_cell_length_a       6.1008
_cell_length_b       7.5802
_cell_length_c       28.044
_cell_angle_alpha    90
_cell_angle_beta     90
_cell_angle_gamma    90

_symmetry_space_group_name_H-M    "P 1"
_symmetry_Int_Tables_number       1

loop_
  _symmetry_equiv_pos_as_xyz
  'x, y, z'

loop_
  _atom_site_type_symbol
  _atom_site_label
  _atom_site_symmetry_multiplicity
  _atom_site_fract_x
  _atom_site_fract_y
  _atom_site_fract_z
  _atom_site_occupancy
  _atom_site_charge
Pr  Pr1       1.0  0.43178  0.09815  0.33111  1.0000 2.01081457
Pr  Pr2       1.0  0.43178  0.90185  0.66889  1.0000 2.01081457
Pr  Pr3       1.0  0.56822  0.40185  0.83111  1.0000 2.01081457
Pr  Pr4       1.0  0.56822  0.59815  0.16889  1.0000 2.01081457
H   H1        1.0  0.52840  0.46180  0.36430  1.0000 0.38935899
H   H2        1.0  0.52840  0.53820  0.63570  1.0000 0.38935899
H   H3        1.0  0.47160  0.03820  0.86430  1.0000 0.38935899
H   H4        1.0  0.47160  0.96180  0.13570  1.0000 0.38935899
H   H5        1.0  0.85410  0.53300  0.35480  1.0000 0.1301823035
H   H6        1.0  0.85410  0.46700  0.64520  1.0000 0.1301823035
H   H7        1.0  0.14590  0.96700  0.85480  1.0000 0.1301823035
H   H8        1.0  0.14590  0.03300  0.14520  1.0000 0.1301823035
H   H9        1.0  0.71490  0.37280  0.24890  1.0000 0.3402557895
H   H10       1.0  0.71490  0.62720  0.75110  1.0000 0.3402557895
H   H11       1.0  0.28510  0.12720  0.74890  1.0000 0.3402557895
H   H12       1.0  0.28510  0.87280  0.25110  1.0000 0.3402557895
H   H13       1.0  0.95410  0.62900  0.28100  1.0000 0.1301823035
H   H14       1.0  0.95410  0.37100  0.71900  1.0000 0.1301823035
H   H15       1.0  0.04590  0.87100  0.78100  1.0000 0.1301823035
H   H16       1.0  0.04590  0.12900  0.21900  1.0000 0.1301823035
H   H17       1.0  0.29670  0.15590  0.50010  1.0000 0.1368640811
H   H18       1.0  0.29670  0.84410  0.49990  1.0000 0.1368640811
H   H19       1.0  0.70330  0.34410  0.00010  1.0000 0.1368640811
H   H20       1.0  0.70330  0.65590  0.99990  1.0000 0.1368640811
H   H21       1.0  0.55880  0.15700  0.50080  1.0000 0.1368640811
H   H22       1.0  0.55880  0.84300  0.49920  1.0000 0.1368640811
H   H23       1.0  0.44120  0.34300  0.00080  1.0000 0.1368640811
H   H24       1.0  0.44120  0.65700  0.99920  1.0000 0.1368640811
C   C1        1.0  0.92830  0.28940  0.32480  1.0000 0.6285636575
C   C2        1.0  0.92830  0.71060  0.67520  1.0000 0.6285636575
C   C3        1.0  0.07170  0.21060  0.82480  1.0000 0.6285636575
C   C4        1.0  0.07170  0.78940  0.17520  1.0000 0.6285636575
C   C5        1.0  0.79500  0.46000  0.32800  1.0000 -0.0109750139
C   C6        1.0  0.79500  0.54000  0.67200  1.0000 -0.0109750139
C   C7        1.0  0.20500  0.04000  0.82800  1.0000 -0.0109750139
C   C8        1.0  0.20500  0.96000  0.17200  1.0000 -0.0109750139
C   C9        1.0  0.80910  0.56750  0.28190  1.0000 0.0108683203
C   C10       1.0  0.80910  0.43250  0.71810  1.0000 0.0108683203
C   C11       1.0  0.19090  0.93250  0.78190  1.0000 0.0108683203
C   C12       1.0  0.19090  0.06750  0.21810  1.0000 0.0108683203
C   C13       1.0  0.62720  0.70680  0.28320  1.0000 0.619021602
C   C14       1.0  0.62720  0.29320  0.71680  1.0000 0.619021602
C   C15       1.0  0.37280  0.79320  0.78320  1.0000 0.619021602
C   C16       1.0  0.37280  0.20680  0.21680  1.0000 0.619021602
C   C17       1.0  0.43180  0.09000  0.43540  1.0000 0.6285636575
C   C18       1.0  0.43180  0.91000  0.56460  1.0000 0.6285636575
C   C19       1.0  0.56820  0.41000  0.93540  1.0000 0.6285636575
C   C20       1.0  0.56820  0.59000  0.06460  1.0000 0.6285636575
C   C21       1.0  0.42900  0.09190  0.48920  1.0000 -0.2859816476
C   C22       1.0  0.42900  0.90810  0.51080  1.0000 -0.2845842018
C   C23       1.0  0.57100  0.40810  0.98920  1.0000 -0.2859816476
C   C24       1.0  0.57100  0.59190  0.01080  1.0000 -0.2845842018
O   O1        1.0  0.82760  0.14600  0.32840  1.0000 -0.6088508441
O   O2        1.0  0.82760  0.85400  0.67160  1.0000 -0.6088508441
O   O3        1.0  0.17240  0.35400  0.82840  1.0000 -0.6088508441
O   O4        1.0  0.17240  0.64600  0.17160  1.0000 -0.6088508441
O   O5        1.0  0.13260  0.30470  0.31910  1.0000 -0.6452499404
O   O6        1.0  0.13260  0.69530  0.68090  1.0000 -0.6452499404
O   O7        1.0  0.86740  0.19530  0.81910  1.0000 -0.6452499404
O   O8        1.0  0.86740  0.80470  0.18090  1.0000 -0.6452499404
O   O9        1.0  0.57320  0.41240  0.33889  1.0000 -0.5203648581
O   O10       1.0  0.57320  0.58760  0.66111  1.0000 -0.5203648581
O   O11       1.0  0.42680  0.08760  0.83889  1.0000 -0.5203648581
O   O12       1.0  0.42680  0.91240  0.16111  1.0000 -0.5203648581
O   O13       1.0  0.78750  0.46300  0.24028  1.0000 -0.5378158017
O   O14       1.0  0.78750  0.53700  0.75972  1.0000 -0.5378158017
O   O15       1.0  0.21250  0.03700  0.74028  1.0000 -0.5378158017
O   O16       1.0  0.21250  0.96300  0.25972  1.0000 -0.5378158017
O   O17       1.0  0.62550  0.81400  0.31716  1.0000 -0.6088508441
O   O18       1.0  0.62550  0.18600  0.68284  1.0000 -0.6088508441
O   O19       1.0  0.37450  0.68600  0.81716  1.0000 -0.6088508441
O   O20       1.0  0.37450  0.31400  0.18284  1.0000 -0.6088508441
O   O21       1.0  0.49100  0.70600  0.24940  1.0000 -0.6339648142
O   O22       1.0  0.49100  0.29400  0.75060  1.0000 -0.6339648142
O   O23       1.0  0.50900  0.79400  0.74940  1.0000 -0.6339648142
O   O24       1.0  0.50900  0.20600  0.25060  1.0000 -0.6339648142
O   O25       1.0  0.32130  0.20420  0.41380  1.0000 -0.6663926616
O   O26       1.0  0.32130  0.79580  0.58620  1.0000 -0.6663926616
O   O27       1.0  0.67870  0.29580  0.91380  1.0000 -0.6663926616
O   O28       1.0  0.67870  0.70420  0.08620  1.0000 -0.6663926616
O   O29       1.0  0.54700  0.97750  0.41340  1.0000 -0.6437916532
O   O30       1.0  0.54700  0.02250  0.58660  1.0000 -0.6437916532
O   O31       1.0  0.45300  0.52250  0.91340  1.0000 -0.6437916532
O   O32       1.0  0.45300  0.47750  0.08660  1.0000 -0.6437916532
