# DDEC6 charges by PACMAN v1.1 (https://github.com/mtap-research/PACMAN-charge/)
data_2005[Cr][mtn]3[ASR]1
_chemical_formula_sum              "Cr204 H816 C1632 O884"
_cell_length_a       62.8399
_cell_length_b       62.8399
_cell_length_c       62.8399
_cell_angle_alpha    60
_cell_angle_beta     60
_cell_angle_gamma    60

_symmetry_space_group_name_H-M    "P 1"
_symmetry_Int_Tables_number       1

loop_
  _symmetry_equiv_pos_as_xyz
  'x, y, z'

loop_
  _atom_site_type_symbol
  _atom_site_label
  _atom_site_symmetry_multiplicity
  _atom_site_fract_x
  _atom_site_fract_y
  _atom_site_fract_z
  _atom_site_occupancy
  _atom_site_charge
Cr  Cr1       1.0  0.11423  0.28384  0.65770  1.0000 1.6107147251
Cr  Cr2       1.0  0.30656  0.35963  0.53034  1.0000 1.621068758
Cr  Cr3       1.0  0.28384  0.11423  0.94423  1.0000 1.6107147251
Cr  Cr4       1.0  0.35963  0.30656  0.80348  1.0000 1.621068758
Cr  Cr5       1.0  0.65770  0.94423  0.11423  1.0000 1.6107147251
Cr  Cr6       1.0  0.53034  0.80348  0.30656  1.0000 1.621068758
Cr  Cr7       1.0  0.94423  0.65770  0.28384  1.0000 1.6107147251
Cr  Cr8       1.0  0.80348  0.53034  0.35963  1.0000 1.621068758
Cr  Cr9       1.0  0.65770  0.11423  0.28384  1.0000 1.6107147251
Cr  Cr10      1.0  0.53034  0.30656  0.35963  1.0000 1.621068758
Cr  Cr11      1.0  0.94423  0.28384  0.11423  1.0000 1.6107147251
Cr  Cr12      1.0  0.80348  0.35963  0.30656  1.0000 1.621068758
Cr  Cr13      1.0  0.11423  0.65770  0.94423  1.0000 1.6107147251
Cr  Cr14      1.0  0.30656  0.53034  0.80348  1.0000 1.621068758
Cr  Cr15      1.0  0.28384  0.94423  0.65770  1.0000 1.6107147251
Cr  Cr16      1.0  0.35963  0.80348  0.53034  1.0000 1.621068758
Cr  Cr17      1.0  0.28384  0.65770  0.11423  1.0000 1.6107147251
Cr  Cr18      1.0  0.35963  0.53034  0.30656  1.0000 1.621068758
Cr  Cr19      1.0  0.11423  0.94423  0.28384  1.0000 1.6107147251
Cr  Cr20      1.0  0.30656  0.80348  0.35963  1.0000 1.621068758
Cr  Cr21      1.0  0.94423  0.11423  0.65770  1.0000 1.6107147251
Cr  Cr22      1.0  0.80348  0.30656  0.53034  1.0000 1.621068758
Cr  Cr23      1.0  0.65770  0.28384  0.94423  1.0000 1.6107147251
Cr  Cr24      1.0  0.53034  0.35963  0.80348  1.0000 1.621068758
Cr  Cr25      1.0  0.13577  0.96616  0.30577  1.0000 1.6107147251
Cr  Cr26      1.0  0.94344  0.89037  0.44652  1.0000 1.621068758
Cr  Cr27      1.0  0.96616  0.13577  0.59230  1.0000 1.6107147251
Cr  Cr28      1.0  0.89037  0.94344  0.71966  1.0000 1.621068758
Cr  Cr29      1.0  0.59230  0.30577  0.96616  1.0000 1.6107147251
Cr  Cr30      1.0  0.71966  0.44652  0.89037  1.0000 1.621068758
Cr  Cr31      1.0  0.30577  0.59230  0.13577  1.0000 1.6107147251
Cr  Cr32      1.0  0.44652  0.71966  0.94344  1.0000 1.621068758
Cr  Cr33      1.0  0.59230  0.13577  0.30577  1.0000 1.6107147251
Cr  Cr34      1.0  0.71966  0.94344  0.44652  1.0000 1.621068758
Cr  Cr35      1.0  0.30577  0.96616  0.59230  1.0000 1.6107147251
Cr  Cr36      1.0  0.44652  0.89037  0.71966  1.0000 1.621068758
Cr  Cr37      1.0  0.13577  0.59230  0.96616  1.0000 1.6107147251
Cr  Cr38      1.0  0.94344  0.71966  0.89037  1.0000 1.621068758
Cr  Cr39      1.0  0.96616  0.30577  0.13577  1.0000 1.6107147251
Cr  Cr40      1.0  0.89037  0.44652  0.94344  1.0000 1.621068758
Cr  Cr41      1.0  0.96616  0.59230  0.30577  1.0000 1.6107147251
Cr  Cr42      1.0  0.89037  0.71966  0.44652  1.0000 1.621068758
Cr  Cr43      1.0  0.13577  0.30577  0.59230  1.0000 1.6107147251
Cr  Cr44      1.0  0.94344  0.44652  0.71966  1.0000 1.621068758
Cr  Cr45      1.0  0.30577  0.13577  0.96616  1.0000 1.6107147251
Cr  Cr46      1.0  0.44652  0.94344  0.89037  1.0000 1.621068758
Cr  Cr47      1.0  0.59230  0.96616  0.13577  1.0000 1.6107147251
Cr  Cr48      1.0  0.71966  0.89037  0.94344  1.0000 1.621068758
Cr  Cr49      1.0  0.13577  0.96616  0.59230  1.0000 1.6107147251
Cr  Cr50      1.0  0.94344  0.89037  0.71966  1.0000 1.621068758
Cr  Cr51      1.0  0.96616  0.13577  0.30577  1.0000 1.6107147251
Cr  Cr52      1.0  0.89037  0.94344  0.44652  1.0000 1.621068758
Cr  Cr53      1.0  0.59230  0.30577  0.13577  1.0000 1.6107147251
Cr  Cr54      1.0  0.71966  0.44652  0.94344  1.0000 1.621068758
Cr  Cr55      1.0  0.30577  0.59230  0.96616  1.0000 1.6107147251
Cr  Cr56      1.0  0.44652  0.71966  0.89037  1.0000 1.621068758
Cr  Cr57      1.0  0.59230  0.13577  0.96616  1.0000 1.6107147251
Cr  Cr58      1.0  0.71966  0.94344  0.89037  1.0000 1.621068758
Cr  Cr59      1.0  0.30577  0.96616  0.13577  1.0000 1.6107147251
Cr  Cr60      1.0  0.44652  0.89037  0.94344  1.0000 1.621068758
Cr  Cr61      1.0  0.13577  0.59230  0.30577  1.0000 1.6107147251
Cr  Cr62      1.0  0.94344  0.71966  0.44652  1.0000 1.621068758
Cr  Cr63      1.0  0.96616  0.30577  0.59230  1.0000 1.6107147251
Cr  Cr64      1.0  0.89037  0.44652  0.71966  1.0000 1.621068758
Cr  Cr65      1.0  0.96616  0.59230  0.13577  1.0000 1.6107147251
Cr  Cr66      1.0  0.89037  0.71966  0.94344  1.0000 1.621068758
Cr  Cr67      1.0  0.13577  0.30577  0.96616  1.0000 1.6107147251
Cr  Cr68      1.0  0.94344  0.44652  0.89037  1.0000 1.621068758
Cr  Cr69      1.0  0.30577  0.13577  0.59230  1.0000 1.6107147251
Cr  Cr70      1.0  0.44652  0.94344  0.71966  1.0000 1.621068758
Cr  Cr71      1.0  0.59230  0.96616  0.30577  1.0000 1.6107147251
Cr  Cr72      1.0  0.71966  0.89037  0.44652  1.0000 1.621068758
Cr  Cr73      1.0  0.11423  0.28384  0.94423  1.0000 1.6107147251
Cr  Cr74      1.0  0.30656  0.35963  0.80348  1.0000 1.621068758
Cr  Cr75      1.0  0.28384  0.11423  0.65770  1.0000 1.6107147251
Cr  Cr76      1.0  0.35963  0.30656  0.53034  1.0000 1.621068758
Cr  Cr77      1.0  0.65770  0.94423  0.28384  1.0000 1.6107147251
Cr  Cr78      1.0  0.53034  0.80348  0.35963  1.0000 1.621068758
Cr  Cr79      1.0  0.94423  0.65770  0.11423  1.0000 1.6107147251
Cr  Cr80      1.0  0.80348  0.53034  0.30656  1.0000 1.621068758
Cr  Cr81      1.0  0.65770  0.11423  0.94423  1.0000 1.6107147251
Cr  Cr82      1.0  0.53034  0.30656  0.80348  1.0000 1.621068758
Cr  Cr83      1.0  0.94423  0.28384  0.65770  1.0000 1.6107147251
Cr  Cr84      1.0  0.80348  0.35963  0.53034  1.0000 1.621068758
Cr  Cr85      1.0  0.11423  0.65770  0.28384  1.0000 1.6107147251
Cr  Cr86      1.0  0.30656  0.53034  0.35963  1.0000 1.621068758
Cr  Cr87      1.0  0.28384  0.94423  0.11423  1.0000 1.6107147251
Cr  Cr88      1.0  0.35963  0.80348  0.30656  1.0000 1.621068758
Cr  Cr89      1.0  0.28384  0.65770  0.94423  1.0000 1.6107147251
Cr  Cr90      1.0  0.35963  0.53034  0.80348  1.0000 1.621068758
Cr  Cr91      1.0  0.11423  0.94423  0.65770  1.0000 1.6107147251
Cr  Cr92      1.0  0.30656  0.80348  0.53034  1.0000 1.621068758
Cr  Cr93      1.0  0.94423  0.11423  0.28384  1.0000 1.6107147251
Cr  Cr94      1.0  0.80348  0.30656  0.35963  1.0000 1.621068758
Cr  Cr95      1.0  0.65770  0.28384  0.11423  1.0000 1.6107147251
Cr  Cr96      1.0  0.53034  0.35963  0.30656  1.0000 1.621068758
Cr  Cr97      1.0  0.41880  0.47185  0.47185  1.0000 1.6295355294
Cr  Cr98      1.0  0.47185  0.41880  0.63750  1.0000 1.6295355294
Cr  Cr99      1.0  0.47185  0.63750  0.41880  1.0000 1.6295355294
Cr  Cr100     1.0  0.63750  0.47185  0.47185  1.0000 1.6295355294
Cr  Cr101     1.0  0.47185  0.41880  0.47185  1.0000 1.6295355294
Cr  Cr102     1.0  0.63750  0.47185  0.41880  1.0000 1.6295355294
Cr  Cr103     1.0  0.41880  0.47185  0.63750  1.0000 1.6295355294
Cr  Cr104     1.0  0.47185  0.63750  0.47185  1.0000 1.6295355294
Cr  Cr105     1.0  0.47185  0.47185  0.41880  1.0000 1.6295355294
Cr  Cr106     1.0  0.41880  0.63750  0.47185  1.0000 1.6295355294
Cr  Cr107     1.0  0.63750  0.41880  0.47185  1.0000 1.6295355294
Cr  Cr108     1.0  0.47185  0.47185  0.63750  1.0000 1.6295355294
Cr  Cr109     1.0  0.83120  0.77815  0.61250  1.0000 1.6295355294
Cr  Cr110     1.0  0.77815  0.83120  0.77815  1.0000 1.6295355294
Cr  Cr111     1.0  0.77815  0.61250  0.77815  1.0000 1.6295355294
Cr  Cr112     1.0  0.61250  0.77815  0.83120  1.0000 1.6295355294
Cr  Cr113     1.0  0.77815  0.83120  0.61250  1.0000 1.6295355294
Cr  Cr114     1.0  0.61250  0.77815  0.77815  1.0000 1.6295355294
Cr  Cr115     1.0  0.83120  0.77815  0.77815  1.0000 1.6295355294
Cr  Cr116     1.0  0.77815  0.61250  0.83120  1.0000 1.6295355294
Cr  Cr117     1.0  0.77815  0.77815  0.61250  1.0000 1.6295355294
Cr  Cr118     1.0  0.83120  0.61250  0.77815  1.0000 1.6295355294
Cr  Cr119     1.0  0.61250  0.83120  0.77815  1.0000 1.6295355294
Cr  Cr120     1.0  0.77815  0.77815  0.83120  1.0000 1.6295355294
Cr  Cr121     1.0  0.12500  0.34065  0.62500  1.0000 1.6295355294
Cr  Cr122     1.0  0.34065  0.12500  0.90935  1.0000 1.6295355294
Cr  Cr123     1.0  0.62500  0.90935  0.12500  1.0000 1.6295355294
Cr  Cr124     1.0  0.90935  0.62500  0.34065  1.0000 1.6295355294
Cr  Cr125     1.0  0.62500  0.12500  0.34065  1.0000 1.6295355294
Cr  Cr126     1.0  0.90935  0.34065  0.12500  1.0000 1.6295355294
Cr  Cr127     1.0  0.12500  0.62500  0.90935  1.0000 1.6295355294
Cr  Cr128     1.0  0.34065  0.90935  0.62500  1.0000 1.6295355294
Cr  Cr129     1.0  0.34065  0.62500  0.12500  1.0000 1.6295355294
Cr  Cr130     1.0  0.12500  0.90935  0.34065  1.0000 1.6295355294
Cr  Cr131     1.0  0.90935  0.12500  0.62500  1.0000 1.6295355294
Cr  Cr132     1.0  0.62500  0.34065  0.90935  1.0000 1.6295355294
Cr  Cr133     1.0  0.12500  0.90935  0.62500  1.0000 1.6295355294
Cr  Cr134     1.0  0.90935  0.12500  0.34065  1.0000 1.6295355294
Cr  Cr135     1.0  0.62500  0.34065  0.12500  1.0000 1.6295355294
Cr  Cr136     1.0  0.34065  0.62500  0.90935  1.0000 1.6295355294
Cr  Cr137     1.0  0.62500  0.12500  0.90935  1.0000 1.6295355294
Cr  Cr138     1.0  0.34065  0.90935  0.12500  1.0000 1.6295355294
Cr  Cr139     1.0  0.12500  0.62500  0.34065  1.0000 1.6295355294
Cr  Cr140     1.0  0.90935  0.34065  0.62500  1.0000 1.6295355294
Cr  Cr141     1.0  0.90935  0.62500  0.12500  1.0000 1.6295355294
Cr  Cr142     1.0  0.12500  0.34065  0.90935  1.0000 1.6295355294
Cr  Cr143     1.0  0.34065  0.12500  0.62500  1.0000 1.6295355294
Cr  Cr144     1.0  0.62500  0.90935  0.34065  1.0000 1.6295355294
Cr  Cr145     1.0  0.22983  0.22983  0.77017  1.0000 1.6107147251
Cr  Cr146     1.0  0.77017  0.77017  0.22983  1.0000 1.6107147251
Cr  Cr147     1.0  0.77017  0.22983  0.22983  1.0000 1.6107147251
Cr  Cr148     1.0  0.22983  0.77017  0.77017  1.0000 1.6107147251
Cr  Cr149     1.0  0.22983  0.77017  0.22983  1.0000 1.6107147251
Cr  Cr150     1.0  0.77017  0.22983  0.77017  1.0000 1.6107147251
Cr  Cr151     1.0  0.02017  0.02017  0.47983  1.0000 1.6107147251
Cr  Cr152     1.0  0.47983  0.47983  0.02017  1.0000 1.6107147251
Cr  Cr153     1.0  0.47983  0.02017  0.47983  1.0000 1.6107147251
Cr  Cr154     1.0  0.02017  0.47983  0.02017  1.0000 1.6107147251
Cr  Cr155     1.0  0.02017  0.47983  0.47983  1.0000 1.6107147251
Cr  Cr156     1.0  0.47983  0.02017  0.02017  1.0000 1.6107147251
Cr  Cr157     1.0  0.23592  0.28896  0.73756  1.0000 1.621068758
Cr  Cr158     1.0  0.28896  0.23592  0.73756  1.0000 1.621068758
Cr  Cr159     1.0  0.73756  0.73756  0.23592  1.0000 1.621068758
Cr  Cr160     1.0  0.73756  0.73756  0.28896  1.0000 1.621068758
Cr  Cr161     1.0  0.73756  0.23592  0.28896  1.0000 1.621068758
Cr  Cr162     1.0  0.73756  0.28896  0.23592  1.0000 1.621068758
Cr  Cr163     1.0  0.23592  0.73756  0.73756  1.0000 1.621068758
Cr  Cr164     1.0  0.28896  0.73756  0.73756  1.0000 1.621068758
Cr  Cr165     1.0  0.28896  0.73756  0.23592  1.0000 1.621068758
Cr  Cr166     1.0  0.23592  0.73756  0.28896  1.0000 1.621068758
Cr  Cr167     1.0  0.73756  0.23592  0.73756  1.0000 1.621068758
Cr  Cr168     1.0  0.73756  0.28896  0.73756  1.0000 1.621068758
Cr  Cr169     1.0  0.01408  0.96104  0.51244  1.0000 1.621068758
Cr  Cr170     1.0  0.96104  0.01408  0.51244  1.0000 1.621068758
Cr  Cr171     1.0  0.51244  0.51244  0.96104  1.0000 1.621068758
Cr  Cr172     1.0  0.51244  0.51244  0.01408  1.0000 1.621068758
Cr  Cr173     1.0  0.51244  0.01408  0.51244  1.0000 1.621068758
Cr  Cr174     1.0  0.51244  0.96104  0.51244  1.0000 1.621068758
Cr  Cr175     1.0  0.01408  0.51244  0.96104  1.0000 1.621068758
Cr  Cr176     1.0  0.96104  0.51244  0.01408  1.0000 1.621068758
Cr  Cr177     1.0  0.96104  0.51244  0.51244  1.0000 1.621068758
Cr  Cr178     1.0  0.01408  0.51244  0.51244  1.0000 1.621068758
Cr  Cr179     1.0  0.51244  0.01408  0.96104  1.0000 1.621068758
Cr  Cr180     1.0  0.51244  0.96104  0.01408  1.0000 1.621068758
Cr  Cr181     1.0  0.32574  0.32574  0.49285  1.0000 1.621068758
Cr  Cr182     1.0  0.32574  0.32574  0.85566  1.0000 1.621068758
Cr  Cr183     1.0  0.49285  0.85566  0.32574  1.0000 1.621068758
Cr  Cr184     1.0  0.85566  0.49285  0.32574  1.0000 1.621068758
Cr  Cr185     1.0  0.49285  0.32574  0.32574  1.0000 1.621068758
Cr  Cr186     1.0  0.85566  0.32574  0.32574  1.0000 1.621068758
Cr  Cr187     1.0  0.32574  0.49285  0.85566  1.0000 1.621068758
Cr  Cr188     1.0  0.32574  0.85566  0.49285  1.0000 1.621068758
Cr  Cr189     1.0  0.32574  0.49285  0.32574  1.0000 1.621068758
Cr  Cr190     1.0  0.32574  0.85566  0.32574  1.0000 1.621068758
Cr  Cr191     1.0  0.85566  0.32574  0.49285  1.0000 1.621068758
Cr  Cr192     1.0  0.49285  0.32574  0.85566  1.0000 1.621068758
Cr  Cr193     1.0  0.92426  0.92426  0.39434  1.0000 1.621068758
Cr  Cr194     1.0  0.92426  0.92426  0.75715  1.0000 1.621068758
Cr  Cr195     1.0  0.75715  0.39434  0.92426  1.0000 1.621068758
Cr  Cr196     1.0  0.39434  0.75715  0.92426  1.0000 1.621068758
Cr  Cr197     1.0  0.75715  0.92426  0.39434  1.0000 1.621068758
Cr  Cr198     1.0  0.39434  0.92426  0.75715  1.0000 1.621068758
Cr  Cr199     1.0  0.92426  0.75715  0.92426  1.0000 1.621068758
Cr  Cr200     1.0  0.92426  0.39434  0.92426  1.0000 1.621068758
Cr  Cr201     1.0  0.92426  0.75715  0.39434  1.0000 1.621068758
Cr  Cr202     1.0  0.92426  0.39434  0.75715  1.0000 1.621068758
Cr  Cr203     1.0  0.39434  0.92426  0.92426  1.0000 1.621068758
Cr  Cr204     1.0  0.75715  0.92426  0.92426  1.0000 1.621068758
H   H1        1.0  0.40729  0.47622  0.53902  1.0000 0.1011830961
H   H2        1.0  0.34037  0.40917  0.51532  1.0000 0.1011830961
H   H3        1.0  0.36649  0.43529  0.50073  1.0000 0.1011830961
H   H4        1.0  0.32174  0.38695  0.42554  1.0000 0.1011830961
H   H5        1.0  0.29999  0.43236  0.47131  1.0000 0.1011830961
H   H6        1.0  0.17176  0.21061  0.66698  1.0000 0.1011830961
H   H7        1.0  0.19950  0.23842  0.58290  1.0000 0.1011830961
H   H8        1.0  0.15579  0.25374  0.70849  1.0000 0.1011830961
H   H9        1.0  0.17998  0.24241  0.73557  1.0000 0.1011830961
H   H10       1.0  0.16567  0.32917  0.66698  1.0000 0.1011830961
H   H11       1.0  0.18961  0.31797  0.69394  1.0000 0.1011830961
H   H12       1.0  0.27242  0.34107  0.61090  1.0000 0.1011830961
H   H13       1.0  0.25665  0.32549  0.65835  1.0000 0.1011830961
H   H14       1.0  0.31059  0.25730  0.52408  1.0000 0.1011830961
H   H15       1.0  0.30483  0.21452  0.54690  1.0000 0.1011830961
H   H16       1.0  0.36814  0.22928  0.55895  1.0000 0.1011830961
H   H17       1.0  0.36260  0.18711  0.58131  1.0000 0.1011830961
H   H18       1.0  0.47622  0.40729  0.57747  1.0000 0.1011830961
H   H19       1.0  0.40917  0.34037  0.73515  1.0000 0.1011830961
H   H20       1.0  0.43529  0.36649  0.69749  1.0000 0.1011830961
H   H21       1.0  0.38695  0.32174  0.86577  1.0000 0.1011830961
H   H22       1.0  0.43236  0.29999  0.79634  1.0000 0.1011830961
H   H23       1.0  0.21061  0.17176  0.95064  1.0000 0.1011830961
H   H24       1.0  0.23842  0.19950  0.97918  1.0000 0.1011830961
H   H25       1.0  0.25374  0.15579  0.88199  1.0000 0.1011830961
H   H26       1.0  0.24241  0.17998  0.84203  1.0000 0.1011830961
H   H27       1.0  0.32917  0.16567  0.83819  1.0000 0.1011830961
H   H28       1.0  0.31797  0.18961  0.79849  1.0000 0.1011830961
H   H29       1.0  0.34107  0.27242  0.77561  1.0000 0.1011830961
H   H30       1.0  0.32549  0.25665  0.75951  1.0000 0.1011830961
H   H31       1.0  0.25730  0.31059  0.90802  1.0000 0.1011830961
H   H32       1.0  0.21452  0.30483  0.93376  1.0000 0.1011830961
H   H33       1.0  0.22928  0.36814  0.84363  1.0000 0.1011830961
H   H34       1.0  0.18711  0.36260  0.86898  1.0000 0.1011830961
H   H35       1.0  0.53902  0.57747  0.40729  1.0000 0.1011830961
H   H36       1.0  0.51532  0.73515  0.34037  1.0000 0.1011830961
H   H37       1.0  0.50073  0.69749  0.36649  1.0000 0.1011830961
H   H38       1.0  0.42554  0.86577  0.32174  1.0000 0.1011830961
H   H39       1.0  0.47131  0.79634  0.29999  1.0000 0.1011830961
H   H40       1.0  0.66698  0.95064  0.17176  1.0000 0.1011830961
H   H41       1.0  0.58290  0.97918  0.19950  1.0000 0.1011830961
H   H42       1.0  0.70849  0.88199  0.15579  1.0000 0.1011830961
H   H43       1.0  0.73557  0.84203  0.17998  1.0000 0.1011830961
H   H44       1.0  0.66698  0.83819  0.16567  1.0000 0.1011830961
H   H45       1.0  0.69394  0.79849  0.18961  1.0000 0.1011830961
H   H46       1.0  0.61090  0.77561  0.27242  1.0000 0.1011830961
H   H47       1.0  0.65835  0.75951  0.25665  1.0000 0.1011830961
H   H48       1.0  0.52408  0.90802  0.31059  1.0000 0.1011830961
H   H49       1.0  0.54690  0.93376  0.30483  1.0000 0.1011830961
H   H50       1.0  0.55895  0.84363  0.36814  1.0000 0.1011830961
H   H51       1.0  0.58131  0.86898  0.36260  1.0000 0.1011830961
H   H52       1.0  0.57747  0.53902  0.47622  1.0000 0.1011830961
H   H53       1.0  0.73515  0.51532  0.40917  1.0000 0.1011830961
H   H54       1.0  0.69749  0.50073  0.43529  1.0000 0.1011830961
H   H55       1.0  0.86577  0.42554  0.38695  1.0000 0.1011830961
H   H56       1.0  0.79634  0.47131  0.43236  1.0000 0.1011830961
H   H57       1.0  0.95064  0.66698  0.21061  1.0000 0.1011830961
H   H58       1.0  0.97918  0.58290  0.23842  1.0000 0.1011830961
H   H59       1.0  0.88199  0.70849  0.25374  1.0000 0.1011830961
H   H60       1.0  0.84203  0.73557  0.24241  1.0000 0.1011830961
H   H61       1.0  0.83819  0.66698  0.32917  1.0000 0.1011830961
H   H62       1.0  0.79849  0.69394  0.31797  1.0000 0.1011830961
H   H63       1.0  0.77561  0.61090  0.34107  1.0000 0.1011830961
H   H64       1.0  0.75951  0.65835  0.32549  1.0000 0.1011830961
H   H65       1.0  0.90802  0.52408  0.25730  1.0000 0.1011830961
H   H66       1.0  0.93376  0.54690  0.21452  1.0000 0.1011830961
H   H67       1.0  0.84363  0.55895  0.22928  1.0000 0.1011830961
H   H68       1.0  0.86898  0.58131  0.18711  1.0000 0.1011830961
H   H69       1.0  0.53902  0.40729  0.47622  1.0000 0.1011830961
H   H70       1.0  0.51532  0.34037  0.40917  1.0000 0.1011830961
H   H71       1.0  0.50073  0.36649  0.43529  1.0000 0.1011830961
H   H72       1.0  0.42554  0.32174  0.38695  1.0000 0.1011830961
H   H73       1.0  0.47131  0.29999  0.43236  1.0000 0.1011830961
H   H74       1.0  0.66698  0.17176  0.21061  1.0000 0.1011830961
H   H75       1.0  0.58290  0.19950  0.23842  1.0000 0.1011830961
H   H76       1.0  0.70849  0.15579  0.25374  1.0000 0.1011830961
H   H77       1.0  0.73557  0.17998  0.24241  1.0000 0.1011830961
H   H78       1.0  0.66698  0.16567  0.32917  1.0000 0.1011830961
H   H79       1.0  0.69394  0.18961  0.31797  1.0000 0.1011830961
H   H80       1.0  0.61090  0.27242  0.34107  1.0000 0.1011830961
H   H81       1.0  0.65835  0.25665  0.32549  1.0000 0.1011830961
H   H82       1.0  0.52408  0.31059  0.25730  1.0000 0.1011830961
H   H83       1.0  0.54690  0.30483  0.21452  1.0000 0.1011830961
H   H84       1.0  0.55895  0.36814  0.22928  1.0000 0.1011830961
H   H85       1.0  0.58131  0.36260  0.18711  1.0000 0.1011830961
H   H86       1.0  0.57747  0.47622  0.40729  1.0000 0.1011830961
H   H87       1.0  0.73515  0.40917  0.34037  1.0000 0.1011830961
H   H88       1.0  0.69749  0.43529  0.36649  1.0000 0.1011830961
H   H89       1.0  0.86577  0.38695  0.32174  1.0000 0.1011830961
H   H90       1.0  0.79634  0.43236  0.29999  1.0000 0.1011830961
H   H91       1.0  0.95064  0.21061  0.17176  1.0000 0.1011830961
H   H92       1.0  0.97918  0.23842  0.19950  1.0000 0.1011830961
H   H93       1.0  0.88199  0.25374  0.15579  1.0000 0.1011830961
H   H94       1.0  0.84203  0.24241  0.17998  1.0000 0.1011830961
H   H95       1.0  0.83819  0.32917  0.16567  1.0000 0.1011830961
H   H96       1.0  0.79849  0.31797  0.18961  1.0000 0.1011830961
H   H97       1.0  0.77561  0.34107  0.27242  1.0000 0.1011830961
H   H98       1.0  0.75951  0.32549  0.25665  1.0000 0.1011830961
H   H99       1.0  0.90802  0.25730  0.31059  1.0000 0.1011830961
H   H100      1.0  0.93376  0.21452  0.30483  1.0000 0.1011830961
H   H101      1.0  0.84363  0.22928  0.36814  1.0000 0.1011830961
H   H102      1.0  0.86898  0.18711  0.36260  1.0000 0.1011830961
H   H103      1.0  0.40729  0.53902  0.57747  1.0000 0.1011830961
H   H104      1.0  0.34037  0.51532  0.73515  1.0000 0.1011830961
H   H105      1.0  0.36649  0.50073  0.69749  1.0000 0.1011830961
H   H106      1.0  0.32174  0.42554  0.86577  1.0000 0.1011830961
H   H107      1.0  0.29999  0.47131  0.79634  1.0000 0.1011830961
H   H108      1.0  0.17176  0.66698  0.95064  1.0000 0.1011830961
H   H109      1.0  0.19950  0.58290  0.97918  1.0000 0.1011830961
H   H110      1.0  0.15579  0.70849  0.88199  1.0000 0.1011830961
H   H111      1.0  0.17998  0.73557  0.84203  1.0000 0.1011830961
H   H112      1.0  0.16567  0.66698  0.83819  1.0000 0.1011830961
H   H113      1.0  0.18961  0.69394  0.79849  1.0000 0.1011830961
H   H114      1.0  0.27242  0.61090  0.77561  1.0000 0.1011830961
H   H115      1.0  0.25665  0.65835  0.75951  1.0000 0.1011830961
H   H116      1.0  0.31059  0.52408  0.90802  1.0000 0.1011830961
H   H117      1.0  0.30483  0.54690  0.93376  1.0000 0.1011830961
H   H118      1.0  0.36814  0.55895  0.84363  1.0000 0.1011830961
H   H119      1.0  0.36260  0.58131  0.86898  1.0000 0.1011830961
H   H120      1.0  0.47622  0.57747  0.53902  1.0000 0.1011830961
H   H121      1.0  0.40917  0.73515  0.51532  1.0000 0.1011830961
H   H122      1.0  0.43529  0.69749  0.50073  1.0000 0.1011830961
H   H123      1.0  0.38695  0.86577  0.42554  1.0000 0.1011830961
H   H124      1.0  0.43236  0.79634  0.47131  1.0000 0.1011830961
H   H125      1.0  0.21061  0.95064  0.66698  1.0000 0.1011830961
H   H126      1.0  0.23842  0.97918  0.58290  1.0000 0.1011830961
H   H127      1.0  0.25374  0.88199  0.70849  1.0000 0.1011830961
H   H128      1.0  0.24241  0.84203  0.73557  1.0000 0.1011830961
H   H129      1.0  0.32917  0.83819  0.66698  1.0000 0.1011830961
H   H130      1.0  0.31797  0.79849  0.69394  1.0000 0.1011830961
H   H131      1.0  0.34107  0.77561  0.61090  1.0000 0.1011830961
H   H132      1.0  0.32549  0.75951  0.65835  1.0000 0.1011830961
H   H133      1.0  0.25730  0.90802  0.52408  1.0000 0.1011830961
H   H134      1.0  0.21452  0.93376  0.54690  1.0000 0.1011830961
H   H135      1.0  0.22928  0.84363  0.55895  1.0000 0.1011830961
H   H136      1.0  0.18711  0.86898  0.58131  1.0000 0.1011830961
H   H137      1.0  0.47622  0.53902  0.40729  1.0000 0.1011830961
H   H138      1.0  0.40917  0.51532  0.34037  1.0000 0.1011830961
H   H139      1.0  0.43529  0.50073  0.36649  1.0000 0.1011830961
H   H140      1.0  0.38695  0.42554  0.32174  1.0000 0.1011830961
H   H141      1.0  0.43236  0.47131  0.29999  1.0000 0.1011830961
H   H142      1.0  0.21061  0.66698  0.17176  1.0000 0.1011830961
H   H143      1.0  0.23842  0.58290  0.19950  1.0000 0.1011830961
H   H144      1.0  0.25374  0.70849  0.15579  1.0000 0.1011830961
H   H145      1.0  0.24241  0.73557  0.17998  1.0000 0.1011830961
H   H146      1.0  0.32917  0.66698  0.16567  1.0000 0.1011830961
H   H147      1.0  0.31797  0.69394  0.18961  1.0000 0.1011830961
H   H148      1.0  0.34107  0.61090  0.27242  1.0000 0.1011830961
H   H149      1.0  0.32549  0.65835  0.25665  1.0000 0.1011830961
H   H150      1.0  0.25730  0.52408  0.31059  1.0000 0.1011830961
H   H151      1.0  0.21452  0.54690  0.30483  1.0000 0.1011830961
H   H152      1.0  0.22928  0.55895  0.36814  1.0000 0.1011830961
H   H153      1.0  0.18711  0.58131  0.36260  1.0000 0.1011830961
H   H154      1.0  0.40729  0.57747  0.47622  1.0000 0.1011830961
H   H155      1.0  0.34037  0.73515  0.40917  1.0000 0.1011830961
H   H156      1.0  0.36649  0.69749  0.43529  1.0000 0.1011830961
H   H157      1.0  0.32174  0.86577  0.38695  1.0000 0.1011830961
H   H158      1.0  0.29999  0.79634  0.43236  1.0000 0.1011830961
H   H159      1.0  0.17176  0.95064  0.21061  1.0000 0.1011830961
H   H160      1.0  0.19950  0.97918  0.23842  1.0000 0.1011830961
H   H161      1.0  0.15579  0.88199  0.25374  1.0000 0.1011830961
H   H162      1.0  0.17998  0.84203  0.24241  1.0000 0.1011830961
H   H163      1.0  0.16567  0.83819  0.32917  1.0000 0.1011830961
H   H164      1.0  0.18961  0.79849  0.31797  1.0000 0.1011830961
H   H165      1.0  0.27242  0.77561  0.34107  1.0000 0.1011830961
H   H166      1.0  0.25665  0.75951  0.32549  1.0000 0.1011830961
H   H167      1.0  0.31059  0.90802  0.25730  1.0000 0.1011830961
H   H168      1.0  0.30483  0.93376  0.21452  1.0000 0.1011830961
H   H169      1.0  0.36814  0.84363  0.22928  1.0000 0.1011830961
H   H170      1.0  0.36260  0.86898  0.18711  1.0000 0.1011830961
H   H171      1.0  0.57747  0.40729  0.53902  1.0000 0.1011830961
H   H172      1.0  0.73515  0.34037  0.51532  1.0000 0.1011830961
H   H173      1.0  0.69749  0.36649  0.50073  1.0000 0.1011830961
H   H174      1.0  0.86577  0.32174  0.42554  1.0000 0.1011830961
H   H175      1.0  0.79634  0.29999  0.47131  1.0000 0.1011830961
H   H176      1.0  0.95064  0.17176  0.66698  1.0000 0.1011830961
H   H177      1.0  0.97918  0.19950  0.58290  1.0000 0.1011830961
H   H178      1.0  0.88199  0.15579  0.70849  1.0000 0.1011830961
H   H179      1.0  0.84203  0.17998  0.73557  1.0000 0.1011830961
H   H180      1.0  0.83819  0.16567  0.66698  1.0000 0.1011830961
H   H181      1.0  0.79849  0.18961  0.69394  1.0000 0.1011830961
H   H182      1.0  0.77561  0.27242  0.61090  1.0000 0.1011830961
H   H183      1.0  0.75951  0.25665  0.65835  1.0000 0.1011830961
H   H184      1.0  0.90802  0.31059  0.52408  1.0000 0.1011830961
H   H185      1.0  0.93376  0.30483  0.54690  1.0000 0.1011830961
H   H186      1.0  0.84363  0.36814  0.55895  1.0000 0.1011830961
H   H187      1.0  0.86898  0.36260  0.58131  1.0000 0.1011830961
H   H188      1.0  0.53902  0.47622  0.57747  1.0000 0.1011830961
H   H189      1.0  0.51532  0.40917  0.73515  1.0000 0.1011830961
H   H190      1.0  0.50073  0.43529  0.69749  1.0000 0.1011830961
H   H191      1.0  0.42554  0.38695  0.86577  1.0000 0.1011830961
H   H192      1.0  0.47131  0.43236  0.79634  1.0000 0.1011830961
H   H193      1.0  0.66698  0.21061  0.95064  1.0000 0.1011830961
H   H194      1.0  0.58290  0.23842  0.97918  1.0000 0.1011830961
H   H195      1.0  0.70849  0.25374  0.88199  1.0000 0.1011830961
H   H196      1.0  0.73557  0.24241  0.84203  1.0000 0.1011830961
H   H197      1.0  0.66698  0.32917  0.83819  1.0000 0.1011830961
H   H198      1.0  0.69394  0.31797  0.79849  1.0000 0.1011830961
H   H199      1.0  0.61090  0.34107  0.77561  1.0000 0.1011830961
H   H200      1.0  0.65835  0.32549  0.75951  1.0000 0.1011830961
H   H201      1.0  0.52408  0.25730  0.90802  1.0000 0.1011830961
H   H202      1.0  0.54690  0.21452  0.93376  1.0000 0.1011830961
H   H203      1.0  0.55895  0.22928  0.84363  1.0000 0.1011830961
H   H204      1.0  0.58131  0.18711  0.86898  1.0000 0.1011830961
H   H205      1.0  0.84271  0.77378  0.67253  1.0000 0.1011830961
H   H206      1.0  0.90963  0.84083  0.51485  1.0000 0.1011830961
H   H207      1.0  0.88351  0.81471  0.55251  1.0000 0.1011830961
H   H208      1.0  0.92826  0.86305  0.38423  1.0000 0.1011830961
H   H209      1.0  0.95001  0.81764  0.45366  1.0000 0.1011830961
H   H210      1.0  0.07824  0.03939  0.29936  1.0000 0.1011830961
H   H211      1.0  0.05050  0.01158  0.27082  1.0000 0.1011830961
H   H212      1.0  0.09421  0.99626  0.36801  1.0000 0.1011830961
H   H213      1.0  0.07002  0.00759  0.40797  1.0000 0.1011830961
H   H214      1.0  0.08433  0.92083  0.41181  1.0000 0.1011830961
H   H215      1.0  0.06039  0.93203  0.45151  1.0000 0.1011830961
H   H216      1.0  0.97758  0.90893  0.47439  1.0000 0.1011830961
H   H217      1.0  0.99335  0.92451  0.49049  1.0000 0.1011830961
H   H218      1.0  0.93941  0.99270  0.34198  1.0000 0.1011830961
H   H219      1.0  0.94517  0.03548  0.31624  1.0000 0.1011830961
H   H220      1.0  0.88186  0.02072  0.40637  1.0000 0.1011830961
H   H221      1.0  0.88740  0.06289  0.38102  1.0000 0.1011830961
H   H222      1.0  0.77378  0.84271  0.71098  1.0000 0.1011830961
H   H223      1.0  0.84083  0.90963  0.73468  1.0000 0.1011830961
H   H224      1.0  0.81471  0.88351  0.74927  1.0000 0.1011830961
H   H225      1.0  0.86305  0.92826  0.82446  1.0000 0.1011830961
H   H226      1.0  0.81764  0.95001  0.77869  1.0000 0.1011830961
H   H227      1.0  0.03939  0.07824  0.58302  1.0000 0.1011830961
H   H228      1.0  0.01158  0.05050  0.66710  1.0000 0.1011830961
H   H229      1.0  0.99626  0.09421  0.54151  1.0000 0.1011830961
H   H230      1.0  0.00759  0.07002  0.51443  1.0000 0.1011830961
H   H231      1.0  0.92083  0.08433  0.58302  1.0000 0.1011830961
H   H232      1.0  0.93203  0.06039  0.55606  1.0000 0.1011830961
H   H233      1.0  0.90893  0.97758  0.63910  1.0000 0.1011830961
H   H234      1.0  0.92451  0.99335  0.59165  1.0000 0.1011830961
H   H235      1.0  0.99270  0.93941  0.72592  1.0000 0.1011830961
H   H236      1.0  0.03548  0.94517  0.70310  1.0000 0.1011830961
H   H237      1.0  0.02072  0.88186  0.69105  1.0000 0.1011830961
H   H238      1.0  0.06289  0.88740  0.66869  1.0000 0.1011830961
H   H239      1.0  0.71098  0.67253  0.77378  1.0000 0.1011830961
H   H240      1.0  0.73468  0.51485  0.84083  1.0000 0.1011830961
H   H241      1.0  0.74927  0.55251  0.81471  1.0000 0.1011830961
H   H242      1.0  0.82446  0.38423  0.86305  1.0000 0.1011830961
H   H243      1.0  0.77869  0.45366  0.81764  1.0000 0.1011830961
H   H244      1.0  0.58302  0.29936  0.03939  1.0000 0.1011830961
H   H245      1.0  0.66710  0.27082  0.01158  1.0000 0.1011830961
H   H246      1.0  0.54151  0.36801  0.99626  1.0000 0.1011830961
H   H247      1.0  0.51443  0.40797  0.00759  1.0000 0.1011830961
H   H248      1.0  0.58302  0.41181  0.92083  1.0000 0.1011830961
H   H249      1.0  0.55606  0.45151  0.93203  1.0000 0.1011830961
H   H250      1.0  0.63910  0.47439  0.90893  1.0000 0.1011830961
H   H251      1.0  0.59165  0.49049  0.92451  1.0000 0.1011830961
H   H252      1.0  0.72592  0.34198  0.99270  1.0000 0.1011830961
H   H253      1.0  0.70310  0.31624  0.03548  1.0000 0.1011830961
H   H254      1.0  0.69105  0.40637  0.02072  1.0000 0.1011830961
H   H255      1.0  0.66869  0.38102  0.06289  1.0000 0.1011830961
H   H256      1.0  0.67253  0.71098  0.84271  1.0000 0.1011830961
H   H257      1.0  0.51485  0.73468  0.90963  1.0000 0.1011830961
H   H258      1.0  0.55251  0.74927  0.88351  1.0000 0.1011830961
H   H259      1.0  0.38423  0.82446  0.92826  1.0000 0.1011830961
H   H260      1.0  0.45366  0.77869  0.95001  1.0000 0.1011830961
H   H261      1.0  0.29936  0.58302  0.07824  1.0000 0.1011830961
H   H262      1.0  0.27082  0.66710  0.05050  1.0000 0.1011830961
H   H263      1.0  0.36801  0.54151  0.09421  1.0000 0.1011830961
H   H264      1.0  0.40797  0.51443  0.07002  1.0000 0.1011830961
H   H265      1.0  0.41181  0.58302  0.08433  1.0000 0.1011830961
H   H266      1.0  0.45151  0.55606  0.06039  1.0000 0.1011830961
H   H267      1.0  0.47439  0.63910  0.97758  1.0000 0.1011830961
H   H268      1.0  0.49049  0.59165  0.99335  1.0000 0.1011830961
H   H269      1.0  0.34198  0.72592  0.93941  1.0000 0.1011830961
H   H270      1.0  0.31624  0.70310  0.94517  1.0000 0.1011830961
H   H271      1.0  0.40637  0.69105  0.88186  1.0000 0.1011830961
H   H272      1.0  0.38102  0.66869  0.88740  1.0000 0.1011830961
H   H273      1.0  0.71098  0.84271  0.67253  1.0000 0.1011830961
H   H274      1.0  0.73468  0.90963  0.51485  1.0000 0.1011830961
H   H275      1.0  0.74927  0.88351  0.55251  1.0000 0.1011830961
H   H276      1.0  0.82446  0.92826  0.38423  1.0000 0.1011830961
H   H277      1.0  0.77869  0.95001  0.45366  1.0000 0.1011830961
H   H278      1.0  0.58302  0.07824  0.29936  1.0000 0.1011830961
H   H279      1.0  0.66710  0.05050  0.27082  1.0000 0.1011830961
H   H280      1.0  0.54151  0.09421  0.36801  1.0000 0.1011830961
H   H281      1.0  0.51443  0.07002  0.40797  1.0000 0.1011830961
H   H282      1.0  0.58302  0.08433  0.41181  1.0000 0.1011830961
H   H283      1.0  0.55606  0.06039  0.45151  1.0000 0.1011830961
H   H284      1.0  0.63910  0.97758  0.47439  1.0000 0.1011830961
H   H285      1.0  0.59165  0.99335  0.49049  1.0000 0.1011830961
H   H286      1.0  0.72592  0.93941  0.34198  1.0000 0.1011830961
H   H287      1.0  0.70310  0.94517  0.31624  1.0000 0.1011830961
H   H288      1.0  0.69105  0.88186  0.40637  1.0000 0.1011830961
H   H289      1.0  0.66869  0.88740  0.38102  1.0000 0.1011830961
H   H290      1.0  0.67253  0.77378  0.71098  1.0000 0.1011830961
H   H291      1.0  0.51485  0.84083  0.73468  1.0000 0.1011830961
H   H292      1.0  0.55251  0.81471  0.74927  1.0000 0.1011830961
H   H293      1.0  0.38423  0.86305  0.82446  1.0000 0.1011830961
H   H294      1.0  0.45366  0.81764  0.77869  1.0000 0.1011830961
H   H295      1.0  0.29936  0.03939  0.58302  1.0000 0.1011830961
H   H296      1.0  0.27082  0.01158  0.66710  1.0000 0.1011830961
H   H297      1.0  0.36801  0.99626  0.54151  1.0000 0.1011830961
H   H298      1.0  0.40797  0.00759  0.51443  1.0000 0.1011830961
H   H299      1.0  0.41181  0.92083  0.58302  1.0000 0.1011830961
H   H300      1.0  0.45151  0.93203  0.55606  1.0000 0.1011830961
H   H301      1.0  0.47439  0.90893  0.63910  1.0000 0.1011830961
H   H302      1.0  0.49049  0.92451  0.59165  1.0000 0.1011830961
H   H303      1.0  0.34198  0.99270  0.72592  1.0000 0.1011830961
H   H304      1.0  0.31624  0.03548  0.70310  1.0000 0.1011830961
H   H305      1.0  0.40637  0.02072  0.69105  1.0000 0.1011830961
H   H306      1.0  0.38102  0.06289  0.66869  1.0000 0.1011830961
H   H307      1.0  0.84271  0.71098  0.77378  1.0000 0.1011830961
H   H308      1.0  0.90963  0.73468  0.84083  1.0000 0.1011830961
H   H309      1.0  0.88351  0.74927  0.81471  1.0000 0.1011830961
H   H310      1.0  0.92826  0.82446  0.86305  1.0000 0.1011830961
H   H311      1.0  0.95001  0.77869  0.81764  1.0000 0.1011830961
H   H312      1.0  0.07824  0.58302  0.03939  1.0000 0.1011830961
H   H313      1.0  0.05050  0.66710  0.01158  1.0000 0.1011830961
H   H314      1.0  0.09421  0.54151  0.99626  1.0000 0.1011830961
H   H315      1.0  0.07002  0.51443  0.00759  1.0000 0.1011830961
H   H316      1.0  0.08433  0.58302  0.92083  1.0000 0.1011830961
H   H317      1.0  0.06039  0.55606  0.93203  1.0000 0.1011830961
H   H318      1.0  0.97758  0.63910  0.90893  1.0000 0.1011830961
H   H319      1.0  0.99335  0.59165  0.92451  1.0000 0.1011830961
H   H320      1.0  0.93941  0.72592  0.99270  1.0000 0.1011830961
H   H321      1.0  0.94517  0.70310  0.03548  1.0000 0.1011830961
H   H322      1.0  0.88186  0.69105  0.02072  1.0000 0.1011830961
H   H323      1.0  0.88740  0.66869  0.06289  1.0000 0.1011830961
H   H324      1.0  0.77378  0.67253  0.84271  1.0000 0.1011830961
H   H325      1.0  0.84083  0.51485  0.90963  1.0000 0.1011830961
H   H326      1.0  0.81471  0.55251  0.88351  1.0000 0.1011830961
H   H327      1.0  0.86305  0.38423  0.92826  1.0000 0.1011830961
H   H328      1.0  0.81764  0.45366  0.95001  1.0000 0.1011830961
H   H329      1.0  0.03939  0.29936  0.07824  1.0000 0.1011830961
H   H330      1.0  0.01158  0.27082  0.05050  1.0000 0.1011830961
H   H331      1.0  0.99626  0.36801  0.09421  1.0000 0.1011830961
H   H332      1.0  0.00759  0.40797  0.07002  1.0000 0.1011830961
H   H333      1.0  0.92083  0.41181  0.08433  1.0000 0.1011830961
H   H334      1.0  0.93203  0.45151  0.06039  1.0000 0.1011830961
H   H335      1.0  0.90893  0.47439  0.97758  1.0000 0.1011830961
H   H336      1.0  0.92451  0.49049  0.99335  1.0000 0.1011830961
H   H337      1.0  0.99270  0.34198  0.93941  1.0000 0.1011830961
H   H338      1.0  0.03548  0.31624  0.94517  1.0000 0.1011830961
H   H339      1.0  0.02072  0.40637  0.88186  1.0000 0.1011830961
H   H340      1.0  0.06289  0.38102  0.88740  1.0000 0.1011830961
H   H341      1.0  0.77378  0.71098  0.67253  1.0000 0.1011830961
H   H342      1.0  0.84083  0.73468  0.51485  1.0000 0.1011830961
H   H343      1.0  0.81471  0.74927  0.55251  1.0000 0.1011830961
H   H344      1.0  0.86305  0.82446  0.38423  1.0000 0.1011830961
H   H345      1.0  0.81764  0.77869  0.45366  1.0000 0.1011830961
H   H346      1.0  0.03939  0.58302  0.29936  1.0000 0.1011830961
H   H347      1.0  0.01158  0.66710  0.27082  1.0000 0.1011830961
H   H348      1.0  0.99626  0.54151  0.36801  1.0000 0.1011830961
H   H349      1.0  0.00759  0.51443  0.40797  1.0000 0.1011830961
H   H350      1.0  0.92083  0.58302  0.41181  1.0000 0.1011830961
H   H351      1.0  0.93203  0.55606  0.45151  1.0000 0.1011830961
H   H352      1.0  0.90893  0.63910  0.47439  1.0000 0.1011830961
H   H353      1.0  0.92451  0.59165  0.49049  1.0000 0.1011830961
H   H354      1.0  0.99270  0.72592  0.34198  1.0000 0.1011830961
H   H355      1.0  0.03548  0.70310  0.31624  1.0000 0.1011830961
H   H356      1.0  0.02072  0.69105  0.40637  1.0000 0.1011830961
H   H357      1.0  0.06289  0.66869  0.38102  1.0000 0.1011830961
H   H358      1.0  0.84271  0.67253  0.71098  1.0000 0.1011830961
H   H359      1.0  0.90963  0.51485  0.73468  1.0000 0.1011830961
H   H360      1.0  0.88351  0.55251  0.74927  1.0000 0.1011830961
H   H361      1.0  0.92826  0.38423  0.82446  1.0000 0.1011830961
H   H362      1.0  0.95001  0.45366  0.77869  1.0000 0.1011830961
H   H363      1.0  0.07824  0.29936  0.58302  1.0000 0.1011830961
H   H364      1.0  0.05050  0.27082  0.66710  1.0000 0.1011830961
H   H365      1.0  0.09421  0.36801  0.54151  1.0000 0.1011830961
H   H366      1.0  0.07002  0.40797  0.51443  1.0000 0.1011830961
H   H367      1.0  0.08433  0.41181  0.58302  1.0000 0.1011830961
H   H368      1.0  0.06039  0.45151  0.55606  1.0000 0.1011830961
H   H369      1.0  0.97758  0.47439  0.63910  1.0000 0.1011830961
H   H370      1.0  0.99335  0.49049  0.59165  1.0000 0.1011830961
H   H371      1.0  0.93941  0.34198  0.72592  1.0000 0.1011830961
H   H372      1.0  0.94517  0.31624  0.70310  1.0000 0.1011830961
H   H373      1.0  0.88186  0.40637  0.69105  1.0000 0.1011830961
H   H374      1.0  0.88740  0.38102  0.66869  1.0000 0.1011830961
H   H375      1.0  0.67253  0.84271  0.77378  1.0000 0.1011830961
H   H376      1.0  0.51485  0.90963  0.84083  1.0000 0.1011830961
H   H377      1.0  0.55251  0.88351  0.81471  1.0000 0.1011830961
H   H378      1.0  0.38423  0.92826  0.86305  1.0000 0.1011830961
H   H379      1.0  0.45366  0.95001  0.81764  1.0000 0.1011830961
H   H380      1.0  0.29936  0.07824  0.03939  1.0000 0.1011830961
H   H381      1.0  0.27082  0.05050  0.01158  1.0000 0.1011830961
H   H382      1.0  0.36801  0.09421  0.99626  1.0000 0.1011830961
H   H383      1.0  0.40797  0.07002  0.00759  1.0000 0.1011830961
H   H384      1.0  0.41181  0.08433  0.92083  1.0000 0.1011830961
H   H385      1.0  0.45151  0.06039  0.93203  1.0000 0.1011830961
H   H386      1.0  0.47439  0.97758  0.90893  1.0000 0.1011830961
H   H387      1.0  0.49049  0.99335  0.92451  1.0000 0.1011830961
H   H388      1.0  0.34198  0.93941  0.99270  1.0000 0.1011830961
H   H389      1.0  0.31624  0.94517  0.03548  1.0000 0.1011830961
H   H390      1.0  0.40637  0.88186  0.02072  1.0000 0.1011830961
H   H391      1.0  0.38102  0.88740  0.06289  1.0000 0.1011830961
H   H392      1.0  0.71098  0.77378  0.84271  1.0000 0.1011830961
H   H393      1.0  0.73468  0.84083  0.90963  1.0000 0.1011830961
H   H394      1.0  0.74927  0.81471  0.88351  1.0000 0.1011830961
H   H395      1.0  0.82446  0.86305  0.92826  1.0000 0.1011830961
H   H396      1.0  0.77869  0.81764  0.95001  1.0000 0.1011830961
H   H397      1.0  0.58302  0.03939  0.07824  1.0000 0.1011830961
H   H398      1.0  0.66710  0.01158  0.05050  1.0000 0.1011830961
H   H399      1.0  0.54151  0.99626  0.09421  1.0000 0.1011830961
H   H400      1.0  0.51443  0.00759  0.07002  1.0000 0.1011830961
H   H401      1.0  0.58302  0.92083  0.08433  1.0000 0.1011830961
H   H402      1.0  0.55606  0.93203  0.06039  1.0000 0.1011830961
H   H403      1.0  0.63910  0.90893  0.97758  1.0000 0.1011830961
H   H404      1.0  0.59165  0.92451  0.99335  1.0000 0.1011830961
H   H405      1.0  0.72592  0.99270  0.93941  1.0000 0.1011830961
H   H406      1.0  0.70310  0.03548  0.94517  1.0000 0.1011830961
H   H407      1.0  0.69105  0.02072  0.88186  1.0000 0.1011830961
H   H408      1.0  0.66869  0.06289  0.88740  1.0000 0.1011830961
H   H409      1.0  0.84271  0.77378  0.71098  1.0000 0.1011830961
H   H410      1.0  0.90963  0.84083  0.73468  1.0000 0.1011830961
H   H411      1.0  0.88351  0.81471  0.74927  1.0000 0.1011830961
H   H412      1.0  0.92826  0.86305  0.82446  1.0000 0.1011830961
H   H413      1.0  0.95001  0.81764  0.77869  1.0000 0.1011830961
H   H414      1.0  0.07824  0.03939  0.58302  1.0000 0.1011830961
H   H415      1.0  0.05050  0.01158  0.66710  1.0000 0.1011830961
H   H416      1.0  0.09421  0.99626  0.54151  1.0000 0.1011830961
H   H417      1.0  0.07002  0.00759  0.51443  1.0000 0.1011830961
H   H418      1.0  0.08433  0.92083  0.58302  1.0000 0.1011830961
H   H419      1.0  0.06039  0.93203  0.55606  1.0000 0.1011830961
H   H420      1.0  0.97758  0.90893  0.63910  1.0000 0.1011830961
H   H421      1.0  0.99335  0.92451  0.59165  1.0000 0.1011830961
H   H422      1.0  0.93941  0.99270  0.72592  1.0000 0.1011830961
H   H423      1.0  0.94517  0.03548  0.70310  1.0000 0.1011830961
H   H424      1.0  0.88186  0.02072  0.69105  1.0000 0.1011830961
H   H425      1.0  0.88740  0.06289  0.66869  1.0000 0.1011830961
H   H426      1.0  0.77378  0.84271  0.67253  1.0000 0.1011830961
H   H427      1.0  0.84083  0.90963  0.51485  1.0000 0.1011830961
H   H428      1.0  0.81471  0.88351  0.55251  1.0000 0.1011830961
H   H429      1.0  0.86305  0.92826  0.38423  1.0000 0.1011830961
H   H430      1.0  0.81764  0.95001  0.45366  1.0000 0.1011830961
H   H431      1.0  0.03939  0.07824  0.29936  1.0000 0.1011830961
H   H432      1.0  0.01158  0.05050  0.27082  1.0000 0.1011830961
H   H433      1.0  0.99626  0.09421  0.36801  1.0000 0.1011830961
H   H434      1.0  0.00759  0.07002  0.40797  1.0000 0.1011830961
H   H435      1.0  0.92083  0.08433  0.41181  1.0000 0.1011830961
H   H436      1.0  0.93203  0.06039  0.45151  1.0000 0.1011830961
H   H437      1.0  0.90893  0.97758  0.47439  1.0000 0.1011830961
H   H438      1.0  0.92451  0.99335  0.49049  1.0000 0.1011830961
H   H439      1.0  0.99270  0.93941  0.34198  1.0000 0.1011830961
H   H440      1.0  0.03548  0.94517  0.31624  1.0000 0.1011830961
H   H441      1.0  0.02072  0.88186  0.40637  1.0000 0.1011830961
H   H442      1.0  0.06289  0.88740  0.38102  1.0000 0.1011830961
H   H443      1.0  0.71098  0.67253  0.84271  1.0000 0.1011830961
H   H444      1.0  0.73468  0.51485  0.90963  1.0000 0.1011830961
H   H445      1.0  0.74927  0.55251  0.88351  1.0000 0.1011830961
H   H446      1.0  0.82446  0.38423  0.92826  1.0000 0.1011830961
H   H447      1.0  0.77869  0.45366  0.95001  1.0000 0.1011830961
H   H448      1.0  0.58302  0.29936  0.07824  1.0000 0.1011830961
H   H449      1.0  0.66710  0.27082  0.05050  1.0000 0.1011830961
H   H450      1.0  0.54151  0.36801  0.09421  1.0000 0.1011830961
H   H451      1.0  0.51443  0.40797  0.07002  1.0000 0.1011830961
H   H452      1.0  0.58302  0.41181  0.08433  1.0000 0.1011830961
H   H453      1.0  0.55606  0.45151  0.06039  1.0000 0.1011830961
H   H454      1.0  0.63910  0.47439  0.97758  1.0000 0.1011830961
H   H455      1.0  0.59165  0.49049  0.99335  1.0000 0.1011830961
H   H456      1.0  0.72592  0.34198  0.93941  1.0000 0.1011830961
H   H457      1.0  0.70310  0.31624  0.94517  1.0000 0.1011830961
H   H458      1.0  0.69105  0.40637  0.88186  1.0000 0.1011830961
H   H459      1.0  0.66869  0.38102  0.88740  1.0000 0.1011830961
H   H460      1.0  0.67253  0.71098  0.77378  1.0000 0.1011830961
H   H461      1.0  0.51485  0.73468  0.84083  1.0000 0.1011830961
H   H462      1.0  0.55251  0.74927  0.81471  1.0000 0.1011830961
H   H463      1.0  0.38423  0.82446  0.86305  1.0000 0.1011830961
H   H464      1.0  0.45366  0.77869  0.81764  1.0000 0.1011830961
H   H465      1.0  0.29936  0.58302  0.03939  1.0000 0.1011830961
H   H466      1.0  0.27082  0.66710  0.01158  1.0000 0.1011830961
H   H467      1.0  0.36801  0.54151  0.99626  1.0000 0.1011830961
H   H468      1.0  0.40797  0.51443  0.00759  1.0000 0.1011830961
H   H469      1.0  0.41181  0.58302  0.92083  1.0000 0.1011830961
H   H470      1.0  0.45151  0.55606  0.93203  1.0000 0.1011830961
H   H471      1.0  0.47439  0.63910  0.90893  1.0000 0.1011830961
H   H472      1.0  0.49049  0.59165  0.92451  1.0000 0.1011830961
H   H473      1.0  0.34198  0.72592  0.99270  1.0000 0.1011830961
H   H474      1.0  0.31624  0.70310  0.03548  1.0000 0.1011830961
H   H475      1.0  0.40637  0.69105  0.02072  1.0000 0.1011830961
H   H476      1.0  0.38102  0.66869  0.06289  1.0000 0.1011830961
H   H477      1.0  0.71098  0.84271  0.77378  1.0000 0.1011830961
H   H478      1.0  0.73468  0.90963  0.84083  1.0000 0.1011830961
H   H479      1.0  0.74927  0.88351  0.81471  1.0000 0.1011830961
H   H480      1.0  0.82446  0.92826  0.86305  1.0000 0.1011830961
H   H481      1.0  0.77869  0.95001  0.81764  1.0000 0.1011830961
H   H482      1.0  0.58302  0.07824  0.03939  1.0000 0.1011830961
H   H483      1.0  0.66710  0.05050  0.01158  1.0000 0.1011830961
H   H484      1.0  0.54151  0.09421  0.99626  1.0000 0.1011830961
H   H485      1.0  0.51443  0.07002  0.00759  1.0000 0.1011830961
H   H486      1.0  0.58302  0.08433  0.92083  1.0000 0.1011830961
H   H487      1.0  0.55606  0.06039  0.93203  1.0000 0.1011830961
H   H488      1.0  0.63910  0.97758  0.90893  1.0000 0.1011830961
H   H489      1.0  0.59165  0.99335  0.92451  1.0000 0.1011830961
H   H490      1.0  0.72592  0.93941  0.99270  1.0000 0.1011830961
H   H491      1.0  0.70310  0.94517  0.03548  1.0000 0.1011830961
H   H492      1.0  0.69105  0.88186  0.02072  1.0000 0.1011830961
H   H493      1.0  0.66869  0.88740  0.06289  1.0000 0.1011830961
H   H494      1.0  0.67253  0.77378  0.84271  1.0000 0.1011830961
H   H495      1.0  0.51485  0.84083  0.90963  1.0000 0.1011830961
H   H496      1.0  0.55251  0.81471  0.88351  1.0000 0.1011830961
H   H497      1.0  0.38423  0.86305  0.92826  1.0000 0.1011830961
H   H498      1.0  0.45366  0.81764  0.95001  1.0000 0.1011830961
H   H499      1.0  0.29936  0.03939  0.07824  1.0000 0.1011830961
H   H500      1.0  0.27082  0.01158  0.05050  1.0000 0.1011830961
H   H501      1.0  0.36801  0.99626  0.09421  1.0000 0.1011830961
H   H502      1.0  0.40797  0.00759  0.07002  1.0000 0.1011830961
H   H503      1.0  0.41181  0.92083  0.08433  1.0000 0.1011830961
H   H504      1.0  0.45151  0.93203  0.06039  1.0000 0.1011830961
H   H505      1.0  0.47439  0.90893  0.97758  1.0000 0.1011830961
H   H506      1.0  0.49049  0.92451  0.99335  1.0000 0.1011830961
H   H507      1.0  0.34198  0.99270  0.93941  1.0000 0.1011830961
H   H508      1.0  0.31624  0.03548  0.94517  1.0000 0.1011830961
H   H509      1.0  0.40637  0.02072  0.88186  1.0000 0.1011830961
H   H510      1.0  0.38102  0.06289  0.88740  1.0000 0.1011830961
H   H511      1.0  0.84271  0.71098  0.67253  1.0000 0.1011830961
H   H512      1.0  0.90963  0.73468  0.51485  1.0000 0.1011830961
H   H513      1.0  0.88351  0.74927  0.55251  1.0000 0.1011830961
H   H514      1.0  0.92826  0.82446  0.38423  1.0000 0.1011830961
H   H515      1.0  0.95001  0.77869  0.45366  1.0000 0.1011830961
H   H516      1.0  0.07824  0.58302  0.29936  1.0000 0.1011830961
H   H517      1.0  0.05050  0.66710  0.27082  1.0000 0.1011830961
H   H518      1.0  0.09421  0.54151  0.36801  1.0000 0.1011830961
H   H519      1.0  0.07002  0.51443  0.40797  1.0000 0.1011830961
H   H520      1.0  0.08433  0.58302  0.41181  1.0000 0.1011830961
H   H521      1.0  0.06039  0.55606  0.45151  1.0000 0.1011830961
H   H522      1.0  0.97758  0.63910  0.47439  1.0000 0.1011830961
H   H523      1.0  0.99335  0.59165  0.49049  1.0000 0.1011830961
H   H524      1.0  0.93941  0.72592  0.34198  1.0000 0.1011830961
H   H525      1.0  0.94517  0.70310  0.31624  1.0000 0.1011830961
H   H526      1.0  0.88186  0.69105  0.40637  1.0000 0.1011830961
H   H527      1.0  0.88740  0.66869  0.38102  1.0000 0.1011830961
H   H528      1.0  0.77378  0.67253  0.71098  1.0000 0.1011830961
H   H529      1.0  0.84083  0.51485  0.73468  1.0000 0.1011830961
H   H530      1.0  0.81471  0.55251  0.74927  1.0000 0.1011830961
H   H531      1.0  0.86305  0.38423  0.82446  1.0000 0.1011830961
H   H532      1.0  0.81764  0.45366  0.77869  1.0000 0.1011830961
H   H533      1.0  0.03939  0.29936  0.58302  1.0000 0.1011830961
H   H534      1.0  0.01158  0.27082  0.66710  1.0000 0.1011830961
H   H535      1.0  0.99626  0.36801  0.54151  1.0000 0.1011830961
H   H536      1.0  0.00759  0.40797  0.51443  1.0000 0.1011830961
H   H537      1.0  0.92083  0.41181  0.58302  1.0000 0.1011830961
H   H538      1.0  0.93203  0.45151  0.55606  1.0000 0.1011830961
H   H539      1.0  0.90893  0.47439  0.63910  1.0000 0.1011830961
H   H540      1.0  0.92451  0.49049  0.59165  1.0000 0.1011830961
H   H541      1.0  0.99270  0.34198  0.72592  1.0000 0.1011830961
H   H542      1.0  0.03548  0.31624  0.70310  1.0000 0.1011830961
H   H543      1.0  0.02072  0.40637  0.69105  1.0000 0.1011830961
H   H544      1.0  0.06289  0.38102  0.66869  1.0000 0.1011830961
H   H545      1.0  0.77378  0.71098  0.84271  1.0000 0.1011830961
H   H546      1.0  0.84083  0.73468  0.90963  1.0000 0.1011830961
H   H547      1.0  0.81471  0.74927  0.88351  1.0000 0.1011830961
H   H548      1.0  0.86305  0.82446  0.92826  1.0000 0.1011830961
H   H549      1.0  0.81764  0.77869  0.95001  1.0000 0.1011830961
H   H550      1.0  0.03939  0.58302  0.07824  1.0000 0.1011830961
H   H551      1.0  0.01158  0.66710  0.05050  1.0000 0.1011830961
H   H552      1.0  0.99626  0.54151  0.09421  1.0000 0.1011830961
H   H553      1.0  0.00759  0.51443  0.07002  1.0000 0.1011830961
H   H554      1.0  0.92083  0.58302  0.08433  1.0000 0.1011830961
H   H555      1.0  0.93203  0.55606  0.06039  1.0000 0.1011830961
H   H556      1.0  0.90893  0.63910  0.97758  1.0000 0.1011830961
H   H557      1.0  0.92451  0.59165  0.99335  1.0000 0.1011830961
H   H558      1.0  0.99270  0.72592  0.93941  1.0000 0.1011830961
H   H559      1.0  0.03548  0.70310  0.94517  1.0000 0.1011830961
H   H560      1.0  0.02072  0.69105  0.88186  1.0000 0.1011830961
H   H561      1.0  0.06289  0.66869  0.88740  1.0000 0.1011830961
H   H562      1.0  0.84271  0.67253  0.77378  1.0000 0.1011830961
H   H563      1.0  0.90963  0.51485  0.84083  1.0000 0.1011830961
H   H564      1.0  0.88351  0.55251  0.81471  1.0000 0.1011830961
H   H565      1.0  0.92826  0.38423  0.86305  1.0000 0.1011830961
H   H566      1.0  0.95001  0.45366  0.81764  1.0000 0.1011830961
H   H567      1.0  0.07824  0.29936  0.03939  1.0000 0.1011830961
H   H568      1.0  0.05050  0.27082  0.01158  1.0000 0.1011830961
H   H569      1.0  0.09421  0.36801  0.99626  1.0000 0.1011830961
H   H570      1.0  0.07002  0.40797  0.00759  1.0000 0.1011830961
H   H571      1.0  0.08433  0.41181  0.92083  1.0000 0.1011830961
H   H572      1.0  0.06039  0.45151  0.93203  1.0000 0.1011830961
H   H573      1.0  0.97758  0.47439  0.90893  1.0000 0.1011830961
H   H574      1.0  0.99335  0.49049  0.92451  1.0000 0.1011830961
H   H575      1.0  0.93941  0.34198  0.99270  1.0000 0.1011830961
H   H576      1.0  0.94517  0.31624  0.03548  1.0000 0.1011830961
H   H577      1.0  0.88186  0.40637  0.02072  1.0000 0.1011830961
H   H578      1.0  0.88740  0.38102  0.06289  1.0000 0.1011830961
H   H579      1.0  0.67253  0.84271  0.71098  1.0000 0.1011830961
H   H580      1.0  0.51485  0.90963  0.73468  1.0000 0.1011830961
H   H581      1.0  0.55251  0.88351  0.74927  1.0000 0.1011830961
H   H582      1.0  0.38423  0.92826  0.82446  1.0000 0.1011830961
H   H583      1.0  0.45366  0.95001  0.77869  1.0000 0.1011830961
H   H584      1.0  0.29936  0.07824  0.58302  1.0000 0.1011830961
H   H585      1.0  0.27082  0.05050  0.66710  1.0000 0.1011830961
H   H586      1.0  0.36801  0.09421  0.54151  1.0000 0.1011830961
H   H587      1.0  0.40797  0.07002  0.51443  1.0000 0.1011830961
H   H588      1.0  0.41181  0.08433  0.58302  1.0000 0.1011830961
H   H589      1.0  0.45151  0.06039  0.55606  1.0000 0.1011830961
H   H590      1.0  0.47439  0.97758  0.63910  1.0000 0.1011830961
H   H591      1.0  0.49049  0.99335  0.59165  1.0000 0.1011830961
H   H592      1.0  0.34198  0.93941  0.72592  1.0000 0.1011830961
H   H593      1.0  0.31624  0.94517  0.70310  1.0000 0.1011830961
H   H594      1.0  0.40637  0.88186  0.69105  1.0000 0.1011830961
H   H595      1.0  0.38102  0.88740  0.66869  1.0000 0.1011830961
H   H596      1.0  0.71098  0.77378  0.67253  1.0000 0.1011830961
H   H597      1.0  0.73468  0.84083  0.51485  1.0000 0.1011830961
H   H598      1.0  0.74927  0.81471  0.55251  1.0000 0.1011830961
H   H599      1.0  0.82446  0.86305  0.38423  1.0000 0.1011830961
H   H600      1.0  0.77869  0.81764  0.45366  1.0000 0.1011830961
H   H601      1.0  0.58302  0.03939  0.29936  1.0000 0.1011830961
H   H602      1.0  0.66710  0.01158  0.27082  1.0000 0.1011830961
H   H603      1.0  0.54151  0.99626  0.36801  1.0000 0.1011830961
H   H604      1.0  0.51443  0.00759  0.40797  1.0000 0.1011830961
H   H605      1.0  0.58302  0.92083  0.41181  1.0000 0.1011830961
H   H606      1.0  0.55606  0.93203  0.45151  1.0000 0.1011830961
H   H607      1.0  0.63910  0.90893  0.47439  1.0000 0.1011830961
H   H608      1.0  0.59165  0.92451  0.49049  1.0000 0.1011830961
H   H609      1.0  0.72592  0.99270  0.34198  1.0000 0.1011830961
H   H610      1.0  0.70310  0.03548  0.31624  1.0000 0.1011830961
H   H611      1.0  0.69105  0.02072  0.40637  1.0000 0.1011830961
H   H612      1.0  0.66869  0.06289  0.38102  1.0000 0.1011830961
H   H613      1.0  0.40729  0.47622  0.57747  1.0000 0.1011830961
H   H614      1.0  0.34037  0.40917  0.73515  1.0000 0.1011830961
H   H615      1.0  0.36649  0.43529  0.69749  1.0000 0.1011830961
H   H616      1.0  0.32174  0.38695  0.86577  1.0000 0.1011830961
H   H617      1.0  0.29999  0.43236  0.79634  1.0000 0.1011830961
H   H618      1.0  0.17176  0.21061  0.95064  1.0000 0.1011830961
H   H619      1.0  0.19950  0.23842  0.97918  1.0000 0.1011830961
H   H620      1.0  0.15579  0.25374  0.88199  1.0000 0.1011830961
H   H621      1.0  0.17998  0.24241  0.84203  1.0000 0.1011830961
H   H622      1.0  0.16567  0.32917  0.83819  1.0000 0.1011830961
H   H623      1.0  0.18961  0.31797  0.79849  1.0000 0.1011830961
H   H624      1.0  0.27242  0.34107  0.77561  1.0000 0.1011830961
H   H625      1.0  0.25665  0.32549  0.75951  1.0000 0.1011830961
H   H626      1.0  0.31059  0.25730  0.90802  1.0000 0.1011830961
H   H627      1.0  0.30483  0.21452  0.93376  1.0000 0.1011830961
H   H628      1.0  0.36814  0.22928  0.84363  1.0000 0.1011830961
H   H629      1.0  0.36260  0.18711  0.86898  1.0000 0.1011830961
H   H630      1.0  0.47622  0.40729  0.53902  1.0000 0.1011830961
H   H631      1.0  0.40917  0.34037  0.51532  1.0000 0.1011830961
H   H632      1.0  0.43529  0.36649  0.50073  1.0000 0.1011830961
H   H633      1.0  0.38695  0.32174  0.42554  1.0000 0.1011830961
H   H634      1.0  0.43236  0.29999  0.47131  1.0000 0.1011830961
H   H635      1.0  0.21061  0.17176  0.66698  1.0000 0.1011830961
H   H636      1.0  0.23842  0.19950  0.58290  1.0000 0.1011830961
H   H637      1.0  0.25374  0.15579  0.70849  1.0000 0.1011830961
H   H638      1.0  0.24241  0.17998  0.73557  1.0000 0.1011830961
H   H639      1.0  0.32917  0.16567  0.66698  1.0000 0.1011830961
H   H640      1.0  0.31797  0.18961  0.69394  1.0000 0.1011830961
H   H641      1.0  0.34107  0.27242  0.61090  1.0000 0.1011830961
H   H642      1.0  0.32549  0.25665  0.65835  1.0000 0.1011830961
H   H643      1.0  0.25730  0.31059  0.52408  1.0000 0.1011830961
H   H644      1.0  0.21452  0.30483  0.54690  1.0000 0.1011830961
H   H645      1.0  0.22928  0.36814  0.55895  1.0000 0.1011830961
H   H646      1.0  0.18711  0.36260  0.58131  1.0000 0.1011830961
H   H647      1.0  0.53902  0.57747  0.47622  1.0000 0.1011830961
H   H648      1.0  0.51532  0.73515  0.40917  1.0000 0.1011830961
H   H649      1.0  0.50073  0.69749  0.43529  1.0000 0.1011830961
H   H650      1.0  0.42554  0.86577  0.38695  1.0000 0.1011830961
H   H651      1.0  0.47131  0.79634  0.43236  1.0000 0.1011830961
H   H652      1.0  0.66698  0.95064  0.21061  1.0000 0.1011830961
H   H653      1.0  0.58290  0.97918  0.23842  1.0000 0.1011830961
H   H654      1.0  0.70849  0.88199  0.25374  1.0000 0.1011830961
H   H655      1.0  0.73557  0.84203  0.24241  1.0000 0.1011830961
H   H656      1.0  0.66698  0.83819  0.32917  1.0000 0.1011830961
H   H657      1.0  0.69394  0.79849  0.31797  1.0000 0.1011830961
H   H658      1.0  0.61090  0.77561  0.34107  1.0000 0.1011830961
H   H659      1.0  0.65835  0.75951  0.32549  1.0000 0.1011830961
H   H660      1.0  0.52408  0.90802  0.25730  1.0000 0.1011830961
H   H661      1.0  0.54690  0.93376  0.21452  1.0000 0.1011830961
H   H662      1.0  0.55895  0.84363  0.22928  1.0000 0.1011830961
H   H663      1.0  0.58131  0.86898  0.18711  1.0000 0.1011830961
H   H664      1.0  0.57747  0.53902  0.40729  1.0000 0.1011830961
H   H665      1.0  0.73515  0.51532  0.34037  1.0000 0.1011830961
H   H666      1.0  0.69749  0.50073  0.36649  1.0000 0.1011830961
H   H667      1.0  0.86577  0.42554  0.32174  1.0000 0.1011830961
H   H668      1.0  0.79634  0.47131  0.29999  1.0000 0.1011830961
H   H669      1.0  0.95064  0.66698  0.17176  1.0000 0.1011830961
H   H670      1.0  0.97918  0.58290  0.19950  1.0000 0.1011830961
H   H671      1.0  0.88199  0.70849  0.15579  1.0000 0.1011830961
H   H672      1.0  0.84203  0.73557  0.17998  1.0000 0.1011830961
H   H673      1.0  0.83819  0.66698  0.16567  1.0000 0.1011830961
H   H674      1.0  0.79849  0.69394  0.18961  1.0000 0.1011830961
H   H675      1.0  0.77561  0.61090  0.27242  1.0000 0.1011830961
H   H676      1.0  0.75951  0.65835  0.25665  1.0000 0.1011830961
H   H677      1.0  0.90802  0.52408  0.31059  1.0000 0.1011830961
H   H678      1.0  0.93376  0.54690  0.30483  1.0000 0.1011830961
H   H679      1.0  0.84363  0.55895  0.36814  1.0000 0.1011830961
H   H680      1.0  0.86898  0.58131  0.36260  1.0000 0.1011830961
H   H681      1.0  0.53902  0.40729  0.57747  1.0000 0.1011830961
H   H682      1.0  0.51532  0.34037  0.73515  1.0000 0.1011830961
H   H683      1.0  0.50073  0.36649  0.69749  1.0000 0.1011830961
H   H684      1.0  0.42554  0.32174  0.86577  1.0000 0.1011830961
H   H685      1.0  0.47131  0.29999  0.79634  1.0000 0.1011830961
H   H686      1.0  0.66698  0.17176  0.95064  1.0000 0.1011830961
H   H687      1.0  0.58290  0.19950  0.97918  1.0000 0.1011830961
H   H688      1.0  0.70849  0.15579  0.88199  1.0000 0.1011830961
H   H689      1.0  0.73557  0.17998  0.84203  1.0000 0.1011830961
H   H690      1.0  0.66698  0.16567  0.83819  1.0000 0.1011830961
H   H691      1.0  0.69394  0.18961  0.79849  1.0000 0.1011830961
H   H692      1.0  0.61090  0.27242  0.77561  1.0000 0.1011830961
H   H693      1.0  0.65835  0.25665  0.75951  1.0000 0.1011830961
H   H694      1.0  0.52408  0.31059  0.90802  1.0000 0.1011830961
H   H695      1.0  0.54690  0.30483  0.93376  1.0000 0.1011830961
H   H696      1.0  0.55895  0.36814  0.84363  1.0000 0.1011830961
H   H697      1.0  0.58131  0.36260  0.86898  1.0000 0.1011830961
H   H698      1.0  0.57747  0.47622  0.53902  1.0000 0.1011830961
H   H699      1.0  0.73515  0.40917  0.51532  1.0000 0.1011830961
H   H700      1.0  0.69749  0.43529  0.50073  1.0000 0.1011830961
H   H701      1.0  0.86577  0.38695  0.42554  1.0000 0.1011830961
H   H702      1.0  0.79634  0.43236  0.47131  1.0000 0.1011830961
H   H703      1.0  0.95064  0.21061  0.66698  1.0000 0.1011830961
H   H704      1.0  0.97918  0.23842  0.58290  1.0000 0.1011830961
H   H705      1.0  0.88199  0.25374  0.70849  1.0000 0.1011830961
H   H706      1.0  0.84203  0.24241  0.73557  1.0000 0.1011830961
H   H707      1.0  0.83819  0.32917  0.66698  1.0000 0.1011830961
H   H708      1.0  0.79849  0.31797  0.69394  1.0000 0.1011830961
H   H709      1.0  0.77561  0.34107  0.61090  1.0000 0.1011830961
H   H710      1.0  0.75951  0.32549  0.65835  1.0000 0.1011830961
H   H711      1.0  0.90802  0.25730  0.52408  1.0000 0.1011830961
H   H712      1.0  0.93376  0.21452  0.54690  1.0000 0.1011830961
H   H713      1.0  0.84363  0.22928  0.55895  1.0000 0.1011830961
H   H714      1.0  0.86898  0.18711  0.58131  1.0000 0.1011830961
H   H715      1.0  0.40729  0.53902  0.47622  1.0000 0.1011830961
H   H716      1.0  0.34037  0.51532  0.40917  1.0000 0.1011830961
H   H717      1.0  0.36649  0.50073  0.43529  1.0000 0.1011830961
H   H718      1.0  0.32174  0.42554  0.38695  1.0000 0.1011830961
H   H719      1.0  0.29999  0.47131  0.43236  1.0000 0.1011830961
H   H720      1.0  0.17176  0.66698  0.21061  1.0000 0.1011830961
H   H721      1.0  0.19950  0.58290  0.23842  1.0000 0.1011830961
H   H722      1.0  0.15579  0.70849  0.25374  1.0000 0.1011830961
H   H723      1.0  0.17998  0.73557  0.24241  1.0000 0.1011830961
H   H724      1.0  0.16567  0.66698  0.32917  1.0000 0.1011830961
H   H725      1.0  0.18961  0.69394  0.31797  1.0000 0.1011830961
H   H726      1.0  0.27242  0.61090  0.34107  1.0000 0.1011830961
H   H727      1.0  0.25665  0.65835  0.32549  1.0000 0.1011830961
H   H728      1.0  0.31059  0.52408  0.25730  1.0000 0.1011830961
H   H729      1.0  0.30483  0.54690  0.21452  1.0000 0.1011830961
H   H730      1.0  0.36814  0.55895  0.22928  1.0000 0.1011830961
H   H731      1.0  0.36260  0.58131  0.18711  1.0000 0.1011830961
H   H732      1.0  0.47622  0.57747  0.40729  1.0000 0.1011830961
H   H733      1.0  0.40917  0.73515  0.34037  1.0000 0.1011830961
H   H734      1.0  0.43529  0.69749  0.36649  1.0000 0.1011830961
H   H735      1.0  0.38695  0.86577  0.32174  1.0000 0.1011830961
H   H736      1.0  0.43236  0.79634  0.29999  1.0000 0.1011830961
H   H737      1.0  0.21061  0.95064  0.17176  1.0000 0.1011830961
H   H738      1.0  0.23842  0.97918  0.19950  1.0000 0.1011830961
H   H739      1.0  0.25374  0.88199  0.15579  1.0000 0.1011830961
H   H740      1.0  0.24241  0.84203  0.17998  1.0000 0.1011830961
H   H741      1.0  0.32917  0.83819  0.16567  1.0000 0.1011830961
H   H742      1.0  0.31797  0.79849  0.18961  1.0000 0.1011830961
H   H743      1.0  0.34107  0.77561  0.27242  1.0000 0.1011830961
H   H744      1.0  0.32549  0.75951  0.25665  1.0000 0.1011830961
H   H745      1.0  0.25730  0.90802  0.31059  1.0000 0.1011830961
H   H746      1.0  0.21452  0.93376  0.30483  1.0000 0.1011830961
H   H747      1.0  0.22928  0.84363  0.36814  1.0000 0.1011830961
H   H748      1.0  0.18711  0.86898  0.36260  1.0000 0.1011830961
H   H749      1.0  0.47622  0.53902  0.57747  1.0000 0.1011830961
H   H750      1.0  0.40917  0.51532  0.73515  1.0000 0.1011830961
H   H751      1.0  0.43529  0.50073  0.69749  1.0000 0.1011830961
H   H752      1.0  0.38695  0.42554  0.86577  1.0000 0.1011830961
H   H753      1.0  0.43236  0.47131  0.79634  1.0000 0.1011830961
H   H754      1.0  0.21061  0.66698  0.95064  1.0000 0.1011830961
H   H755      1.0  0.23842  0.58290  0.97918  1.0000 0.1011830961
H   H756      1.0  0.25374  0.70849  0.88199  1.0000 0.1011830961
H   H757      1.0  0.24241  0.73557  0.84203  1.0000 0.1011830961
H   H758      1.0  0.32917  0.66698  0.83819  1.0000 0.1011830961
H   H759      1.0  0.31797  0.69394  0.79849  1.0000 0.1011830961
H   H760      1.0  0.34107  0.61090  0.77561  1.0000 0.1011830961
H   H761      1.0  0.32549  0.65835  0.75951  1.0000 0.1011830961
H   H762      1.0  0.25730  0.52408  0.90802  1.0000 0.1011830961
H   H763      1.0  0.21452  0.54690  0.93376  1.0000 0.1011830961
H   H764      1.0  0.22928  0.55895  0.84363  1.0000 0.1011830961
H   H765      1.0  0.18711  0.58131  0.86898  1.0000 0.1011830961
H   H766      1.0  0.40729  0.57747  0.53902  1.0000 0.1011830961
H   H767      1.0  0.34037  0.73515  0.51532  1.0000 0.1011830961
H   H768      1.0  0.36649  0.69749  0.50073  1.0000 0.1011830961
H   H769      1.0  0.32174  0.86577  0.42554  1.0000 0.1011830961
H   H770      1.0  0.29999  0.79634  0.47131  1.0000 0.1011830961
H   H771      1.0  0.17176  0.95064  0.66698  1.0000 0.1011830961
H   H772      1.0  0.19950  0.97918  0.58290  1.0000 0.1011830961
H   H773      1.0  0.15579  0.88199  0.70849  1.0000 0.1011830961
H   H774      1.0  0.17998  0.84203  0.73557  1.0000 0.1011830961
H   H775      1.0  0.16567  0.83819  0.66698  1.0000 0.1011830961
H   H776      1.0  0.18961  0.79849  0.69394  1.0000 0.1011830961
H   H777      1.0  0.27242  0.77561  0.61090  1.0000 0.1011830961
H   H778      1.0  0.25665  0.75951  0.65835  1.0000 0.1011830961
H   H779      1.0  0.31059  0.90802  0.52408  1.0000 0.1011830961
H   H780      1.0  0.30483  0.93376  0.54690  1.0000 0.1011830961
H   H781      1.0  0.36814  0.84363  0.55895  1.0000 0.1011830961
H   H782      1.0  0.36260  0.86898  0.58131  1.0000 0.1011830961
H   H783      1.0  0.57747  0.40729  0.47622  1.0000 0.1011830961
H   H784      1.0  0.73515  0.34037  0.40917  1.0000 0.1011830961
H   H785      1.0  0.69749  0.36649  0.43529  1.0000 0.1011830961
H   H786      1.0  0.86577  0.32174  0.38695  1.0000 0.1011830961
H   H787      1.0  0.79634  0.29999  0.43236  1.0000 0.1011830961
H   H788      1.0  0.95064  0.17176  0.21061  1.0000 0.1011830961
H   H789      1.0  0.97918  0.19950  0.23842  1.0000 0.1011830961
H   H790      1.0  0.88199  0.15579  0.25374  1.0000 0.1011830961
H   H791      1.0  0.84203  0.17998  0.24241  1.0000 0.1011830961
H   H792      1.0  0.83819  0.16567  0.32917  1.0000 0.1011830961
H   H793      1.0  0.79849  0.18961  0.31797  1.0000 0.1011830961
H   H794      1.0  0.77561  0.27242  0.34107  1.0000 0.1011830961
H   H795      1.0  0.75951  0.25665  0.32549  1.0000 0.1011830961
H   H796      1.0  0.90802  0.31059  0.25730  1.0000 0.1011830961
H   H797      1.0  0.93376  0.30483  0.21452  1.0000 0.1011830961
H   H798      1.0  0.84363  0.36814  0.22928  1.0000 0.1011830961
H   H799      1.0  0.86898  0.36260  0.18711  1.0000 0.1011830961
H   H800      1.0  0.53902  0.47622  0.40729  1.0000 0.1011830961
H   H801      1.0  0.51532  0.40917  0.34037  1.0000 0.1011830961
H   H802      1.0  0.50073  0.43529  0.36649  1.0000 0.1011830961
H   H803      1.0  0.42554  0.38695  0.32174  1.0000 0.1011830961
H   H804      1.0  0.47131  0.43236  0.29999  1.0000 0.1011830961
H   H805      1.0  0.66698  0.21061  0.17176  1.0000 0.1011830961
H   H806      1.0  0.58290  0.23842  0.19950  1.0000 0.1011830961
H   H807      1.0  0.70849  0.25374  0.15579  1.0000 0.1011830961
H   H808      1.0  0.73557  0.24241  0.17998  1.0000 0.1011830961
H   H809      1.0  0.66698  0.32917  0.16567  1.0000 0.1011830961
H   H810      1.0  0.69394  0.31797  0.18961  1.0000 0.1011830961
H   H811      1.0  0.61090  0.34107  0.27242  1.0000 0.1011830961
H   H812      1.0  0.65835  0.32549  0.25665  1.0000 0.1011830961
H   H813      1.0  0.52408  0.25730  0.31059  1.0000 0.1011830961
H   H814      1.0  0.54690  0.21452  0.30483  1.0000 0.1011830961
H   H815      1.0  0.55895  0.22928  0.36814  1.0000 0.1011830961
H   H816      1.0  0.58131  0.18711  0.36260  1.0000 0.1011830961
C   C1        1.0  0.42240  0.46092  0.54723  1.0000 -0.0905960428
C   C2        1.0  0.36102  0.39955  0.51247  1.0000 -0.1096123868
C   C3        1.0  0.37603  0.41455  0.50403  1.0000 -0.1096123868
C   C4        1.0  0.31679  0.40521  0.42746  1.0000 -0.1096123868
C   C5        1.0  0.31227  0.38220  0.47489  1.0000 0.611545194
C   C6        1.0  0.31089  0.40641  0.45167  1.0000 -0.0525003773
C   C7        1.0  0.30458  0.43068  0.45304  1.0000 -0.1096123868
C   C8        1.0  0.18594  0.20837  0.64843  1.0000 -0.1096123868
C   C9        1.0  0.15936  0.25305  0.62501  1.0000 0.6173712273
C   C10       1.0  0.18218  0.22795  0.62494  1.0000 -0.0428761903
C   C11       1.0  0.20145  0.22390  0.60143  1.0000 -0.1181568617
C   C12       1.0  0.16297  0.26799  0.70516  1.0000 -0.1181568617
C   C13       1.0  0.14404  0.29961  0.66831  1.0000 0.611545194
C   C14       1.0  0.15870  0.29240  0.68530  1.0000 -0.0428761903
C   C15       1.0  0.17681  0.26152  0.72083  1.0000 -0.1181568617
C   C16       1.0  0.20310  0.27199  0.73261  1.0000 0.611545194
C   C17       1.0  0.18675  0.27927  0.71726  1.0000 -0.0428761903
C   C18       1.0  0.16851  0.31016  0.68190  1.0000 -0.1181568617
C   C19       1.0  0.18222  0.30374  0.69757  1.0000 -0.1096123868
C   C20       1.0  0.28425  0.32264  0.62099  1.0000 -0.1181568617
C   C21       1.0  0.27520  0.31363  0.64841  1.0000 -0.0905960428
C   C22       1.0  0.32224  0.24194  0.53632  1.0000 -0.1096123868
C   C23       1.0  0.34166  0.27304  0.52830  1.0000 0.6038165048
C   C24       1.0  0.33972  0.24672  0.53987  1.0000 -0.0525003773
C   C25       1.0  0.31889  0.21750  0.54938  1.0000 -0.1096123868
C   C26       1.0  0.07796  0.33257  0.66808  1.0000 0.6038165048
C   C27       1.0  0.33299  0.19747  0.56615  1.0000 -0.0525003773
C   C28       1.0  0.35438  0.22638  0.55592  1.0000 -0.1096123868
C   C29       1.0  0.35111  0.20213  0.56881  1.0000 -0.1096123868
C   C30       1.0  0.46092  0.42240  0.56944  1.0000 -0.0905960428
C   C31       1.0  0.39955  0.36102  0.72696  1.0000 -0.1096123868
C   C32       1.0  0.41455  0.37603  0.70539  1.0000 -0.1096123868
C   C33       1.0  0.40521  0.31679  0.85054  1.0000 -0.1096123868
C   C34       1.0  0.38220  0.31227  0.83063  1.0000 0.611545194
C   C35       1.0  0.40641  0.31089  0.83104  1.0000 -0.0525003773
C   C36       1.0  0.43068  0.30458  0.81170  1.0000 -0.1096123868
C   C37       1.0  0.20837  0.18594  0.95726  1.0000 -0.1096123868
C   C38       1.0  0.25305  0.15936  0.96258  1.0000 0.6173712273
C   C39       1.0  0.22795  0.18218  0.96494  1.0000 -0.0428761903
C   C40       1.0  0.22390  0.20145  0.97322  1.0000 -0.1181568617
C   C41       1.0  0.26799  0.16297  0.86389  1.0000 -0.1181568617
C   C42       1.0  0.29961  0.14404  0.88804  1.0000 0.611545194
C   C43       1.0  0.29240  0.15870  0.86360  1.0000 -0.0428761903
C   C44       1.0  0.26152  0.17681  0.84085  1.0000 -0.1181568617
C   C45       1.0  0.27199  0.20310  0.79230  1.0000 0.611545194
C   C46       1.0  0.27927  0.18675  0.81672  1.0000 -0.0428761903
C   C47       1.0  0.31016  0.16851  0.83943  1.0000 -0.1181568617
C   C48       1.0  0.30374  0.18222  0.81647  1.0000 -0.1096123868
C   C49       1.0  0.32264  0.28425  0.77212  1.0000 -0.1181568617
C   C50       1.0  0.31363  0.27520  0.76276  1.0000 -0.0905960428
C   C51       1.0  0.24194  0.32224  0.89950  1.0000 -0.1096123868
C   C52       1.0  0.27304  0.34166  0.85700  1.0000 0.6038165048
C   C53       1.0  0.24672  0.33972  0.87369  1.0000 -0.0525003773
C   C54       1.0  0.21750  0.31889  0.91423  1.0000 -0.1096123868
C   C55       1.0  0.33257  0.07796  0.92138  1.0000 0.6038165048
C   C56       1.0  0.19747  0.33299  0.90339  1.0000 -0.0525003773
C   C57       1.0  0.22638  0.35438  0.86331  1.0000 -0.1096123868
C   C58       1.0  0.20213  0.35111  0.87794  1.0000 -0.1096123868
C   C59       1.0  0.54723  0.56944  0.42240  1.0000 -0.0905960428
C   C60       1.0  0.51247  0.72696  0.36102  1.0000 -0.1096123868
C   C61       1.0  0.50403  0.70539  0.37603  1.0000 -0.1096123868
C   C62       1.0  0.42746  0.85054  0.31679  1.0000 -0.1096123868
C   C63       1.0  0.47489  0.83063  0.31227  1.0000 0.611545194
C   C64       1.0  0.45167  0.83104  0.31089  1.0000 -0.0525003773
C   C65       1.0  0.45304  0.81170  0.30458  1.0000 -0.1096123868
C   C66       1.0  0.64843  0.95726  0.18594  1.0000 -0.1096123868
C   C67       1.0  0.62501  0.96258  0.15936  1.0000 0.6173712273
C   C68       1.0  0.62494  0.96494  0.18218  1.0000 -0.0428761903
C   C69       1.0  0.60143  0.97322  0.20145  1.0000 -0.1181568617
C   C70       1.0  0.70516  0.86389  0.16297  1.0000 -0.1181568617
C   C71       1.0  0.66831  0.88804  0.14404  1.0000 0.611545194
C   C72       1.0  0.68530  0.86360  0.15870  1.0000 -0.0428761903
C   C73       1.0  0.72083  0.84085  0.17681  1.0000 -0.1181568617
C   C74       1.0  0.73261  0.79230  0.20310  1.0000 0.611545194
C   C75       1.0  0.71726  0.81672  0.18675  1.0000 -0.0428761903
C   C76       1.0  0.68190  0.83943  0.16851  1.0000 -0.1181568617
C   C77       1.0  0.69757  0.81647  0.18222  1.0000 -0.1181568617
C   C78       1.0  0.62099  0.77212  0.28425  1.0000 -0.1181568617
C   C79       1.0  0.64841  0.76276  0.27520  1.0000 -0.0905960428
C   C80       1.0  0.53632  0.89950  0.32224  1.0000 -0.1096123868
C   C81       1.0  0.52830  0.85700  0.34166  1.0000 0.6038165048
C   C82       1.0  0.53987  0.87369  0.33972  1.0000 -0.0560962171
C   C83       1.0  0.54938  0.91423  0.31889  1.0000 -0.1096123868
C   C84       1.0  0.66808  0.92138  0.07796  1.0000 0.6038165048
C   C85       1.0  0.56615  0.90339  0.33299  1.0000 -0.0525003773
C   C86       1.0  0.55592  0.86331  0.35438  1.0000 -0.1096123868
C   C87       1.0  0.56881  0.87794  0.35111  1.0000 -0.1096123868
C   C88       1.0  0.56944  0.54723  0.46092  1.0000 -0.0905960428
C   C89       1.0  0.72696  0.51247  0.39955  1.0000 -0.1096123868
C   C90       1.0  0.70539  0.50403  0.41455  1.0000 -0.1096123868
C   C91       1.0  0.85054  0.42746  0.40521  1.0000 -0.1096123868
C   C92       1.0  0.83063  0.47489  0.38220  1.0000 0.611545194
C   C93       1.0  0.83104  0.45167  0.40641  1.0000 -0.0525003773
C   C94       1.0  0.81170  0.45304  0.43068  1.0000 -0.1096123868
C   C95       1.0  0.95726  0.64843  0.20837  1.0000 -0.1096123868
C   C96       1.0  0.96258  0.62501  0.25305  1.0000 0.6173712273
C   C97       1.0  0.96494  0.62494  0.22795  1.0000 -0.0428761903
C   C98       1.0  0.97322  0.60143  0.22390  1.0000 -0.1181568617
C   C99       1.0  0.86389  0.70516  0.26799  1.0000 -0.1181568617
C   C100      1.0  0.88804  0.66831  0.29961  1.0000 0.611545194
C   C101      1.0  0.86360  0.68530  0.29240  1.0000 -0.0428761903
C   C102      1.0  0.84085  0.72083  0.26152  1.0000 -0.1181568617
C   C103      1.0  0.79230  0.73261  0.27199  1.0000 0.611545194
C   C104      1.0  0.81672  0.71726  0.27927  1.0000 -0.0428761903
C   C105      1.0  0.83943  0.68190  0.31016  1.0000 -0.1181568617
C   C106      1.0  0.81647  0.69757  0.30374  1.0000 -0.1181568617
C   C107      1.0  0.77212  0.62099  0.32264  1.0000 -0.1181568617
C   C108      1.0  0.76276  0.64841  0.31363  1.0000 -0.0905960428
C   C109      1.0  0.89950  0.53632  0.24194  1.0000 -0.1096123868
C   C110      1.0  0.85700  0.52830  0.27304  1.0000 0.6038165048
C   C111      1.0  0.87369  0.53987  0.24672  1.0000 -0.0525003773
C   C112      1.0  0.91423  0.54938  0.21750  1.0000 -0.1096123868
C   C113      1.0  0.92138  0.66808  0.33257  1.0000 0.6038165048
C   C114      1.0  0.90339  0.56615  0.19747  1.0000 -0.0525003773
C   C115      1.0  0.86331  0.55592  0.22638  1.0000 -0.1096123868
C   C116      1.0  0.87794  0.56881  0.20213  1.0000 -0.1026087756
C   C117      1.0  0.54723  0.42240  0.46092  1.0000 -0.0905960428
C   C118      1.0  0.51247  0.36102  0.39955  1.0000 -0.1096123868
C   C119      1.0  0.50403  0.37603  0.41455  1.0000 -0.1096123868
C   C120      1.0  0.42746  0.31679  0.40521  1.0000 -0.1096123868
C   C121      1.0  0.47489  0.31227  0.38220  1.0000 0.611545194
C   C122      1.0  0.45167  0.31089  0.40641  1.0000 -0.0525003773
C   C123      1.0  0.45304  0.30458  0.43068  1.0000 -0.1096123868
C   C124      1.0  0.64843  0.18594  0.20837  1.0000 -0.1096123868
C   C125      1.0  0.62501  0.15936  0.25305  1.0000 0.6173712273
C   C126      1.0  0.62494  0.18218  0.22795  1.0000 -0.0428761903
C   C127      1.0  0.60143  0.20145  0.22390  1.0000 -0.1181568617
C   C128      1.0  0.70516  0.16297  0.26799  1.0000 -0.1181568617
C   C129      1.0  0.66831  0.14404  0.29961  1.0000 0.611545194
C   C130      1.0  0.68530  0.15870  0.29240  1.0000 -0.0428761903
C   C131      1.0  0.72083  0.17681  0.26152  1.0000 -0.1181568617
C   C132      1.0  0.73261  0.20310  0.27199  1.0000 0.611545194
C   C133      1.0  0.71726  0.18675  0.27927  1.0000 -0.0428761903
C   C134      1.0  0.68190  0.16851  0.31016  1.0000 -0.1181568617
C   C135      1.0  0.69757  0.18222  0.30374  1.0000 -0.1096123868
C   C136      1.0  0.62099  0.28425  0.32264  1.0000 -0.1181568617
C   C137      1.0  0.64841  0.27520  0.31363  1.0000 -0.0905960428
C   C138      1.0  0.53632  0.32224  0.24194  1.0000 -0.1096123868
C   C139      1.0  0.52830  0.34166  0.27304  1.0000 0.6038165048
C   C140      1.0  0.53987  0.33972  0.24672  1.0000 -0.0525003773
C   C141      1.0  0.54938  0.31889  0.21750  1.0000 -0.1096123868
C   C142      1.0  0.66808  0.07796  0.33257  1.0000 0.6038165048
C   C143      1.0  0.56615  0.33299  0.19747  1.0000 -0.0525003773
C   C144      1.0  0.55592  0.35438  0.22638  1.0000 -0.1096123868
C   C145      1.0  0.56881  0.35111  0.20213  1.0000 -0.1096123868
C   C146      1.0  0.56944  0.46092  0.42240  1.0000 -0.0905960428
C   C147      1.0  0.72696  0.39955  0.36102  1.0000 -0.1096123868
C   C148      1.0  0.70539  0.41455  0.37603  1.0000 -0.1096123868
C   C149      1.0  0.85054  0.40521  0.31679  1.0000 -0.1096123868
C   C150      1.0  0.83063  0.38220  0.31227  1.0000 0.611545194
C   C151      1.0  0.83104  0.40641  0.31089  1.0000 -0.0525003773
C   C152      1.0  0.81170  0.43068  0.30458  1.0000 -0.1096123868
C   C153      1.0  0.95726  0.20837  0.18594  1.0000 -0.1096123868
C   C154      1.0  0.96258  0.25305  0.15936  1.0000 0.6173712273
C   C155      1.0  0.96494  0.22795  0.18218  1.0000 -0.0428761903
C   C156      1.0  0.97322  0.22390  0.20145  1.0000 -0.1181568617
C   C157      1.0  0.86389  0.26799  0.16297  1.0000 -0.1181568617
C   C158      1.0  0.88804  0.29961  0.14404  1.0000 0.611545194
C   C159      1.0  0.86360  0.29240  0.15870  1.0000 -0.0428761903
C   C160      1.0  0.84085  0.26152  0.17681  1.0000 -0.1181568617
C   C161      1.0  0.79230  0.27199  0.20310  1.0000 0.611545194
C   C162      1.0  0.81672  0.27927  0.18675  1.0000 -0.0428761903
C   C163      1.0  0.83943  0.31016  0.16851  1.0000 -0.1181568617
C   C164      1.0  0.81647  0.30374  0.18222  1.0000 -0.1096123868
C   C165      1.0  0.77212  0.32264  0.28425  1.0000 -0.1181568617
C   C166      1.0  0.76276  0.31363  0.27520  1.0000 -0.0905960428
C   C167      1.0  0.89950  0.24194  0.32224  1.0000 -0.1096123868
C   C168      1.0  0.85700  0.27304  0.34166  1.0000 0.6038165048
C   C169      1.0  0.87369  0.24672  0.33972  1.0000 -0.0560962171
C   C170      1.0  0.91423  0.21750  0.31889  1.0000 -0.1096123868
C   C171      1.0  0.92138  0.33257  0.07796  1.0000 0.6038165048
C   C172      1.0  0.90339  0.19747  0.33299  1.0000 -0.0525003773
C   C173      1.0  0.86331  0.22638  0.35438  1.0000 -0.1096123868
C   C174      1.0  0.87794  0.20213  0.35111  1.0000 -0.1096123868
C   C175      1.0  0.42240  0.54723  0.56944  1.0000 -0.0905960428
C   C176      1.0  0.36102  0.51247  0.72696  1.0000 -0.1096123868
C   C177      1.0  0.37603  0.50403  0.70539  1.0000 -0.1096123868
C   C178      1.0  0.31679  0.42746  0.85054  1.0000 -0.1096123868
C   C179      1.0  0.31227  0.47489  0.83063  1.0000 0.611545194
C   C180      1.0  0.31089  0.45167  0.83104  1.0000 -0.0525003773
C   C181      1.0  0.30458  0.45304  0.81170  1.0000 -0.1096123868
C   C182      1.0  0.18594  0.64843  0.95726  1.0000 -0.1096123868
C   C183      1.0  0.15936  0.62501  0.96258  1.0000 0.6173712273
C   C184      1.0  0.18218  0.62494  0.96494  1.0000 -0.0428761903
C   C185      1.0  0.20145  0.60143  0.97322  1.0000 -0.1181568617
C   C186      1.0  0.16297  0.70516  0.86389  1.0000 -0.1181568617
C   C187      1.0  0.14404  0.66831  0.88804  1.0000 0.611545194
C   C188      1.0  0.15870  0.68530  0.86360  1.0000 -0.0428761903
C   C189      1.0  0.17681  0.72083  0.84085  1.0000 -0.1181568617
C   C190      1.0  0.20310  0.73261  0.79230  1.0000 0.611545194
C   C191      1.0  0.18675  0.71726  0.81672  1.0000 -0.0428761903
C   C192      1.0  0.16851  0.68190  0.83943  1.0000 -0.1181568617
C   C193      1.0  0.18222  0.69757  0.81647  1.0000 -0.1096123868
C   C194      1.0  0.28425  0.62099  0.77212  1.0000 -0.1181568617
C   C195      1.0  0.27520  0.64841  0.76276  1.0000 -0.0905960428
C   C196      1.0  0.32224  0.53632  0.89950  1.0000 -0.1096123868
C   C197      1.0  0.34166  0.52830  0.85700  1.0000 0.6038165048
C   C198      1.0  0.33972  0.53987  0.87369  1.0000 -0.0525003773
C   C199      1.0  0.31889  0.54938  0.91423  1.0000 -0.1096123868
C   C200      1.0  0.07796  0.66808  0.92138  1.0000 0.6038165048
C   C201      1.0  0.33299  0.56615  0.90339  1.0000 -0.0525003773
C   C202      1.0  0.35438  0.55592  0.86331  1.0000 -0.1096123868
C   C203      1.0  0.35111  0.56881  0.87794  1.0000 -0.1096123868
C   C204      1.0  0.46092  0.56944  0.54723  1.0000 -0.0905960428
C   C205      1.0  0.39955  0.72696  0.51247  1.0000 -0.1096123868
C   C206      1.0  0.41455  0.70539  0.50403  1.0000 -0.1096123868
C   C207      1.0  0.40521  0.85054  0.42746  1.0000 -0.1096123868
C   C208      1.0  0.38220  0.83063  0.47489  1.0000 0.611545194
C   C209      1.0  0.40641  0.83104  0.45167  1.0000 -0.0525003773
C   C210      1.0  0.43068  0.81170  0.45304  1.0000 -0.1096123868
C   C211      1.0  0.20837  0.95726  0.64843  1.0000 -0.1096123868
C   C212      1.0  0.25305  0.96258  0.62501  1.0000 0.6173712273
C   C213      1.0  0.22795  0.96494  0.62494  1.0000 -0.0428761903
C   C214      1.0  0.22390  0.97322  0.60143  1.0000 -0.1181568617
C   C215      1.0  0.26799  0.86389  0.70516  1.0000 -0.1181568617
C   C216      1.0  0.29961  0.88804  0.66831  1.0000 0.611545194
C   C217      1.0  0.29240  0.86360  0.68530  1.0000 -0.0428761903
C   C218      1.0  0.26152  0.84085  0.72083  1.0000 -0.1181568617
C   C219      1.0  0.27199  0.79230  0.73261  1.0000 0.611545194
C   C220      1.0  0.27927  0.81672  0.71726  1.0000 -0.0428761903
C   C221      1.0  0.31016  0.83943  0.68190  1.0000 -0.1181568617
C   C222      1.0  0.30374  0.81647  0.69757  1.0000 -0.1096123868
C   C223      1.0  0.32264  0.77212  0.62099  1.0000 -0.1181568617
C   C224      1.0  0.31363  0.76276  0.64841  1.0000 -0.0905960428
C   C225      1.0  0.24194  0.89950  0.53632  1.0000 -0.1096123868
C   C226      1.0  0.27304  0.85700  0.52830  1.0000 0.6038165048
C   C227      1.0  0.24672  0.87369  0.53987  1.0000 -0.0525003773
C   C228      1.0  0.21750  0.91423  0.54938  1.0000 -0.1096123868
C   C229      1.0  0.33257  0.92138  0.66808  1.0000 0.6038165048
C   C230      1.0  0.19747  0.90339  0.56615  1.0000 -0.0525003773
C   C231      1.0  0.22638  0.86331  0.55592  1.0000 -0.1096123868
C   C232      1.0  0.20213  0.87794  0.56881  1.0000 -0.1096123868
C   C233      1.0  0.46092  0.54723  0.42240  1.0000 -0.0905960428
C   C234      1.0  0.39955  0.51247  0.36102  1.0000 -0.1096123868
C   C235      1.0  0.41455  0.50403  0.37603  1.0000 -0.1096123868
C   C236      1.0  0.40521  0.42746  0.31679  1.0000 -0.1096123868
C   C237      1.0  0.38220  0.47489  0.31227  1.0000 0.611545194
C   C238      1.0  0.40641  0.45167  0.31089  1.0000 -0.0525003773
C   C239      1.0  0.43068  0.45304  0.30458  1.0000 -0.1096123868
C   C240      1.0  0.20837  0.64843  0.18594  1.0000 -0.1096123868
C   C241      1.0  0.25305  0.62501  0.15936  1.0000 0.6173712273
C   C242      1.0  0.22795  0.62494  0.18218  1.0000 -0.0428761903
C   C243      1.0  0.22390  0.60143  0.20145  1.0000 -0.1181568617
C   C244      1.0  0.26799  0.70516  0.16297  1.0000 -0.1181568617
C   C245      1.0  0.29961  0.66831  0.14404  1.0000 0.611545194
C   C246      1.0  0.29240  0.68530  0.15870  1.0000 -0.0428761903
C   C247      1.0  0.26152  0.72083  0.17681  1.0000 -0.1181568617
C   C248      1.0  0.27199  0.73261  0.20310  1.0000 0.611545194
C   C249      1.0  0.27927  0.71726  0.18675  1.0000 -0.0428761903
C   C250      1.0  0.31016  0.68190  0.16851  1.0000 -0.1181568617
C   C251      1.0  0.30374  0.69757  0.18222  1.0000 -0.1096123868
C   C252      1.0  0.32264  0.62099  0.28425  1.0000 -0.1181568617
C   C253      1.0  0.31363  0.64841  0.27520  1.0000 -0.0905960428
C   C254      1.0  0.24194  0.53632  0.32224  1.0000 -0.1096123868
C   C255      1.0  0.27304  0.52830  0.34166  1.0000 0.6038165048
C   C256      1.0  0.24672  0.53987  0.33972  1.0000 -0.0525003773
C   C257      1.0  0.21750  0.54938  0.31889  1.0000 -0.1096123868
C   C258      1.0  0.33257  0.66808  0.07796  1.0000 0.6038165048
C   C259      1.0  0.19747  0.56615  0.33299  1.0000 -0.0525003773
C   C260      1.0  0.22638  0.55592  0.35438  1.0000 -0.1096123868
C   C261      1.0  0.20213  0.56881  0.35111  1.0000 -0.1096123868
C   C262      1.0  0.42240  0.56944  0.46092  1.0000 -0.0905960428
C   C263      1.0  0.36102  0.72696  0.39955  1.0000 -0.1096123868
C   C264      1.0  0.37603  0.70539  0.41455  1.0000 -0.1096123868
C   C265      1.0  0.31679  0.85054  0.40521  1.0000 -0.1096123868
C   C266      1.0  0.31227  0.83063  0.38220  1.0000 0.611545194
C   C267      1.0  0.31089  0.83104  0.40641  1.0000 -0.0525003773
C   C268      1.0  0.30458  0.81170  0.43068  1.0000 -0.1096123868
C   C269      1.0  0.18594  0.95726  0.20837  1.0000 -0.1096123868
C   C270      1.0  0.15936  0.96258  0.25305  1.0000 0.6173712273
C   C271      1.0  0.18218  0.96494  0.22795  1.0000 -0.0428761903
C   C272      1.0  0.20145  0.97322  0.22390  1.0000 -0.1181568617
C   C273      1.0  0.16297  0.86389  0.26799  1.0000 -0.1181568617
C   C274      1.0  0.14404  0.88804  0.29961  1.0000 0.611545194
C   C275      1.0  0.15870  0.86360  0.29240  1.0000 -0.0428761903
C   C276      1.0  0.17681  0.84085  0.26152  1.0000 -0.1181568617
C   C277      1.0  0.20310  0.79230  0.27199  1.0000 0.611545194
C   C278      1.0  0.18675  0.81672  0.27927  1.0000 -0.0428761903
C   C279      1.0  0.16851  0.83943  0.31016  1.0000 -0.1181568617
C   C280      1.0  0.18222  0.81647  0.30374  1.0000 -0.1181568617
C   C281      1.0  0.28425  0.77212  0.32264  1.0000 -0.1181568617
C   C282      1.0  0.27520  0.76276  0.31363  1.0000 -0.0905960428
C   C283      1.0  0.32224  0.89950  0.24194  1.0000 -0.1096123868
C   C284      1.0  0.34166  0.85700  0.27304  1.0000 0.6038165048
C   C285      1.0  0.33972  0.87369  0.24672  1.0000 -0.0525003773
C   C286      1.0  0.31889  0.91423  0.21750  1.0000 -0.1096123868
C   C287      1.0  0.07796  0.92138  0.33257  1.0000 0.6038165048
C   C288      1.0  0.33299  0.90339  0.19747  1.0000 -0.0525003773
C   C289      1.0  0.35438  0.86331  0.22638  1.0000 -0.1096123868
C   C290      1.0  0.35111  0.87794  0.20213  1.0000 -0.1096123868
C   C291      1.0  0.56944  0.42240  0.54723  1.0000 -0.0905960428
C   C292      1.0  0.72696  0.36102  0.51247  1.0000 -0.1096123868
C   C293      1.0  0.70539  0.37603  0.50403  1.0000 -0.1096123868
C   C294      1.0  0.85054  0.31679  0.42746  1.0000 -0.1096123868
C   C295      1.0  0.83063  0.31227  0.47489  1.0000 0.611545194
C   C296      1.0  0.83104  0.31089  0.45167  1.0000 -0.0525003773
C   C297      1.0  0.81170  0.30458  0.45304  1.0000 -0.1096123868
C   C298      1.0  0.95726  0.18594  0.64843  1.0000 -0.1096123868
C   C299      1.0  0.96258  0.15936  0.62501  1.0000 0.6173712273
C   C300      1.0  0.96494  0.18218  0.62494  1.0000 -0.0428761903
C   C301      1.0  0.97322  0.20145  0.60143  1.0000 -0.1181568617
C   C302      1.0  0.86389  0.16297  0.70516  1.0000 -0.1181568617
C   C303      1.0  0.88804  0.14404  0.66831  1.0000 0.611545194
C   C304      1.0  0.86360  0.15870  0.68530  1.0000 -0.0428761903
C   C305      1.0  0.84085  0.17681  0.72083  1.0000 -0.1181568617
C   C306      1.0  0.79230  0.20310  0.73261  1.0000 0.611545194
C   C307      1.0  0.81672  0.18675  0.71726  1.0000 -0.0428761903
C   C308      1.0  0.83943  0.16851  0.68190  1.0000 -0.1181568617
C   C309      1.0  0.81647  0.18222  0.69757  1.0000 -0.1096123868
C   C310      1.0  0.77212  0.28425  0.62099  1.0000 -0.1181568617
C   C311      1.0  0.76276  0.27520  0.64841  1.0000 -0.0905960428
C   C312      1.0  0.89950  0.32224  0.53632  1.0000 -0.1096123868
C   C313      1.0  0.85700  0.34166  0.52830  1.0000 0.6038165048
C   C314      1.0  0.87369  0.33972  0.53987  1.0000 -0.0525003773
C   C315      1.0  0.91423  0.31889  0.54938  1.0000 -0.1096123868
C   C316      1.0  0.92138  0.07796  0.66808  1.0000 0.6038165048
C   C317      1.0  0.90339  0.33299  0.56615  1.0000 -0.0525003773
C   C318      1.0  0.86331  0.35438  0.55592  1.0000 -0.1096123868
C   C319      1.0  0.87794  0.35111  0.56881  1.0000 -0.1096123868
C   C320      1.0  0.54723  0.46092  0.56944  1.0000 -0.0905960428
C   C321      1.0  0.51247  0.39955  0.72696  1.0000 -0.1096123868
C   C322      1.0  0.50403  0.41455  0.70539  1.0000 -0.1096123868
C   C323      1.0  0.42746  0.40521  0.85054  1.0000 -0.1096123868
C   C324      1.0  0.47489  0.38220  0.83063  1.0000 0.611545194
C   C325      1.0  0.45167  0.40641  0.83104  1.0000 -0.0525003773
C   C326      1.0  0.45304  0.43068  0.81170  1.0000 -0.1096123868
C   C327      1.0  0.64843  0.20837  0.95726  1.0000 -0.1096123868
C   C328      1.0  0.62501  0.25305  0.96258  1.0000 0.6173712273
C   C329      1.0  0.62494  0.22795  0.96494  1.0000 -0.0428761903
C   C330      1.0  0.60143  0.22390  0.97322  1.0000 -0.1181568617
C   C331      1.0  0.70516  0.26799  0.86389  1.0000 -0.1181568617
C   C332      1.0  0.66831  0.29961  0.88804  1.0000 0.611545194
C   C333      1.0  0.68530  0.29240  0.86360  1.0000 -0.0428761903
C   C334      1.0  0.72083  0.26152  0.84085  1.0000 -0.1181568617
C   C335      1.0  0.73261  0.27199  0.79230  1.0000 0.611545194
C   C336      1.0  0.71726  0.27927  0.81672  1.0000 -0.0428761903
C   C337      1.0  0.68190  0.31016  0.83943  1.0000 -0.1181568617
C   C338      1.0  0.69757  0.30374  0.81647  1.0000 -0.1096123868
C   C339      1.0  0.62099  0.32264  0.77212  1.0000 -0.1181568617
C   C340      1.0  0.64841  0.31363  0.76276  1.0000 -0.0905960428
C   C341      1.0  0.53632  0.24194  0.89950  1.0000 -0.1096123868
C   C342      1.0  0.52830  0.27304  0.85700  1.0000 0.6038165048
C   C343      1.0  0.53987  0.24672  0.87369  1.0000 -0.0525003773
C   C344      1.0  0.54938  0.21750  0.91423  1.0000 -0.1096123868
C   C345      1.0  0.66808  0.33257  0.92138  1.0000 0.6038165048
C   C346      1.0  0.56615  0.19747  0.90339  1.0000 -0.0525003773
C   C347      1.0  0.55592  0.22638  0.86331  1.0000 -0.1096123868
C   C348      1.0  0.56881  0.20213  0.87794  1.0000 -0.1096123868
C   C349      1.0  0.82760  0.78908  0.68056  1.0000 -0.0905960428
C   C350      1.0  0.88898  0.85045  0.52304  1.0000 -0.1096123868
C   C351      1.0  0.87397  0.83545  0.54461  1.0000 -0.1096123868
C   C352      1.0  0.93321  0.84479  0.39946  1.0000 -0.1096123868
C   C353      1.0  0.93773  0.86780  0.41937  1.0000 0.611545194
C   C354      1.0  0.93911  0.84359  0.41896  1.0000 -0.0525003773
C   C355      1.0  0.94542  0.81932  0.43830  1.0000 -0.1096123868
C   C356      1.0  0.06406  0.04163  0.29274  1.0000 -0.1181568617
C   C357      1.0  0.09064  0.99695  0.28742  1.0000 0.6173712273
C   C358      1.0  0.06782  0.02205  0.28506  1.0000 -0.0428761903
C   C359      1.0  0.04855  0.02610  0.27678  1.0000 -0.1181568617
C   C360      1.0  0.08703  0.98201  0.38611  1.0000 -0.1181568617
C   C361      1.0  0.10596  0.95039  0.36196  1.0000 0.611545194
C   C362      1.0  0.09130  0.95760  0.38640  1.0000 -0.0428761903
C   C363      1.0  0.07319  0.98848  0.40915  1.0000 -0.1181568617
C   C364      1.0  0.04690  0.97801  0.45770  1.0000 0.611545194
C   C365      1.0  0.06325  0.97073  0.43328  1.0000 -0.0428761903
C   C366      1.0  0.08149  0.93984  0.41057  1.0000 -0.1181568617
C   C367      1.0  0.06778  0.94626  0.43353  1.0000 -0.1181568617
C   C368      1.0  0.96575  0.92736  0.47788  1.0000 -0.1181568617
C   C369      1.0  0.97480  0.93637  0.48724  1.0000 -0.0905960428
C   C370      1.0  0.92776  0.00806  0.35050  1.0000 -0.1096123868
C   C371      1.0  0.90834  0.97696  0.39300  1.0000 0.6038165048
C   C372      1.0  0.91028  0.00328  0.37631  1.0000 -0.0525003773
C   C373      1.0  0.93111  0.03250  0.33577  1.0000 -0.1096123868
C   C374      1.0  0.17204  0.91743  0.32862  1.0000 0.6038165048
C   C375      1.0  0.91701  0.05253  0.34661  1.0000 -0.0525003773
C   C376      1.0  0.89562  0.02362  0.38669  1.0000 -0.1096123868
C   C377      1.0  0.89889  0.04787  0.37206  1.0000 -0.1096123868
C   C378      1.0  0.78908  0.82760  0.70277  1.0000 -0.0905960428
C   C379      1.0  0.85045  0.88898  0.73753  1.0000 -0.1096123868
C   C380      1.0  0.83545  0.87397  0.74597  1.0000 -0.1096123868
C   C381      1.0  0.84479  0.93321  0.82254  1.0000 -0.1096123868
C   C382      1.0  0.86780  0.93773  0.77511  1.0000 0.611545194
C   C383      1.0  0.84359  0.93911  0.79833  1.0000 -0.0525003773
C   C384      1.0  0.81932  0.94542  0.79696  1.0000 -0.1096123868
C   C385      1.0  0.04163  0.06406  0.60157  1.0000 -0.1181568617
C   C386      1.0  0.99695  0.09064  0.62499  1.0000 0.6173712273
C   C387      1.0  0.02205  0.06782  0.62506  1.0000 -0.0428761903
C   C388      1.0  0.02610  0.04855  0.64857  1.0000 -0.1181568617
C   C389      1.0  0.98201  0.08703  0.54484  1.0000 -0.1181568617
C   C390      1.0  0.95039  0.10596  0.58169  1.0000 0.611545194
C   C391      1.0  0.95760  0.09130  0.56470  1.0000 -0.0428761903
C   C392      1.0  0.98848  0.07319  0.52917  1.0000 -0.1181568617
C   C393      1.0  0.97801  0.04690  0.51739  1.0000 0.611545194
C   C394      1.0  0.97073  0.06325  0.53274  1.0000 -0.0428761903
C   C395      1.0  0.93984  0.08149  0.56810  1.0000 -0.1181568617
C   C396      1.0  0.94626  0.06778  0.55243  1.0000 -0.1096123868
C   C397      1.0  0.92736  0.96575  0.62901  1.0000 -0.1181568617
C   C398      1.0  0.93637  0.97480  0.60159  1.0000 -0.0905960428
C   C399      1.0  0.00806  0.92776  0.71368  1.0000 -0.1096123868
C   C400      1.0  0.97696  0.90834  0.72170  1.0000 0.6038165048
C   C401      1.0  0.00328  0.91028  0.71013  1.0000 -0.0560962171
C   C402      1.0  0.03250  0.93111  0.70062  1.0000 -0.1096123868
C   C403      1.0  0.91743  0.17204  0.58192  1.0000 0.6038165048
C   C404      1.0  0.05253  0.91701  0.68385  1.0000 -0.0525003773
C   C405      1.0  0.02362  0.89562  0.69408  1.0000 -0.1096123868
C   C406      1.0  0.04787  0.89889  0.68119  1.0000 -0.1096123868
C   C407      1.0  0.70277  0.68056  0.78908  1.0000 -0.0905960428
C   C408      1.0  0.73753  0.52304  0.85045  1.0000 -0.1096123868
C   C409      1.0  0.74597  0.54461  0.83545  1.0000 -0.1096123868
C   C410      1.0  0.82254  0.39946  0.84479  1.0000 -0.1096123868
C   C411      1.0  0.77511  0.41937  0.86780  1.0000 0.611545194
C   C412      1.0  0.79833  0.41896  0.84359  1.0000 -0.0525003773
C   C413      1.0  0.79696  0.43830  0.81932  1.0000 -0.1096123868
C   C414      1.0  0.60157  0.29274  0.04163  1.0000 -0.1096123868
C   C415      1.0  0.62499  0.28742  0.99695  1.0000 0.6173712273
C   C416      1.0  0.62506  0.28506  0.02205  1.0000 -0.0428761903
C   C417      1.0  0.64857  0.27678  0.02610  1.0000 -0.1181568617
C   C418      1.0  0.54484  0.38611  0.98201  1.0000 -0.1181568617
C   C419      1.0  0.58169  0.36196  0.95039  1.0000 0.611545194
C   C420      1.0  0.56470  0.38640  0.95760  1.0000 -0.0428761903
C   C421      1.0  0.52917  0.40915  0.98848  1.0000 -0.1181568617
C   C422      1.0  0.51739  0.45770  0.97801  1.0000 0.611545194
C   C423      1.0  0.53274  0.43328  0.97073  1.0000 -0.0428761903
C   C424      1.0  0.56810  0.41057  0.93984  1.0000 -0.1181568617
C   C425      1.0  0.55243  0.43353  0.94626  1.0000 -0.1096123868
C   C426      1.0  0.62901  0.47788  0.92736  1.0000 -0.1181568617
C   C427      1.0  0.60159  0.48724  0.93637  1.0000 -0.0905960428
C   C428      1.0  0.71368  0.35050  0.00806  1.0000 -0.1096123868
C   C429      1.0  0.72170  0.39300  0.97696  1.0000 0.6038165048
C   C430      1.0  0.71013  0.37631  0.00328  1.0000 -0.0525003773
C   C431      1.0  0.70062  0.33577  0.03250  1.0000 -0.1096123868
C   C432      1.0  0.58192  0.32862  0.91743  1.0000 0.6038165048
C   C433      1.0  0.68385  0.34661  0.05253  1.0000 -0.0525003773
C   C434      1.0  0.69408  0.38669  0.02362  1.0000 -0.1096123868
C   C435      1.0  0.68119  0.37206  0.04787  1.0000 -0.1096123868
C   C436      1.0  0.68056  0.70277  0.82760  1.0000 -0.0905960428
C   C437      1.0  0.52304  0.73753  0.88898  1.0000 -0.1096123868
C   C438      1.0  0.54461  0.74597  0.87397  1.0000 -0.1096123868
C   C439      1.0  0.39946  0.82254  0.93321  1.0000 -0.1096123868
C   C440      1.0  0.41937  0.77511  0.93773  1.0000 0.611545194
C   C441      1.0  0.41896  0.79833  0.93911  1.0000 -0.0525003773
C   C442      1.0  0.43830  0.79696  0.94542  1.0000 -0.1096123868
C   C443      1.0  0.29274  0.60157  0.06406  1.0000 -0.1096123868
C   C444      1.0  0.28742  0.62499  0.09064  1.0000 0.6173712273
C   C445      1.0  0.28506  0.62506  0.06782  1.0000 -0.0428761903
C   C446      1.0  0.27678  0.64857  0.04855  1.0000 -0.1181568617
C   C447      1.0  0.38611  0.54484  0.08703  1.0000 -0.1181568617
C   C448      1.0  0.36196  0.58169  0.10596  1.0000 0.611545194
C   C449      1.0  0.38640  0.56470  0.09130  1.0000 -0.0428761903
C   C450      1.0  0.40915  0.52917  0.07319  1.0000 -0.1181568617
C   C451      1.0  0.45770  0.51739  0.04690  1.0000 0.611545194
C   C452      1.0  0.43328  0.53274  0.06325  1.0000 -0.0428761903
C   C453      1.0  0.41057  0.56810  0.08149  1.0000 -0.1181568617
C   C454      1.0  0.43353  0.55243  0.06778  1.0000 -0.1181568617
C   C455      1.0  0.47788  0.62901  0.96575  1.0000 -0.1181568617
C   C456      1.0  0.48724  0.60159  0.97480  1.0000 -0.0905960428
C   C457      1.0  0.35050  0.71368  0.92776  1.0000 -0.1096123868
C   C458      1.0  0.39300  0.72170  0.90834  1.0000 0.6038165048
C   C459      1.0  0.37631  0.71013  0.91028  1.0000 -0.0525003773
C   C460      1.0  0.33577  0.70062  0.93111  1.0000 -0.1096123868
C   C461      1.0  0.32862  0.58192  0.17204  1.0000 0.6038165048
C   C462      1.0  0.34661  0.68385  0.91701  1.0000 -0.0525003773
C   C463      1.0  0.38669  0.69408  0.89562  1.0000 -0.1096123868
C   C464      1.0  0.37206  0.68119  0.89889  1.0000 -0.1096123868
C   C465      1.0  0.70277  0.82760  0.68056  1.0000 -0.0905960428
C   C466      1.0  0.73753  0.88898  0.52304  1.0000 -0.1096123868
C   C467      1.0  0.74597  0.87397  0.54461  1.0000 -0.1096123868
C   C468      1.0  0.82254  0.93321  0.39946  1.0000 -0.1096123868
C   C469      1.0  0.77511  0.93773  0.41937  1.0000 0.611545194
C   C470      1.0  0.79833  0.93911  0.41896  1.0000 -0.0525003773
C   C471      1.0  0.79696  0.94542  0.43830  1.0000 -0.1096123868
C   C472      1.0  0.60157  0.06406  0.29274  1.0000 -0.1096123868
C   C473      1.0  0.62499  0.09064  0.28742  1.0000 0.6173712273
C   C474      1.0  0.62506  0.06782  0.28506  1.0000 -0.0428761903
C   C475      1.0  0.64857  0.04855  0.27678  1.0000 -0.1181568617
C   C476      1.0  0.54484  0.08703  0.38611  1.0000 -0.1181568617
C   C477      1.0  0.58169  0.10596  0.36196  1.0000 0.611545194
C   C478      1.0  0.56470  0.09130  0.38640  1.0000 -0.0428761903
C   C479      1.0  0.52917  0.07319  0.40915  1.0000 -0.1181568617
C   C480      1.0  0.51739  0.04690  0.45770  1.0000 0.611545194
C   C481      1.0  0.53274  0.06325  0.43328  1.0000 -0.0428761903
C   C482      1.0  0.56810  0.08149  0.41057  1.0000 -0.1181568617
C   C483      1.0  0.55243  0.06778  0.43353  1.0000 -0.1181568617
C   C484      1.0  0.62901  0.96575  0.47788  1.0000 -0.1181568617
C   C485      1.0  0.60159  0.97480  0.48724  1.0000 -0.0905960428
C   C486      1.0  0.71368  0.92776  0.35050  1.0000 -0.1096123868
C   C487      1.0  0.72170  0.90834  0.39300  1.0000 0.6038165048
C   C488      1.0  0.71013  0.91028  0.37631  1.0000 -0.0560962171
C   C489      1.0  0.70062  0.93111  0.33577  1.0000 -0.1096123868
C   C490      1.0  0.58192  0.17204  0.32862  1.0000 0.6038165048
C   C491      1.0  0.68385  0.91701  0.34661  1.0000 -0.0525003773
C   C492      1.0  0.69408  0.89562  0.38669  1.0000 -0.1096123868
C   C493      1.0  0.68119  0.89889  0.37206  1.0000 -0.1096123868
C   C494      1.0  0.68056  0.78908  0.70277  1.0000 -0.0905960428
C   C495      1.0  0.52304  0.85045  0.73753  1.0000 -0.1096123868
C   C496      1.0  0.54461  0.83545  0.74597  1.0000 -0.1096123868
C   C497      1.0  0.39946  0.84479  0.82254  1.0000 -0.1096123868
C   C498      1.0  0.41937  0.86780  0.77511  1.0000 0.611545194
C   C499      1.0  0.41896  0.84359  0.79833  1.0000 -0.0525003773
C   C500      1.0  0.43830  0.81932  0.79696  1.0000 -0.1096123868
C   C501      1.0  0.29274  0.04163  0.60157  1.0000 -0.1096123868
C   C502      1.0  0.28742  0.99695  0.62499  1.0000 0.6173712273
C   C503      1.0  0.28506  0.02205  0.62506  1.0000 -0.0428761903
C   C504      1.0  0.27678  0.02610  0.64857  1.0000 -0.1181568617
C   C505      1.0  0.38611  0.98201  0.54484  1.0000 -0.1181568617
C   C506      1.0  0.36196  0.95039  0.58169  1.0000 0.611545194
C   C507      1.0  0.38640  0.95760  0.56470  1.0000 -0.0428761903
C   C508      1.0  0.40915  0.98848  0.52917  1.0000 -0.1181568617
C   C509      1.0  0.45770  0.97801  0.51739  1.0000 0.611545194
C   C510      1.0  0.43328  0.97073  0.53274  1.0000 -0.0428761903
C   C511      1.0  0.41057  0.93984  0.56810  1.0000 -0.1181568617
C   C512      1.0  0.43353  0.94626  0.55243  1.0000 -0.1096123868
C   C513      1.0  0.47788  0.92736  0.62901  1.0000 -0.1181568617
C   C514      1.0  0.48724  0.93637  0.60159  1.0000 -0.0905960428
C   C515      1.0  0.35050  0.00806  0.71368  1.0000 -0.1096123868
C   C516      1.0  0.39300  0.97696  0.72170  1.0000 0.6038165048
C   C517      1.0  0.37631  0.00328  0.71013  1.0000 -0.0525003773
C   C518      1.0  0.33577  0.03250  0.70062  1.0000 -0.1096123868
C   C519      1.0  0.32862  0.91743  0.58192  1.0000 0.6038165048
C   C520      1.0  0.34661  0.05253  0.68385  1.0000 -0.0525003773
C   C521      1.0  0.38669  0.02362  0.69408  1.0000 -0.1096123868
C   C522      1.0  0.37206  0.04787  0.68119  1.0000 -0.1096123868
C   C523      1.0  0.82760  0.70277  0.78908  1.0000 -0.0905960428
C   C524      1.0  0.88898  0.73753  0.85045  1.0000 -0.1096123868
C   C525      1.0  0.87397  0.74597  0.83545  1.0000 -0.1096123868
C   C526      1.0  0.93321  0.82254  0.84479  1.0000 -0.1096123868
C   C527      1.0  0.93773  0.77511  0.86780  1.0000 0.611545194
C   C528      1.0  0.93911  0.79833  0.84359  1.0000 -0.0525003773
C   C529      1.0  0.94542  0.79696  0.81932  1.0000 -0.1096123868
C   C530      1.0  0.06406  0.60157  0.04163  1.0000 -0.1181568617
C   C531      1.0  0.09064  0.62499  0.99695  1.0000 0.6173712273
C   C532      1.0  0.06782  0.62506  0.02205  1.0000 -0.0428761903
C   C533      1.0  0.04855  0.64857  0.02610  1.0000 -0.1181568617
C   C534      1.0  0.08703  0.54484  0.98201  1.0000 -0.1181568617
C   C535      1.0  0.10596  0.58169  0.95039  1.0000 0.611545194
C   C536      1.0  0.09130  0.56470  0.95760  1.0000 -0.0428761903
C   C537      1.0  0.07319  0.52917  0.98848  1.0000 -0.1181568617
C   C538      1.0  0.04690  0.51739  0.97801  1.0000 0.611545194
C   C539      1.0  0.06325  0.53274  0.97073  1.0000 -0.0428761903
C   C540      1.0  0.08149  0.56810  0.93984  1.0000 -0.1181568617
C   C541      1.0  0.06778  0.55243  0.94626  1.0000 -0.1096123868
C   C542      1.0  0.96575  0.62901  0.92736  1.0000 -0.1181568617
C   C543      1.0  0.97480  0.60159  0.93637  1.0000 -0.0905960428
C   C544      1.0  0.92776  0.71368  0.00806  1.0000 -0.1096123868
C   C545      1.0  0.90834  0.72170  0.97696  1.0000 0.6038165048
C   C546      1.0  0.91028  0.71013  0.00328  1.0000 -0.0525003773
C   C547      1.0  0.93111  0.70062  0.03250  1.0000 -0.1096123868
C   C548      1.0  0.17204  0.58192  0.91743  1.0000 0.6038165048
C   C549      1.0  0.91701  0.68385  0.05253  1.0000 -0.0525003773
C   C550      1.0  0.89562  0.69408  0.02362  1.0000 -0.1096123868
C   C551      1.0  0.89889  0.68119  0.04787  1.0000 -0.1096123868
C   C552      1.0  0.78908  0.68056  0.82760  1.0000 -0.0905960428
C   C553      1.0  0.85045  0.52304  0.88898  1.0000 -0.1096123868
C   C554      1.0  0.83545  0.54461  0.87397  1.0000 -0.1096123868
C   C555      1.0  0.84479  0.39946  0.93321  1.0000 -0.1096123868
C   C556      1.0  0.86780  0.41937  0.93773  1.0000 0.611545194
C   C557      1.0  0.84359  0.41896  0.93911  1.0000 -0.0525003773
C   C558      1.0  0.81932  0.43830  0.94542  1.0000 -0.1096123868
C   C559      1.0  0.04163  0.29274  0.06406  1.0000 -0.1181568617
C   C560      1.0  0.99695  0.28742  0.09064  1.0000 0.6173712273
C   C561      1.0  0.02205  0.28506  0.06782  1.0000 -0.0428761903
C   C562      1.0  0.02610  0.27678  0.04855  1.0000 -0.1181568617
C   C563      1.0  0.98201  0.38611  0.08703  1.0000 -0.1181568617
C   C564      1.0  0.95039  0.36196  0.10596  1.0000 0.611545194
C   C565      1.0  0.95760  0.38640  0.09130  1.0000 -0.0428761903
C   C566      1.0  0.98848  0.40915  0.07319  1.0000 -0.1181568617
C   C567      1.0  0.97801  0.45770  0.04690  1.0000 0.611545194
C   C568      1.0  0.97073  0.43328  0.06325  1.0000 -0.0428761903
C   C569      1.0  0.93984  0.41057  0.08149  1.0000 -0.1181568617
C   C570      1.0  0.94626  0.43353  0.06778  1.0000 -0.1181568617
C   C571      1.0  0.92736  0.47788  0.96575  1.0000 -0.1181568617
C   C572      1.0  0.93637  0.48724  0.97480  1.0000 -0.0905960428
C   C573      1.0  0.00806  0.35050  0.92776  1.0000 -0.1096123868
C   C574      1.0  0.97696  0.39300  0.90834  1.0000 0.6038165048
C   C575      1.0  0.00328  0.37631  0.91028  1.0000 -0.0525003773
C   C576      1.0  0.03250  0.33577  0.93111  1.0000 -0.1096123868
C   C577      1.0  0.91743  0.32862  0.17204  1.0000 0.6038165048
C   C578      1.0  0.05253  0.34661  0.91701  1.0000 -0.0525003773
C   C579      1.0  0.02362  0.38669  0.89562  1.0000 -0.1096123868
C   C580      1.0  0.04787  0.37206  0.89889  1.0000 -0.1096123868
C   C581      1.0  0.78908  0.70277  0.68056  1.0000 -0.0905960428
C   C582      1.0  0.85045  0.73753  0.52304  1.0000 -0.1096123868
C   C583      1.0  0.83545  0.74597  0.54461  1.0000 -0.1096123868
C   C584      1.0  0.84479  0.82254  0.39946  1.0000 -0.1096123868
C   C585      1.0  0.86780  0.77511  0.41937  1.0000 0.611545194
C   C586      1.0  0.84359  0.79833  0.41896  1.0000 -0.0525003773
C   C587      1.0  0.81932  0.79696  0.43830  1.0000 -0.1096123868
C   C588      1.0  0.04163  0.60157  0.29274  1.0000 -0.1181568617
C   C589      1.0  0.99695  0.62499  0.28742  1.0000 0.6173712273
C   C590      1.0  0.02205  0.62506  0.28506  1.0000 -0.0428761903
C   C591      1.0  0.02610  0.64857  0.27678  1.0000 -0.1181568617
C   C592      1.0  0.98201  0.54484  0.38611  1.0000 -0.1181568617
C   C593      1.0  0.95039  0.58169  0.36196  1.0000 0.611545194
C   C594      1.0  0.95760  0.56470  0.38640  1.0000 -0.0428761903
C   C595      1.0  0.98848  0.52917  0.40915  1.0000 -0.1181568617
C   C596      1.0  0.97801  0.51739  0.45770  1.0000 0.611545194
C   C597      1.0  0.97073  0.53274  0.43328  1.0000 -0.0428761903
C   C598      1.0  0.93984  0.56810  0.41057  1.0000 -0.1181568617
C   C599      1.0  0.94626  0.55243  0.43353  1.0000 -0.1096123868
C   C600      1.0  0.92736  0.62901  0.47788  1.0000 -0.1181568617
C   C601      1.0  0.93637  0.60159  0.48724  1.0000 -0.0905960428
C   C602      1.0  0.00806  0.71368  0.35050  1.0000 -0.1096123868
C   C603      1.0  0.97696  0.72170  0.39300  1.0000 0.6038165048
C   C604      1.0  0.00328  0.71013  0.37631  1.0000 -0.0525003773
C   C605      1.0  0.03250  0.70062  0.33577  1.0000 -0.1096123868
C   C606      1.0  0.91743  0.58192  0.32862  1.0000 0.6038165048
C   C607      1.0  0.05253  0.68385  0.34661  1.0000 -0.0525003773
C   C608      1.0  0.02362  0.69408  0.38669  1.0000 -0.1096123868
C   C609      1.0  0.04787  0.68119  0.37206  1.0000 -0.1096123868
C   C610      1.0  0.82760  0.68056  0.70277  1.0000 -0.0905960428
C   C611      1.0  0.88898  0.52304  0.73753  1.0000 -0.1096123868
C   C612      1.0  0.87397  0.54461  0.74597  1.0000 -0.1096123868
C   C613      1.0  0.93321  0.39946  0.82254  1.0000 -0.1096123868
C   C614      1.0  0.93773  0.41937  0.77511  1.0000 0.611545194
C   C615      1.0  0.93911  0.41896  0.79833  1.0000 -0.0525003773
C   C616      1.0  0.94542  0.43830  0.79696  1.0000 -0.1096123868
C   C617      1.0  0.06406  0.29274  0.60157  1.0000 -0.1181568617
C   C618      1.0  0.09064  0.28742  0.62499  1.0000 0.6173712273
C   C619      1.0  0.06782  0.28506  0.62506  1.0000 -0.0428761903
C   C620      1.0  0.04855  0.27678  0.64857  1.0000 -0.1181568617
C   C621      1.0  0.08703  0.38611  0.54484  1.0000 -0.1181568617
C   C622      1.0  0.10596  0.36196  0.58169  1.0000 0.611545194
C   C623      1.0  0.09130  0.38640  0.56470  1.0000 -0.0428761903
C   C624      1.0  0.07319  0.40915  0.52917  1.0000 -0.1181568617
C   C625      1.0  0.04690  0.45770  0.51739  1.0000 0.611545194
C   C626      1.0  0.06325  0.43328  0.53274  1.0000 -0.0428761903
C   C627      1.0  0.08149  0.41057  0.56810  1.0000 -0.1181568617
C   C628      1.0  0.06778  0.43353  0.55243  1.0000 -0.1096123868
C   C629      1.0  0.96575  0.47788  0.62901  1.0000 -0.1181568617
C   C630      1.0  0.97480  0.48724  0.60159  1.0000 -0.0905960428
C   C631      1.0  0.92776  0.35050  0.71368  1.0000 -0.1096123868
C   C632      1.0  0.90834  0.39300  0.72170  1.0000 0.6038165048
C   C633      1.0  0.91028  0.37631  0.71013  1.0000 -0.0525003773
C   C634      1.0  0.93111  0.33577  0.70062  1.0000 -0.1096123868
C   C635      1.0  0.17204  0.32862  0.58192  1.0000 0.6038165048
C   C636      1.0  0.91701  0.34661  0.68385  1.0000 -0.0525003773
C   C637      1.0  0.89562  0.38669  0.69408  1.0000 -0.1096123868
C   C638      1.0  0.89889  0.37206  0.68119  1.0000 -0.1096123868
C   C639      1.0  0.68056  0.82760  0.78908  1.0000 -0.0905960428
C   C640      1.0  0.52304  0.88898  0.85045  1.0000 -0.1096123868
C   C641      1.0  0.54461  0.87397  0.83545  1.0000 -0.1096123868
C   C642      1.0  0.39946  0.93321  0.84479  1.0000 -0.1096123868
C   C643      1.0  0.41937  0.93773  0.86780  1.0000 0.611545194
C   C644      1.0  0.41896  0.93911  0.84359  1.0000 -0.0525003773
C   C645      1.0  0.43830  0.94542  0.81932  1.0000 -0.1096123868
C   C646      1.0  0.29274  0.06406  0.04163  1.0000 -0.1181568617
C   C647      1.0  0.28742  0.09064  0.99695  1.0000 0.6173712273
C   C648      1.0  0.28506  0.06782  0.02205  1.0000 -0.0428761903
C   C649      1.0  0.27678  0.04855  0.02610  1.0000 -0.1181568617
C   C650      1.0  0.38611  0.08703  0.98201  1.0000 -0.1181568617
C   C651      1.0  0.36196  0.10596  0.95039  1.0000 0.611545194
C   C652      1.0  0.38640  0.09130  0.95760  1.0000 -0.0428761903
C   C653      1.0  0.40915  0.07319  0.98848  1.0000 -0.1181568617
C   C654      1.0  0.45770  0.04690  0.97801  1.0000 0.611545194
C   C655      1.0  0.43328  0.06325  0.97073  1.0000 -0.0428761903
C   C656      1.0  0.41057  0.08149  0.93984  1.0000 -0.1181568617
C   C657      1.0  0.43353  0.06778  0.94626  1.0000 -0.1096123868
C   C658      1.0  0.47788  0.96575  0.92736  1.0000 -0.1181568617
C   C659      1.0  0.48724  0.97480  0.93637  1.0000 -0.0905960428
C   C660      1.0  0.35050  0.92776  0.00806  1.0000 -0.1096123868
C   C661      1.0  0.39300  0.90834  0.97696  1.0000 0.6038165048
C   C662      1.0  0.37631  0.91028  0.00328  1.0000 -0.0525003773
C   C663      1.0  0.33577  0.93111  0.03250  1.0000 -0.1096123868
C   C664      1.0  0.32862  0.17204  0.91743  1.0000 0.6038165048
C   C665      1.0  0.34661  0.91701  0.05253  1.0000 -0.0525003773
C   C666      1.0  0.38669  0.89562  0.02362  1.0000 -0.1096123868
C   C667      1.0  0.37206  0.89889  0.04787  1.0000 -0.1096123868
C   C668      1.0  0.70277  0.78908  0.82760  1.0000 -0.0905960428
C   C669      1.0  0.73753  0.85045  0.88898  1.0000 -0.1096123868
C   C670      1.0  0.74597  0.83545  0.87397  1.0000 -0.1096123868
C   C671      1.0  0.82254  0.84479  0.93321  1.0000 -0.1096123868
C   C672      1.0  0.77511  0.86780  0.93773  1.0000 0.611545194
C   C673      1.0  0.79833  0.84359  0.93911  1.0000 -0.0525003773
C   C674      1.0  0.79696  0.81932  0.94542  1.0000 -0.1096123868
C   C675      1.0  0.60157  0.04163  0.06406  1.0000 -0.1096123868
C   C676      1.0  0.62499  0.99695  0.09064  1.0000 0.6173712273
C   C677      1.0  0.62506  0.02205  0.06782  1.0000 -0.0428761903
C   C678      1.0  0.64857  0.02610  0.04855  1.0000 -0.1181568617
C   C679      1.0  0.54484  0.98201  0.08703  1.0000 -0.1181568617
C   C680      1.0  0.58169  0.95039  0.10596  1.0000 0.611545194
C   C681      1.0  0.56470  0.95760  0.09130  1.0000 -0.0428761903
C   C682      1.0  0.52917  0.98848  0.07319  1.0000 -0.1181568617
C   C683      1.0  0.51739  0.97801  0.04690  1.0000 0.611545194
C   C684      1.0  0.53274  0.97073  0.06325  1.0000 -0.0428761903
C   C685      1.0  0.56810  0.93984  0.08149  1.0000 -0.1181568617
C   C686      1.0  0.55243  0.94626  0.06778  1.0000 -0.1096123868
C   C687      1.0  0.62901  0.92736  0.96575  1.0000 -0.1181568617
C   C688      1.0  0.60159  0.93637  0.97480  1.0000 -0.0905960428
C   C689      1.0  0.71368  0.00806  0.92776  1.0000 -0.1096123868
C   C690      1.0  0.72170  0.97696  0.90834  1.0000 0.6038165048
C   C691      1.0  0.71013  0.00328  0.91028  1.0000 -0.0525003773
C   C692      1.0  0.70062  0.03250  0.93111  1.0000 -0.1096123868
C   C693      1.0  0.58192  0.91743  0.17204  1.0000 0.6038165048
C   C694      1.0  0.68385  0.05253  0.91701  1.0000 -0.0525003773
C   C695      1.0  0.69408  0.02362  0.89562  1.0000 -0.1096123868
C   C696      1.0  0.68119  0.04787  0.89889  1.0000 -0.1096123868
C   C697      1.0  0.82760  0.78908  0.70277  1.0000 -0.0905960428
C   C698      1.0  0.88898  0.85045  0.73753  1.0000 -0.1096123868
C   C699      1.0  0.87397  0.83545  0.74597  1.0000 -0.1096123868
C   C700      1.0  0.93321  0.84479  0.82254  1.0000 -0.1096123868
C   C701      1.0  0.93773  0.86780  0.77511  1.0000 0.611545194
C   C702      1.0  0.93911  0.84359  0.79833  1.0000 -0.0525003773
C   C703      1.0  0.94542  0.81932  0.79696  1.0000 -0.1096123868
C   C704      1.0  0.06406  0.04163  0.60157  1.0000 -0.1181568617
C   C705      1.0  0.09064  0.99695  0.62499  1.0000 0.6173712273
C   C706      1.0  0.06782  0.02205  0.62506  1.0000 -0.0428761903
C   C707      1.0  0.04855  0.02610  0.64857  1.0000 -0.1181568617
C   C708      1.0  0.08703  0.98201  0.54484  1.0000 -0.1181568617
C   C709      1.0  0.10596  0.95039  0.58169  1.0000 0.611545194
C   C710      1.0  0.09130  0.95760  0.56470  1.0000 -0.0428761903
C   C711      1.0  0.07319  0.98848  0.52917  1.0000 -0.1181568617
C   C712      1.0  0.04690  0.97801  0.51739  1.0000 0.611545194
C   C713      1.0  0.06325  0.97073  0.53274  1.0000 -0.0428761903
C   C714      1.0  0.08149  0.93984  0.56810  1.0000 -0.1181568617
C   C715      1.0  0.06778  0.94626  0.55243  1.0000 -0.1096123868
C   C716      1.0  0.96575  0.92736  0.62901  1.0000 -0.1181568617
C   C717      1.0  0.97480  0.93637  0.60159  1.0000 -0.0905960428
C   C718      1.0  0.92776  0.00806  0.71368  1.0000 -0.1096123868
C   C719      1.0  0.90834  0.97696  0.72170  1.0000 0.6038165048
C   C720      1.0  0.91028  0.00328  0.71013  1.0000 -0.0525003773
C   C721      1.0  0.93111  0.03250  0.70062  1.0000 -0.1096123868
C   C722      1.0  0.17204  0.91743  0.58192  1.0000 0.6038165048
C   C723      1.0  0.91701  0.05253  0.68385  1.0000 -0.0525003773
C   C724      1.0  0.89562  0.02362  0.69408  1.0000 -0.1096123868
C   C725      1.0  0.89889  0.04787  0.68119  1.0000 -0.1026087756
C   C726      1.0  0.78908  0.82760  0.68056  1.0000 -0.0905960428
C   C727      1.0  0.85045  0.88898  0.52304  1.0000 -0.1096123868
C   C728      1.0  0.83545  0.87397  0.54461  1.0000 -0.1096123868
C   C729      1.0  0.84479  0.93321  0.39946  1.0000 -0.1096123868
C   C730      1.0  0.86780  0.93773  0.41937  1.0000 0.611545194
C   C731      1.0  0.84359  0.93911  0.41896  1.0000 -0.0525003773
C   C732      1.0  0.81932  0.94542  0.43830  1.0000 -0.1096123868
C   C733      1.0  0.04163  0.06406  0.29274  1.0000 -0.1181568617
C   C734      1.0  0.99695  0.09064  0.28742  1.0000 0.6173712273
C   C735      1.0  0.02205  0.06782  0.28506  1.0000 -0.0428761903
C   C736      1.0  0.02610  0.04855  0.27678  1.0000 -0.1181568617
C   C737      1.0  0.98201  0.08703  0.38611  1.0000 -0.1181568617
C   C738      1.0  0.95039  0.10596  0.36196  1.0000 0.611545194
C   C739      1.0  0.95760  0.09130  0.38640  1.0000 -0.0428761903
C   C740      1.0  0.98848  0.07319  0.40915  1.0000 -0.1181568617
C   C741      1.0  0.97801  0.04690  0.45770  1.0000 0.611545194
C   C742      1.0  0.97073  0.06325  0.43328  1.0000 -0.0428761903
C   C743      1.0  0.93984  0.08149  0.41057  1.0000 -0.1181568617
C   C744      1.0  0.94626  0.06778  0.43353  1.0000 -0.1096123868
C   C745      1.0  0.92736  0.96575  0.47788  1.0000 -0.1181568617
C   C746      1.0  0.93637  0.97480  0.48724  1.0000 -0.0905960428
C   C747      1.0  0.00806  0.92776  0.35050  1.0000 -0.1096123868
C   C748      1.0  0.97696  0.90834  0.39300  1.0000 0.6038165048
C   C749      1.0  0.00328  0.91028  0.37631  1.0000 -0.0560962171
C   C750      1.0  0.03250  0.93111  0.33577  1.0000 -0.1096123868
C   C751      1.0  0.91743  0.17204  0.32862  1.0000 0.6038165048
C   C752      1.0  0.05253  0.91701  0.34661  1.0000 -0.0525003773
C   C753      1.0  0.02362  0.89562  0.38669  1.0000 -0.1096123868
C   C754      1.0  0.04787  0.89889  0.37206  1.0000 -0.1096123868
C   C755      1.0  0.70277  0.68056  0.82760  1.0000 -0.0905960428
C   C756      1.0  0.73753  0.52304  0.88898  1.0000 -0.1096123868
C   C757      1.0  0.74597  0.54461  0.87397  1.0000 -0.1096123868
C   C758      1.0  0.82254  0.39946  0.93321  1.0000 -0.1096123868
C   C759      1.0  0.77511  0.41937  0.93773  1.0000 0.611545194
C   C760      1.0  0.79833  0.41896  0.93911  1.0000 -0.0525003773
C   C761      1.0  0.79696  0.43830  0.94542  1.0000 -0.1096123868
C   C762      1.0  0.60157  0.29274  0.06406  1.0000 -0.1096123868
C   C763      1.0  0.62499  0.28742  0.09064  1.0000 0.6173712273
C   C764      1.0  0.62506  0.28506  0.06782  1.0000 -0.0428761903
C   C765      1.0  0.64857  0.27678  0.04855  1.0000 -0.1181568617
C   C766      1.0  0.54484  0.38611  0.08703  1.0000 -0.1181568617
C   C767      1.0  0.58169  0.36196  0.10596  1.0000 0.611545194
C   C768      1.0  0.56470  0.38640  0.09130  1.0000 -0.0428761903
C   C769      1.0  0.52917  0.40915  0.07319  1.0000 -0.1181568617
C   C770      1.0  0.51739  0.45770  0.04690  1.0000 0.611545194
C   C771      1.0  0.53274  0.43328  0.06325  1.0000 -0.0428761903
C   C772      1.0  0.56810  0.41057  0.08149  1.0000 -0.1181568617
C   C773      1.0  0.55243  0.43353  0.06778  1.0000 -0.1181568617
C   C774      1.0  0.62901  0.47788  0.96575  1.0000 -0.1181568617
C   C775      1.0  0.60159  0.48724  0.97480  1.0000 -0.0905960428
C   C776      1.0  0.71368  0.35050  0.92776  1.0000 -0.1096123868
C   C777      1.0  0.72170  0.39300  0.90834  1.0000 0.6038165048
C   C778      1.0  0.71013  0.37631  0.91028  1.0000 -0.0525003773
C   C779      1.0  0.70062  0.33577  0.93111  1.0000 -0.1096123868
C   C780      1.0  0.58192  0.32862  0.17204  1.0000 0.6038165048
C   C781      1.0  0.68385  0.34661  0.91701  1.0000 -0.0525003773
C   C782      1.0  0.69408  0.38669  0.89562  1.0000 -0.1096123868
C   C783      1.0  0.68119  0.37206  0.89889  1.0000 -0.1096123868
C   C784      1.0  0.68056  0.70277  0.78908  1.0000 -0.0905960428
C   C785      1.0  0.52304  0.73753  0.85045  1.0000 -0.1096123868
C   C786      1.0  0.54461  0.74597  0.83545  1.0000 -0.1096123868
C   C787      1.0  0.39946  0.82254  0.84479  1.0000 -0.1096123868
C   C788      1.0  0.41937  0.77511  0.86780  1.0000 0.611545194
C   C789      1.0  0.41896  0.79833  0.84359  1.0000 -0.0525003773
C   C790      1.0  0.43830  0.79696  0.81932  1.0000 -0.1096123868
C   C791      1.0  0.29274  0.60157  0.04163  1.0000 -0.1096123868
C   C792      1.0  0.28742  0.62499  0.99695  1.0000 0.6173712273
C   C793      1.0  0.28506  0.62506  0.02205  1.0000 -0.0428761903
C   C794      1.0  0.27678  0.64857  0.02610  1.0000 -0.1181568617
C   C795      1.0  0.38611  0.54484  0.98201  1.0000 -0.1181568617
C   C796      1.0  0.36196  0.58169  0.95039  1.0000 0.611545194
C   C797      1.0  0.38640  0.56470  0.95760  1.0000 -0.0428761903
C   C798      1.0  0.40915  0.52917  0.98848  1.0000 -0.1181568617
C   C799      1.0  0.45770  0.51739  0.97801  1.0000 0.611545194
C   C800      1.0  0.43328  0.53274  0.97073  1.0000 -0.0428761903
C   C801      1.0  0.41057  0.56810  0.93984  1.0000 -0.1181568617
C   C802      1.0  0.43353  0.55243  0.94626  1.0000 -0.1096123868
C   C803      1.0  0.47788  0.62901  0.92736  1.0000 -0.1181568617
C   C804      1.0  0.48724  0.60159  0.93637  1.0000 -0.0905960428
C   C805      1.0  0.35050  0.71368  0.00806  1.0000 -0.1096123868
C   C806      1.0  0.39300  0.72170  0.97696  1.0000 0.6038165048
C   C807      1.0  0.37631  0.71013  0.00328  1.0000 -0.0525003773
C   C808      1.0  0.33577  0.70062  0.03250  1.0000 -0.1096123868
C   C809      1.0  0.32862  0.58192  0.91743  1.0000 0.6038165048
C   C810      1.0  0.34661  0.68385  0.05253  1.0000 -0.0525003773
C   C811      1.0  0.38669  0.69408  0.02362  1.0000 -0.1096123868
C   C812      1.0  0.37206  0.68119  0.04787  1.0000 -0.1096123868
C   C813      1.0  0.70277  0.82760  0.78908  1.0000 -0.0905960428
C   C814      1.0  0.73753  0.88898  0.85045  1.0000 -0.1096123868
C   C815      1.0  0.74597  0.87397  0.83545  1.0000 -0.1096123868
C   C816      1.0  0.82254  0.93321  0.84479  1.0000 -0.1096123868
C   C817      1.0  0.77511  0.93773  0.86780  1.0000 0.611545194
C   C818      1.0  0.79833  0.93911  0.84359  1.0000 -0.0525003773
C   C819      1.0  0.79696  0.94542  0.81932  1.0000 -0.1096123868
C   C820      1.0  0.60157  0.06406  0.04163  1.0000 -0.1096123868
C   C821      1.0  0.62499  0.09064  0.99695  1.0000 0.6173712273
C   C822      1.0  0.62506  0.06782  0.02205  1.0000 -0.0428761903
C   C823      1.0  0.64857  0.04855  0.02610  1.0000 -0.1181568617
C   C824      1.0  0.54484  0.08703  0.98201  1.0000 -0.1181568617
C   C825      1.0  0.58169  0.10596  0.95039  1.0000 0.611545194
C   C826      1.0  0.56470  0.09130  0.95760  1.0000 -0.0428761903
C   C827      1.0  0.52917  0.07319  0.98848  1.0000 -0.1181568617
C   C828      1.0  0.51739  0.04690  0.97801  1.0000 0.611545194
C   C829      1.0  0.53274  0.06325  0.97073  1.0000 -0.0428761903
C   C830      1.0  0.56810  0.08149  0.93984  1.0000 -0.1181568617
C   C831      1.0  0.55243  0.06778  0.94626  1.0000 -0.1096123868
C   C832      1.0  0.62901  0.96575  0.92736  1.0000 -0.1181568617
C   C833      1.0  0.60159  0.97480  0.93637  1.0000 -0.0905960428
C   C834      1.0  0.71368  0.92776  0.00806  1.0000 -0.1096123868
C   C835      1.0  0.72170  0.90834  0.97696  1.0000 0.6038165048
C   C836      1.0  0.71013  0.91028  0.00328  1.0000 -0.0560962171
C   C837      1.0  0.70062  0.93111  0.03250  1.0000 -0.1096123868
C   C838      1.0  0.58192  0.17204  0.91743  1.0000 0.6038165048
C   C839      1.0  0.68385  0.91701  0.05253  1.0000 -0.0525003773
C   C840      1.0  0.69408  0.89562  0.02362  1.0000 -0.1096123868
C   C841      1.0  0.68119  0.89889  0.04787  1.0000 -0.1096123868
C   C842      1.0  0.68056  0.78908  0.82760  1.0000 -0.0905960428
C   C843      1.0  0.52304  0.85045  0.88898  1.0000 -0.1096123868
C   C844      1.0  0.54461  0.83545  0.87397  1.0000 -0.1096123868
C   C845      1.0  0.39946  0.84479  0.93321  1.0000 -0.1096123868
C   C846      1.0  0.41937  0.86780  0.93773  1.0000 0.611545194
C   C847      1.0  0.41896  0.84359  0.93911  1.0000 -0.0525003773
C   C848      1.0  0.43830  0.81932  0.94542  1.0000 -0.1096123868
C   C849      1.0  0.29274  0.04163  0.06406  1.0000 -0.1096123868
C   C850      1.0  0.28742  0.99695  0.09064  1.0000 0.6173712273
C   C851      1.0  0.28506  0.02205  0.06782  1.0000 -0.0428761903
C   C852      1.0  0.27678  0.02610  0.04855  1.0000 -0.1181568617
C   C853      1.0  0.38611  0.98201  0.08703  1.0000 -0.1181568617
C   C854      1.0  0.36196  0.95039  0.10596  1.0000 0.611545194
C   C855      1.0  0.38640  0.95760  0.09130  1.0000 -0.0428761903
C   C856      1.0  0.40915  0.98848  0.07319  1.0000 -0.1181568617
C   C857      1.0  0.45770  0.97801  0.04690  1.0000 0.611545194
C   C858      1.0  0.43328  0.97073  0.06325  1.0000 -0.0428761903
C   C859      1.0  0.41057  0.93984  0.08149  1.0000 -0.1181568617
C   C860      1.0  0.43353  0.94626  0.06778  1.0000 -0.1181568617
C   C861      1.0  0.47788  0.92736  0.96575  1.0000 -0.1181568617
C   C862      1.0  0.48724  0.93637  0.97480  1.0000 -0.0905960428
C   C863      1.0  0.35050  0.00806  0.92776  1.0000 -0.1096123868
C   C864      1.0  0.39300  0.97696  0.90834  1.0000 0.6038165048
C   C865      1.0  0.37631  0.00328  0.91028  1.0000 -0.0525003773
C   C866      1.0  0.33577  0.03250  0.93111  1.0000 -0.1096123868
C   C867      1.0  0.32862  0.91743  0.17204  1.0000 0.6038165048
C   C868      1.0  0.34661  0.05253  0.91701  1.0000 -0.0525003773
C   C869      1.0  0.38669  0.02362  0.89562  1.0000 -0.1096123868
C   C870      1.0  0.37206  0.04787  0.89889  1.0000 -0.1096123868
C   C871      1.0  0.82760  0.70277  0.68056  1.0000 -0.0905960428
C   C872      1.0  0.88898  0.73753  0.52304  1.0000 -0.1096123868
C   C873      1.0  0.87397  0.74597  0.54461  1.0000 -0.1096123868
C   C874      1.0  0.93321  0.82254  0.39946  1.0000 -0.1096123868
C   C875      1.0  0.93773  0.77511  0.41937  1.0000 0.611545194
C   C876      1.0  0.93911  0.79833  0.41896  1.0000 -0.0525003773
C   C877      1.0  0.94542  0.79696  0.43830  1.0000 -0.1096123868
C   C878      1.0  0.06406  0.60157  0.29274  1.0000 -0.1181568617
C   C879      1.0  0.09064  0.62499  0.28742  1.0000 0.6173712273
C   C880      1.0  0.06782  0.62506  0.28506  1.0000 -0.0428761903
C   C881      1.0  0.04855  0.64857  0.27678  1.0000 -0.1181568617
C   C882      1.0  0.08703  0.54484  0.38611  1.0000 -0.1181568617
C   C883      1.0  0.10596  0.58169  0.36196  1.0000 0.611545194
C   C884      1.0  0.09130  0.56470  0.38640  1.0000 -0.0428761903
C   C885      1.0  0.07319  0.52917  0.40915  1.0000 -0.1181568617
C   C886      1.0  0.04690  0.51739  0.45770  1.0000 0.611545194
C   C887      1.0  0.06325  0.53274  0.43328  1.0000 -0.0428761903
C   C888      1.0  0.08149  0.56810  0.41057  1.0000 -0.1181568617
C   C889      1.0  0.06778  0.55243  0.43353  1.0000 -0.1181568617
C   C890      1.0  0.96575  0.62901  0.47788  1.0000 -0.1181568617
C   C891      1.0  0.97480  0.60159  0.48724  1.0000 -0.0905960428
C   C892      1.0  0.92776  0.71368  0.35050  1.0000 -0.1096123868
C   C893      1.0  0.90834  0.72170  0.39300  1.0000 0.6038165048
C   C894      1.0  0.91028  0.71013  0.37631  1.0000 -0.0525003773
C   C895      1.0  0.93111  0.70062  0.33577  1.0000 -0.1096123868
C   C896      1.0  0.17204  0.58192  0.32862  1.0000 0.6038165048
C   C897      1.0  0.91701  0.68385  0.34661  1.0000 -0.0525003773
C   C898      1.0  0.89562  0.69408  0.38669  1.0000 -0.1096123868
C   C899      1.0  0.89889  0.68119  0.37206  1.0000 -0.1096123868
C   C900      1.0  0.78908  0.68056  0.70277  1.0000 -0.0905960428
C   C901      1.0  0.85045  0.52304  0.73753  1.0000 -0.1096123868
C   C902      1.0  0.83545  0.54461  0.74597  1.0000 -0.1096123868
C   C903      1.0  0.84479  0.39946  0.82254  1.0000 -0.1096123868
C   C904      1.0  0.86780  0.41937  0.77511  1.0000 0.611545194
C   C905      1.0  0.84359  0.41896  0.79833  1.0000 -0.0525003773
C   C906      1.0  0.81932  0.43830  0.79696  1.0000 -0.1096123868
C   C907      1.0  0.04163  0.29274  0.60157  1.0000 -0.1096123868
C   C908      1.0  0.99695  0.28742  0.62499  1.0000 0.6173712273
C   C909      1.0  0.02205  0.28506  0.62506  1.0000 -0.0428761903
C   C910      1.0  0.02610  0.27678  0.64857  1.0000 -0.1181568617
C   C911      1.0  0.98201  0.38611  0.54484  1.0000 -0.1181568617
C   C912      1.0  0.95039  0.36196  0.58169  1.0000 0.611545194
C   C913      1.0  0.95760  0.38640  0.56470  1.0000 -0.0428761903
C   C914      1.0  0.98848  0.40915  0.52917  1.0000 -0.1181568617
C   C915      1.0  0.97801  0.45770  0.51739  1.0000 0.611545194
C   C916      1.0  0.97073  0.43328  0.53274  1.0000 -0.0428761903
C   C917      1.0  0.93984  0.41057  0.56810  1.0000 -0.1181568617
C   C918      1.0  0.94626  0.43353  0.55243  1.0000 -0.1096123868
C   C919      1.0  0.92736  0.47788  0.62901  1.0000 -0.1181568617
C   C920      1.0  0.93637  0.48724  0.60159  1.0000 -0.0905960428
C   C921      1.0  0.00806  0.35050  0.71368  1.0000 -0.1096123868
C   C922      1.0  0.97696  0.39300  0.72170  1.0000 0.6038165048
C   C923      1.0  0.00328  0.37631  0.71013  1.0000 -0.0525003773
C   C924      1.0  0.03250  0.33577  0.70062  1.0000 -0.1096123868
C   C925      1.0  0.91743  0.32862  0.58192  1.0000 0.6038165048
C   C926      1.0  0.05253  0.34661  0.68385  1.0000 -0.0525003773
C   C927      1.0  0.02362  0.38669  0.69408  1.0000 -0.1096123868
C   C928      1.0  0.04787  0.37206  0.68119  1.0000 -0.1096123868
C   C929      1.0  0.78908  0.70277  0.82760  1.0000 -0.0905960428
C   C930      1.0  0.85045  0.73753  0.88898  1.0000 -0.1096123868
C   C931      1.0  0.83545  0.74597  0.87397  1.0000 -0.1096123868
C   C932      1.0  0.84479  0.82254  0.93321  1.0000 -0.1096123868
C   C933      1.0  0.86780  0.77511  0.93773  1.0000 0.611545194
C   C934      1.0  0.84359  0.79833  0.93911  1.0000 -0.0525003773
C   C935      1.0  0.81932  0.79696  0.94542  1.0000 -0.1096123868
C   C936      1.0  0.04163  0.60157  0.06406  1.0000 -0.1096123868
C   C937      1.0  0.99695  0.62499  0.09064  1.0000 0.6173712273
C   C938      1.0  0.02205  0.62506  0.06782  1.0000 -0.0428761903
C   C939      1.0  0.02610  0.64857  0.04855  1.0000 -0.1181568617
C   C940      1.0  0.98201  0.54484  0.08703  1.0000 -0.1181568617
C   C941      1.0  0.95039  0.58169  0.10596  1.0000 0.611545194
C   C942      1.0  0.95760  0.56470  0.09130  1.0000 -0.0428761903
C   C943      1.0  0.98848  0.52917  0.07319  1.0000 -0.1181568617
C   C944      1.0  0.97801  0.51739  0.04690  1.0000 0.611545194
C   C945      1.0  0.97073  0.53274  0.06325  1.0000 -0.0428761903
C   C946      1.0  0.93984  0.56810  0.08149  1.0000 -0.1181568617
C   C947      1.0  0.94626  0.55243  0.06778  1.0000 -0.1096123868
C   C948      1.0  0.92736  0.62901  0.96575  1.0000 -0.1181568617
C   C949      1.0  0.93637  0.60159  0.97480  1.0000 -0.0905960428
C   C950      1.0  0.00806  0.71368  0.92776  1.0000 -0.1096123868
C   C951      1.0  0.97696  0.72170  0.90834  1.0000 0.6038165048
C   C952      1.0  0.00328  0.71013  0.91028  1.0000 -0.0560962171
C   C953      1.0  0.03250  0.70062  0.93111  1.0000 -0.1096123868
C   C954      1.0  0.91743  0.58192  0.17204  1.0000 0.6038165048
C   C955      1.0  0.05253  0.68385  0.91701  1.0000 -0.0525003773
C   C956      1.0  0.02362  0.69408  0.89562  1.0000 -0.1096123868
C   C957      1.0  0.04787  0.68119  0.89889  1.0000 -0.1096123868
C   C958      1.0  0.82760  0.68056  0.78908  1.0000 -0.0905960428
C   C959      1.0  0.88898  0.52304  0.85045  1.0000 -0.1096123868
C   C960      1.0  0.87397  0.54461  0.83545  1.0000 -0.1096123868
C   C961      1.0  0.93321  0.39946  0.84479  1.0000 -0.1096123868
C   C962      1.0  0.93773  0.41937  0.86780  1.0000 0.611545194
C   C963      1.0  0.93911  0.41896  0.84359  1.0000 -0.0525003773
C   C964      1.0  0.94542  0.43830  0.81932  1.0000 -0.1096123868
C   C965      1.0  0.06406  0.29274  0.04163  1.0000 -0.1181568617
C   C966      1.0  0.09064  0.28742  0.99695  1.0000 0.6173712273
C   C967      1.0  0.06782  0.28506  0.02205  1.0000 -0.0428761903
C   C968      1.0  0.04855  0.27678  0.02610  1.0000 -0.1181568617
C   C969      1.0  0.08703  0.38611  0.98201  1.0000 -0.1181568617
C   C970      1.0  0.10596  0.36196  0.95039  1.0000 0.611545194
C   C971      1.0  0.09130  0.38640  0.95760  1.0000 -0.0428761903
C   C972      1.0  0.07319  0.40915  0.98848  1.0000 -0.1181568617
C   C973      1.0  0.04690  0.45770  0.97801  1.0000 0.611545194
C   C974      1.0  0.06325  0.43328  0.97073  1.0000 -0.0428761903
C   C975      1.0  0.08149  0.41057  0.93984  1.0000 -0.1181568617
C   C976      1.0  0.06778  0.43353  0.94626  1.0000 -0.1096123868
C   C977      1.0  0.96575  0.47788  0.92736  1.0000 -0.1181568617
C   C978      1.0  0.97480  0.48724  0.93637  1.0000 -0.0905960428
C   C979      1.0  0.92776  0.35050  0.00806  1.0000 -0.1096123868
C   C980      1.0  0.90834  0.39300  0.97696  1.0000 0.6038165048
C   C981      1.0  0.91028  0.37631  0.00328  1.0000 -0.0525003773
C   C982      1.0  0.93111  0.33577  0.03250  1.0000 -0.1096123868
C   C983      1.0  0.17204  0.32862  0.91743  1.0000 0.6038165048
C   C984      1.0  0.91701  0.34661  0.05253  1.0000 -0.0525003773
C   C985      1.0  0.89562  0.38669  0.02362  1.0000 -0.1096123868
C   C986      1.0  0.89889  0.37206  0.04787  1.0000 -0.1096123868
C   C987      1.0  0.68056  0.82760  0.70277  1.0000 -0.0905960428
C   C988      1.0  0.52304  0.88898  0.73753  1.0000 -0.1096123868
C   C989      1.0  0.54461  0.87397  0.74597  1.0000 -0.1096123868
C   C990      1.0  0.39946  0.93321  0.82254  1.0000 -0.1096123868
C   C991      1.0  0.41937  0.93773  0.77511  1.0000 0.611545194
C   C992      1.0  0.41896  0.93911  0.79833  1.0000 -0.0525003773
C   C993      1.0  0.43830  0.94542  0.79696  1.0000 -0.1096123868
C   C994      1.0  0.29274  0.06406  0.60157  1.0000 -0.1181568617
C   C995      1.0  0.28742  0.09064  0.62499  1.0000 0.6173712273
C   C996      1.0  0.28506  0.06782  0.62506  1.0000 -0.0428761903
C   C997      1.0  0.27678  0.04855  0.64857  1.0000 -0.1181568617
C   C998      1.0  0.38611  0.08703  0.54484  1.0000 -0.1181568617
C   C999      1.0  0.36196  0.10596  0.58169  1.0000 0.611545194
C   C1000     1.0  0.38640  0.09130  0.56470  1.0000 -0.0428761903
C   C1001     1.0  0.40915  0.07319  0.52917  1.0000 -0.1181568617
C   C1002     1.0  0.45770  0.04690  0.51739  1.0000 0.611545194
C   C1003     1.0  0.43328  0.06325  0.53274  1.0000 -0.0428761903
C   C1004     1.0  0.41057  0.08149  0.56810  1.0000 -0.1181568617
C   C1005     1.0  0.43353  0.06778  0.55243  1.0000 -0.1096123868
C   C1006     1.0  0.47788  0.96575  0.62901  1.0000 -0.1181568617
C   C1007     1.0  0.48724  0.97480  0.60159  1.0000 -0.0905960428
C   C1008     1.0  0.35050  0.92776  0.71368  1.0000 -0.1096123868
C   C1009     1.0  0.39300  0.90834  0.72170  1.0000 0.6038165048
C   C1010     1.0  0.37631  0.91028  0.71013  1.0000 -0.0525003773
C   C1011     1.0  0.33577  0.93111  0.70062  1.0000 -0.1096123868
C   C1012     1.0  0.32862  0.17204  0.58192  1.0000 0.6038165048
C   C1013     1.0  0.34661  0.91701  0.68385  1.0000 -0.0525003773
C   C1014     1.0  0.38669  0.89562  0.69408  1.0000 -0.1096123868
C   C1015     1.0  0.37206  0.89889  0.68119  1.0000 -0.1096123868
C   C1016     1.0  0.70277  0.78908  0.68056  1.0000 -0.0905960428
C   C1017     1.0  0.73753  0.85045  0.52304  1.0000 -0.1096123868
C   C1018     1.0  0.74597  0.83545  0.54461  1.0000 -0.1096123868
C   C1019     1.0  0.82254  0.84479  0.39946  1.0000 -0.1096123868
C   C1020     1.0  0.77511  0.86780  0.41937  1.0000 0.611545194
C   C1021     1.0  0.79833  0.84359  0.41896  1.0000 -0.0525003773
C   C1022     1.0  0.79696  0.81932  0.43830  1.0000 -0.1096123868
C   C1023     1.0  0.60157  0.04163  0.29274  1.0000 -0.1096123868
C   C1024     1.0  0.62499  0.99695  0.28742  1.0000 0.6173712273
C   C1025     1.0  0.62506  0.02205  0.28506  1.0000 -0.0428761903
C   C1026     1.0  0.64857  0.02610  0.27678  1.0000 -0.1181568617
C   C1027     1.0  0.54484  0.98201  0.38611  1.0000 -0.1181568617
C   C1028     1.0  0.58169  0.95039  0.36196  1.0000 0.611545194
C   C1029     1.0  0.56470  0.95760  0.38640  1.0000 -0.0428761903
C   C1030     1.0  0.52917  0.98848  0.40915  1.0000 -0.1181568617
C   C1031     1.0  0.51739  0.97801  0.45770  1.0000 0.611545194
C   C1032     1.0  0.53274  0.97073  0.43328  1.0000 -0.0428761903
C   C1033     1.0  0.56810  0.93984  0.41057  1.0000 -0.1181568617
C   C1034     1.0  0.55243  0.94626  0.43353  1.0000 -0.1096123868
C   C1035     1.0  0.62901  0.92736  0.47788  1.0000 -0.1181568617
C   C1036     1.0  0.60159  0.93637  0.48724  1.0000 -0.0905960428
C   C1037     1.0  0.71368  0.00806  0.35050  1.0000 -0.1096123868
C   C1038     1.0  0.72170  0.97696  0.39300  1.0000 0.6038165048
C   C1039     1.0  0.71013  0.00328  0.37631  1.0000 -0.0525003773
C   C1040     1.0  0.70062  0.03250  0.33577  1.0000 -0.1096123868
C   C1041     1.0  0.58192  0.91743  0.32862  1.0000 0.6038165048
C   C1042     1.0  0.68385  0.05253  0.34661  1.0000 -0.0525003773
C   C1043     1.0  0.69408  0.02362  0.38669  1.0000 -0.1096123868
C   C1044     1.0  0.68119  0.04787  0.37206  1.0000 -0.1096123868
C   C1045     1.0  0.42240  0.46092  0.56944  1.0000 -0.0905960428
C   C1046     1.0  0.36102  0.39955  0.72696  1.0000 -0.1096123868
C   C1047     1.0  0.37603  0.41455  0.70539  1.0000 -0.1096123868
C   C1048     1.0  0.31679  0.40521  0.85054  1.0000 -0.1096123868
C   C1049     1.0  0.31227  0.38220  0.83063  1.0000 0.611545194
C   C1050     1.0  0.31089  0.40641  0.83104  1.0000 -0.0525003773
C   C1051     1.0  0.30458  0.43068  0.81170  1.0000 -0.1096123868
C   C1052     1.0  0.18594  0.20837  0.95726  1.0000 -0.1096123868
C   C1053     1.0  0.15936  0.25305  0.96258  1.0000 0.6173712273
C   C1054     1.0  0.18218  0.22795  0.96494  1.0000 -0.0428761903
C   C1055     1.0  0.20145  0.22390  0.97322  1.0000 -0.1181568617
C   C1056     1.0  0.16297  0.26799  0.86389  1.0000 -0.1181568617
C   C1057     1.0  0.14404  0.29961  0.88804  1.0000 0.611545194
C   C1058     1.0  0.15870  0.29240  0.86360  1.0000 -0.0428761903
C   C1059     1.0  0.17681  0.26152  0.84085  1.0000 -0.1181568617
C   C1060     1.0  0.20310  0.27199  0.79230  1.0000 0.611545194
C   C1061     1.0  0.18675  0.27927  0.81672  1.0000 -0.0428761903
C   C1062     1.0  0.16851  0.31016  0.83943  1.0000 -0.1181568617
C   C1063     1.0  0.18222  0.30374  0.81647  1.0000 -0.1096123868
C   C1064     1.0  0.28425  0.32264  0.77212  1.0000 -0.1181568617
C   C1065     1.0  0.27520  0.31363  0.76276  1.0000 -0.0905960428
C   C1066     1.0  0.32224  0.24194  0.89950  1.0000 -0.1096123868
C   C1067     1.0  0.34166  0.27304  0.85700  1.0000 0.6038165048
C   C1068     1.0  0.33972  0.24672  0.87369  1.0000 -0.0525003773
C   C1069     1.0  0.31889  0.21750  0.91423  1.0000 -0.1096123868
C   C1070     1.0  0.07796  0.33257  0.92138  1.0000 0.6038165048
C   C1071     1.0  0.33299  0.19747  0.90339  1.0000 -0.0525003773
C   C1072     1.0  0.35438  0.22638  0.86331  1.0000 -0.1096123868
C   C1073     1.0  0.35111  0.20213  0.87794  1.0000 -0.1096123868
C   C1074     1.0  0.46092  0.42240  0.54723  1.0000 -0.0905960428
C   C1075     1.0  0.39955  0.36102  0.51247  1.0000 -0.1096123868
C   C1076     1.0  0.41455  0.37603  0.50403  1.0000 -0.1096123868
C   C1077     1.0  0.40521  0.31679  0.42746  1.0000 -0.1096123868
C   C1078     1.0  0.38220  0.31227  0.47489  1.0000 0.611545194
C   C1079     1.0  0.40641  0.31089  0.45167  1.0000 -0.0525003773
C   C1080     1.0  0.43068  0.30458  0.45304  1.0000 -0.1096123868
C   C1081     1.0  0.20837  0.18594  0.64843  1.0000 -0.1096123868
C   C1082     1.0  0.25305  0.15936  0.62501  1.0000 0.6173712273
C   C1083     1.0  0.22795  0.18218  0.62494  1.0000 -0.0428761903
C   C1084     1.0  0.22390  0.20145  0.60143  1.0000 -0.1181568617
C   C1085     1.0  0.26799  0.16297  0.70516  1.0000 -0.1181568617
C   C1086     1.0  0.29961  0.14404  0.66831  1.0000 0.611545194
C   C1087     1.0  0.29240  0.15870  0.68530  1.0000 -0.0428761903
C   C1088     1.0  0.26152  0.17681  0.72083  1.0000 -0.1181568617
C   C1089     1.0  0.27199  0.20310  0.73261  1.0000 0.611545194
C   C1090     1.0  0.27927  0.18675  0.71726  1.0000 -0.0428761903
C   C1091     1.0  0.31016  0.16851  0.68190  1.0000 -0.1181568617
C   C1092     1.0  0.30374  0.18222  0.69757  1.0000 -0.1096123868
C   C1093     1.0  0.32264  0.28425  0.62099  1.0000 -0.1181568617
C   C1094     1.0  0.31363  0.27520  0.64841  1.0000 -0.0905960428
C   C1095     1.0  0.24194  0.32224  0.53632  1.0000 -0.1096123868
C   C1096     1.0  0.27304  0.34166  0.52830  1.0000 0.6038165048
C   C1097     1.0  0.24672  0.33972  0.53987  1.0000 -0.0525003773
C   C1098     1.0  0.21750  0.31889  0.54938  1.0000 -0.1096123868
C   C1099     1.0  0.33257  0.07796  0.66808  1.0000 0.6038165048
C   C1100     1.0  0.19747  0.33299  0.56615  1.0000 -0.0525003773
C   C1101     1.0  0.22638  0.35438  0.55592  1.0000 -0.1096123868
C   C1102     1.0  0.20213  0.35111  0.56881  1.0000 -0.1096123868
C   C1103     1.0  0.54723  0.56944  0.46092  1.0000 -0.0905960428
C   C1104     1.0  0.51247  0.72696  0.39955  1.0000 -0.1096123868
C   C1105     1.0  0.50403  0.70539  0.41455  1.0000 -0.1096123868
C   C1106     1.0  0.42746  0.85054  0.40521  1.0000 -0.1096123868
C   C1107     1.0  0.47489  0.83063  0.38220  1.0000 0.611545194
C   C1108     1.0  0.45167  0.83104  0.40641  1.0000 -0.0525003773
C   C1109     1.0  0.45304  0.81170  0.43068  1.0000 -0.1096123868
C   C1110     1.0  0.64843  0.95726  0.20837  1.0000 -0.1096123868
C   C1111     1.0  0.62501  0.96258  0.25305  1.0000 0.6173712273
C   C1112     1.0  0.62494  0.96494  0.22795  1.0000 -0.0428761903
C   C1113     1.0  0.60143  0.97322  0.22390  1.0000 -0.1181568617
C   C1114     1.0  0.70516  0.86389  0.26799  1.0000 -0.1181568617
C   C1115     1.0  0.66831  0.88804  0.29961  1.0000 0.611545194
C   C1116     1.0  0.68530  0.86360  0.29240  1.0000 -0.0428761903
C   C1117     1.0  0.72083  0.84085  0.26152  1.0000 -0.1181568617
C   C1118     1.0  0.73261  0.79230  0.27199  1.0000 0.611545194
C   C1119     1.0  0.71726  0.81672  0.27927  1.0000 -0.0428761903
C   C1120     1.0  0.68190  0.83943  0.31016  1.0000 -0.1181568617
C   C1121     1.0  0.69757  0.81647  0.30374  1.0000 -0.1096123868
C   C1122     1.0  0.62099  0.77212  0.32264  1.0000 -0.1181568617
C   C1123     1.0  0.64841  0.76276  0.31363  1.0000 -0.0905960428
C   C1124     1.0  0.53632  0.89950  0.24194  1.0000 -0.1096123868
C   C1125     1.0  0.52830  0.85700  0.27304  1.0000 0.6038165048
C   C1126     1.0  0.53987  0.87369  0.24672  1.0000 -0.0560962171
C   C1127     1.0  0.54938  0.91423  0.21750  1.0000 -0.1096123868
C   C1128     1.0  0.66808  0.92138  0.33257  1.0000 0.6038165048
C   C1129     1.0  0.56615  0.90339  0.19747  1.0000 -0.0525003773
C   C1130     1.0  0.55592  0.86331  0.22638  1.0000 -0.1096123868
C   C1131     1.0  0.56881  0.87794  0.20213  1.0000 -0.1026087756
C   C1132     1.0  0.56944  0.54723  0.42240  1.0000 -0.0905960428
C   C1133     1.0  0.72696  0.51247  0.36102  1.0000 -0.1096123868
C   C1134     1.0  0.70539  0.50403  0.37603  1.0000 -0.1096123868
C   C1135     1.0  0.85054  0.42746  0.31679  1.0000 -0.1096123868
C   C1136     1.0  0.83063  0.47489  0.31227  1.0000 0.611545194
C   C1137     1.0  0.83104  0.45167  0.31089  1.0000 -0.0525003773
C   C1138     1.0  0.81170  0.45304  0.30458  1.0000 -0.1096123868
C   C1139     1.0  0.95726  0.64843  0.18594  1.0000 -0.1096123868
C   C1140     1.0  0.96258  0.62501  0.15936  1.0000 0.6173712273
C   C1141     1.0  0.96494  0.62494  0.18218  1.0000 -0.0428761903
C   C1142     1.0  0.97322  0.60143  0.20145  1.0000 -0.1181568617
C   C1143     1.0  0.86389  0.70516  0.16297  1.0000 -0.1181568617
C   C1144     1.0  0.88804  0.66831  0.14404  1.0000 0.611545194
C   C1145     1.0  0.86360  0.68530  0.15870  1.0000 -0.0428761903
C   C1146     1.0  0.84085  0.72083  0.17681  1.0000 -0.1181568617
C   C1147     1.0  0.79230  0.73261  0.20310  1.0000 0.611545194
C   C1148     1.0  0.81672  0.71726  0.18675  1.0000 -0.0428761903
C   C1149     1.0  0.83943  0.68190  0.16851  1.0000 -0.1181568617
C   C1150     1.0  0.81647  0.69757  0.18222  1.0000 -0.1181568617
C   C1151     1.0  0.77212  0.62099  0.28425  1.0000 -0.1181568617
C   C1152     1.0  0.76276  0.64841  0.27520  1.0000 -0.0905960428
C   C1153     1.0  0.89950  0.53632  0.32224  1.0000 -0.1096123868
C   C1154     1.0  0.85700  0.52830  0.34166  1.0000 0.6038165048
C   C1155     1.0  0.87369  0.53987  0.33972  1.0000 -0.0560962171
C   C1156     1.0  0.91423  0.54938  0.31889  1.0000 -0.1096123868
C   C1157     1.0  0.92138  0.66808  0.07796  1.0000 0.6038165048
C   C1158     1.0  0.90339  0.56615  0.33299  1.0000 -0.0525003773
C   C1159     1.0  0.86331  0.55592  0.35438  1.0000 -0.1096123868
C   C1160     1.0  0.87794  0.56881  0.35111  1.0000 -0.1096123868
C   C1161     1.0  0.54723  0.42240  0.56944  1.0000 -0.0905960428
C   C1162     1.0  0.51247  0.36102  0.72696  1.0000 -0.1096123868
C   C1163     1.0  0.50403  0.37603  0.70539  1.0000 -0.1096123868
C   C1164     1.0  0.42746  0.31679  0.85054  1.0000 -0.1096123868
C   C1165     1.0  0.47489  0.31227  0.83063  1.0000 0.611545194
C   C1166     1.0  0.45167  0.31089  0.83104  1.0000 -0.0525003773
C   C1167     1.0  0.45304  0.30458  0.81170  1.0000 -0.1096123868
C   C1168     1.0  0.64843  0.18594  0.95726  1.0000 -0.1096123868
C   C1169     1.0  0.62501  0.15936  0.96258  1.0000 0.6173712273
C   C1170     1.0  0.62494  0.18218  0.96494  1.0000 -0.0428761903
C   C1171     1.0  0.60143  0.20145  0.97322  1.0000 -0.1181568617
C   C1172     1.0  0.70516  0.16297  0.86389  1.0000 -0.1181568617
C   C1173     1.0  0.66831  0.14404  0.88804  1.0000 0.611545194
C   C1174     1.0  0.68530  0.15870  0.86360  1.0000 -0.0428761903
C   C1175     1.0  0.72083  0.17681  0.84085  1.0000 -0.1181568617
C   C1176     1.0  0.73261  0.20310  0.79230  1.0000 0.611545194
C   C1177     1.0  0.71726  0.18675  0.81672  1.0000 -0.0428761903
C   C1178     1.0  0.68190  0.16851  0.83943  1.0000 -0.1181568617
C   C1179     1.0  0.69757  0.18222  0.81647  1.0000 -0.1096123868
C   C1180     1.0  0.62099  0.28425  0.77212  1.0000 -0.1181568617
C   C1181     1.0  0.64841  0.27520  0.76276  1.0000 -0.0905960428
C   C1182     1.0  0.53632  0.32224  0.89950  1.0000 -0.1096123868
C   C1183     1.0  0.52830  0.34166  0.85700  1.0000 0.6038165048
C   C1184     1.0  0.53987  0.33972  0.87369  1.0000 -0.0525003773
C   C1185     1.0  0.54938  0.31889  0.91423  1.0000 -0.1096123868
C   C1186     1.0  0.66808  0.07796  0.92138  1.0000 0.6038165048
C   C1187     1.0  0.56615  0.33299  0.90339  1.0000 -0.0525003773
C   C1188     1.0  0.55592  0.35438  0.86331  1.0000 -0.1096123868
C   C1189     1.0  0.56881  0.35111  0.87794  1.0000 -0.1096123868
C   C1190     1.0  0.56944  0.46092  0.54723  1.0000 -0.0905960428
C   C1191     1.0  0.72696  0.39955  0.51247  1.0000 -0.1096123868
C   C1192     1.0  0.70539  0.41455  0.50403  1.0000 -0.1096123868
C   C1193     1.0  0.85054  0.40521  0.42746  1.0000 -0.1096123868
C   C1194     1.0  0.83063  0.38220  0.47489  1.0000 0.611545194
C   C1195     1.0  0.83104  0.40641  0.45167  1.0000 -0.0525003773
C   C1196     1.0  0.81170  0.43068  0.45304  1.0000 -0.1096123868
C   C1197     1.0  0.95726  0.20837  0.64843  1.0000 -0.1096123868
C   C1198     1.0  0.96258  0.25305  0.62501  1.0000 0.6173712273
C   C1199     1.0  0.96494  0.22795  0.62494  1.0000 -0.0428761903
C   C1200     1.0  0.97322  0.22390  0.60143  1.0000 -0.1181568617
C   C1201     1.0  0.86389  0.26799  0.70516  1.0000 -0.1181568617
C   C1202     1.0  0.88804  0.29961  0.66831  1.0000 0.611545194
C   C1203     1.0  0.86360  0.29240  0.68530  1.0000 -0.0428761903
C   C1204     1.0  0.84085  0.26152  0.72083  1.0000 -0.1181568617
C   C1205     1.0  0.79230  0.27199  0.73261  1.0000 0.611545194
C   C1206     1.0  0.81672  0.27927  0.71726  1.0000 -0.0428761903
C   C1207     1.0  0.83943  0.31016  0.68190  1.0000 -0.1181568617
C   C1208     1.0  0.81647  0.30374  0.69757  1.0000 -0.1096123868
C   C1209     1.0  0.77212  0.32264  0.62099  1.0000 -0.1181568617
C   C1210     1.0  0.76276  0.31363  0.64841  1.0000 -0.0905960428
C   C1211     1.0  0.89950  0.24194  0.53632  1.0000 -0.1096123868
C   C1212     1.0  0.85700  0.27304  0.52830  1.0000 0.6038165048
C   C1213     1.0  0.87369  0.24672  0.53987  1.0000 -0.0525003773
C   C1214     1.0  0.91423  0.21750  0.54938  1.0000 -0.1096123868
C   C1215     1.0  0.92138  0.33257  0.66808  1.0000 0.6038165048
C   C1216     1.0  0.90339  0.19747  0.56615  1.0000 -0.0525003773
C   C1217     1.0  0.86331  0.22638  0.55592  1.0000 -0.1096123868
C   C1218     1.0  0.87794  0.20213  0.56881  1.0000 -0.1096123868
C   C1219     1.0  0.42240  0.54723  0.46092  1.0000 -0.0905960428
C   C1220     1.0  0.36102  0.51247  0.39955  1.0000 -0.1096123868
C   C1221     1.0  0.37603  0.50403  0.41455  1.0000 -0.1096123868
C   C1222     1.0  0.31679  0.42746  0.40521  1.0000 -0.1096123868
C   C1223     1.0  0.31227  0.47489  0.38220  1.0000 0.611545194
C   C1224     1.0  0.31089  0.45167  0.40641  1.0000 -0.0525003773
C   C1225     1.0  0.30458  0.45304  0.43068  1.0000 -0.1096123868
C   C1226     1.0  0.18594  0.64843  0.20837  1.0000 -0.1181568617
C   C1227     1.0  0.15936  0.62501  0.25305  1.0000 0.6173712273
C   C1228     1.0  0.18218  0.62494  0.22795  1.0000 -0.0428761903
C   C1229     1.0  0.20145  0.60143  0.22390  1.0000 -0.1181568617
C   C1230     1.0  0.16297  0.70516  0.26799  1.0000 -0.1181568617
C   C1231     1.0  0.14404  0.66831  0.29961  1.0000 0.611545194
C   C1232     1.0  0.15870  0.68530  0.29240  1.0000 -0.0428761903
C   C1233     1.0  0.17681  0.72083  0.26152  1.0000 -0.1181568617
C   C1234     1.0  0.20310  0.73261  0.27199  1.0000 0.611545194
C   C1235     1.0  0.18675  0.71726  0.27927  1.0000 -0.0428761903
C   C1236     1.0  0.16851  0.68190  0.31016  1.0000 -0.1181568617
C   C1237     1.0  0.18222  0.69757  0.30374  1.0000 -0.1181568617
C   C1238     1.0  0.28425  0.62099  0.32264  1.0000 -0.1181568617
C   C1239     1.0  0.27520  0.64841  0.31363  1.0000 -0.0905960428
C   C1240     1.0  0.32224  0.53632  0.24194  1.0000 -0.1096123868
C   C1241     1.0  0.34166  0.52830  0.27304  1.0000 0.6038165048
C   C1242     1.0  0.33972  0.53987  0.24672  1.0000 -0.0525003773
C   C1243     1.0  0.31889  0.54938  0.21750  1.0000 -0.1096123868
C   C1244     1.0  0.07796  0.66808  0.33257  1.0000 0.6038165048
C   C1245     1.0  0.33299  0.56615  0.19747  1.0000 -0.0525003773
C   C1246     1.0  0.35438  0.55592  0.22638  1.0000 -0.1096123868
C   C1247     1.0  0.35111  0.56881  0.20213  1.0000 -0.1096123868
C   C1248     1.0  0.46092  0.56944  0.42240  1.0000 -0.0905960428
C   C1249     1.0  0.39955  0.72696  0.36102  1.0000 -0.1096123868
C   C1250     1.0  0.41455  0.70539  0.37603  1.0000 -0.1096123868
C   C1251     1.0  0.40521  0.85054  0.31679  1.0000 -0.1096123868
C   C1252     1.0  0.38220  0.83063  0.31227  1.0000 0.611545194
C   C1253     1.0  0.40641  0.83104  0.31089  1.0000 -0.0525003773
C   C1254     1.0  0.43068  0.81170  0.30458  1.0000 -0.1096123868
C   C1255     1.0  0.20837  0.95726  0.18594  1.0000 -0.1096123868
C   C1256     1.0  0.25305  0.96258  0.15936  1.0000 0.6173712273
C   C1257     1.0  0.22795  0.96494  0.18218  1.0000 -0.0428761903
C   C1258     1.0  0.22390  0.97322  0.20145  1.0000 -0.1181568617
C   C1259     1.0  0.26799  0.86389  0.16297  1.0000 -0.1181568617
C   C1260     1.0  0.29961  0.88804  0.14404  1.0000 0.611545194
C   C1261     1.0  0.29240  0.86360  0.15870  1.0000 -0.0428761903
C   C1262     1.0  0.26152  0.84085  0.17681  1.0000 -0.1181568617
C   C1263     1.0  0.27199  0.79230  0.20310  1.0000 0.611545194
C   C1264     1.0  0.27927  0.81672  0.18675  1.0000 -0.0428761903
C   C1265     1.0  0.31016  0.83943  0.16851  1.0000 -0.1181568617
C   C1266     1.0  0.30374  0.81647  0.18222  1.0000 -0.1181568617
C   C1267     1.0  0.32264  0.77212  0.28425  1.0000 -0.1181568617
C   C1268     1.0  0.31363  0.76276  0.27520  1.0000 -0.0905960428
C   C1269     1.0  0.24194  0.89950  0.32224  1.0000 -0.1096123868
C   C1270     1.0  0.27304  0.85700  0.34166  1.0000 0.6038165048
C   C1271     1.0  0.24672  0.87369  0.33972  1.0000 -0.0560962171
C   C1272     1.0  0.21750  0.91423  0.31889  1.0000 -0.1096123868
C   C1273     1.0  0.33257  0.92138  0.07796  1.0000 0.6038165048
C   C1274     1.0  0.19747  0.90339  0.33299  1.0000 -0.0525003773
C   C1275     1.0  0.22638  0.86331  0.35438  1.0000 -0.1096123868
C   C1276     1.0  0.20213  0.87794  0.35111  1.0000 -0.1096123868
C   C1277     1.0  0.46092  0.54723  0.56944  1.0000 -0.0905960428
C   C1278     1.0  0.39955  0.51247  0.72696  1.0000 -0.1096123868
C   C1279     1.0  0.41455  0.50403  0.70539  1.0000 -0.1096123868
C   C1280     1.0  0.40521  0.42746  0.85054  1.0000 -0.1096123868
C   C1281     1.0  0.38220  0.47489  0.83063  1.0000 0.611545194
C   C1282     1.0  0.40641  0.45167  0.83104  1.0000 -0.0525003773
C   C1283     1.0  0.43068  0.45304  0.81170  1.0000 -0.1096123868
C   C1284     1.0  0.20837  0.64843  0.95726  1.0000 -0.1096123868
C   C1285     1.0  0.25305  0.62501  0.96258  1.0000 0.6173712273
C   C1286     1.0  0.22795  0.62494  0.96494  1.0000 -0.0428761903
C   C1287     1.0  0.22390  0.60143  0.97322  1.0000 -0.1181568617
C   C1288     1.0  0.26799  0.70516  0.86389  1.0000 -0.1181568617
C   C1289     1.0  0.29961  0.66831  0.88804  1.0000 0.611545194
C   C1290     1.0  0.29240  0.68530  0.86360  1.0000 -0.0428761903
C   C1291     1.0  0.26152  0.72083  0.84085  1.0000 -0.1181568617
C   C1292     1.0  0.27199  0.73261  0.79230  1.0000 0.611545194
C   C1293     1.0  0.27927  0.71726  0.81672  1.0000 -0.0428761903
C   C1294     1.0  0.31016  0.68190  0.83943  1.0000 -0.1181568617
C   C1295     1.0  0.30374  0.69757  0.81647  1.0000 -0.1096123868
C   C1296     1.0  0.32264  0.62099  0.77212  1.0000 -0.1181568617
C   C1297     1.0  0.31363  0.64841  0.76276  1.0000 -0.0905960428
C   C1298     1.0  0.24194  0.53632  0.89950  1.0000 -0.1096123868
C   C1299     1.0  0.27304  0.52830  0.85700  1.0000 0.6038165048
C   C1300     1.0  0.24672  0.53987  0.87369  1.0000 -0.0525003773
C   C1301     1.0  0.21750  0.54938  0.91423  1.0000 -0.1096123868
C   C1302     1.0  0.33257  0.66808  0.92138  1.0000 0.6038165048
C   C1303     1.0  0.19747  0.56615  0.90339  1.0000 -0.0525003773
C   C1304     1.0  0.22638  0.55592  0.86331  1.0000 -0.1096123868
C   C1305     1.0  0.20213  0.56881  0.87794  1.0000 -0.1096123868
C   C1306     1.0  0.42240  0.56944  0.54723  1.0000 -0.0905960428
C   C1307     1.0  0.36102  0.72696  0.51247  1.0000 -0.1096123868
C   C1308     1.0  0.37603  0.70539  0.50403  1.0000 -0.1096123868
C   C1309     1.0  0.31679  0.85054  0.42746  1.0000 -0.1096123868
C   C1310     1.0  0.31227  0.83063  0.47489  1.0000 0.611545194
C   C1311     1.0  0.31089  0.83104  0.45167  1.0000 -0.0525003773
C   C1312     1.0  0.30458  0.81170  0.45304  1.0000 -0.1096123868
C   C1313     1.0  0.18594  0.95726  0.64843  1.0000 -0.1096123868
C   C1314     1.0  0.15936  0.96258  0.62501  1.0000 0.6173712273
C   C1315     1.0  0.18218  0.96494  0.62494  1.0000 -0.0428761903
C   C1316     1.0  0.20145  0.97322  0.60143  1.0000 -0.1181568617
C   C1317     1.0  0.16297  0.86389  0.70516  1.0000 -0.1181568617
C   C1318     1.0  0.14404  0.88804  0.66831  1.0000 0.611545194
C   C1319     1.0  0.15870  0.86360  0.68530  1.0000 -0.0428761903
C   C1320     1.0  0.17681  0.84085  0.72083  1.0000 -0.1181568617
C   C1321     1.0  0.20310  0.79230  0.73261  1.0000 0.611545194
C   C1322     1.0  0.18675  0.81672  0.71726  1.0000 -0.0428761903
C   C1323     1.0  0.16851  0.83943  0.68190  1.0000 -0.1181568617
C   C1324     1.0  0.18222  0.81647  0.69757  1.0000 -0.1096123868
C   C1325     1.0  0.28425  0.77212  0.62099  1.0000 -0.1181568617
C   C1326     1.0  0.27520  0.76276  0.64841  1.0000 -0.0905960428
C   C1327     1.0  0.32224  0.89950  0.53632  1.0000 -0.1096123868
C   C1328     1.0  0.34166  0.85700  0.52830  1.0000 0.6038165048
C   C1329     1.0  0.33972  0.87369  0.53987  1.0000 -0.0525003773
C   C1330     1.0  0.31889  0.91423  0.54938  1.0000 -0.1096123868
C   C1331     1.0  0.07796  0.92138  0.66808  1.0000 0.6038165048
C   C1332     1.0  0.33299  0.90339  0.56615  1.0000 -0.0525003773
C   C1333     1.0  0.35438  0.86331  0.55592  1.0000 -0.1096123868
C   C1334     1.0  0.35111  0.87794  0.56881  1.0000 -0.1096123868
C   C1335     1.0  0.56944  0.42240  0.46092  1.0000 -0.0905960428
C   C1336     1.0  0.72696  0.36102  0.39955  1.0000 -0.1096123868
C   C1337     1.0  0.70539  0.37603  0.41455  1.0000 -0.1096123868
C   C1338     1.0  0.85054  0.31679  0.40521  1.0000 -0.1096123868
C   C1339     1.0  0.83063  0.31227  0.38220  1.0000 0.611545194
C   C1340     1.0  0.83104  0.31089  0.40641  1.0000 -0.0525003773
C   C1341     1.0  0.81170  0.30458  0.43068  1.0000 -0.1096123868
C   C1342     1.0  0.95726  0.18594  0.20837  1.0000 -0.1096123868
C   C1343     1.0  0.96258  0.15936  0.25305  1.0000 0.6173712273
C   C1344     1.0  0.96494  0.18218  0.22795  1.0000 -0.0428761903
C   C1345     1.0  0.97322  0.20145  0.22390  1.0000 -0.1181568617
C   C1346     1.0  0.86389  0.16297  0.26799  1.0000 -0.1181568617
C   C1347     1.0  0.88804  0.14404  0.29961  1.0000 0.611545194
C   C1348     1.0  0.86360  0.15870  0.29240  1.0000 -0.0428761903
C   C1349     1.0  0.84085  0.17681  0.26152  1.0000 -0.1181568617
C   C1350     1.0  0.79230  0.20310  0.27199  1.0000 0.611545194
C   C1351     1.0  0.81672  0.18675  0.27927  1.0000 -0.0428761903
C   C1352     1.0  0.83943  0.16851  0.31016  1.0000 -0.1181568617
C   C1353     1.0  0.81647  0.18222  0.30374  1.0000 -0.1181568617
C   C1354     1.0  0.77212  0.28425  0.32264  1.0000 -0.1181568617
C   C1355     1.0  0.76276  0.27520  0.31363  1.0000 -0.0905960428
C   C1356     1.0  0.89950  0.32224  0.24194  1.0000 -0.1096123868
C   C1357     1.0  0.85700  0.34166  0.27304  1.0000 0.6038165048
C   C1358     1.0  0.87369  0.33972  0.24672  1.0000 -0.0525003773
C   C1359     1.0  0.91423  0.31889  0.21750  1.0000 -0.1096123868
C   C1360     1.0  0.92138  0.07796  0.33257  1.0000 0.6038165048
C   C1361     1.0  0.90339  0.33299  0.19747  1.0000 -0.0525003773
C   C1362     1.0  0.86331  0.35438  0.22638  1.0000 -0.1096123868
C   C1363     1.0  0.87794  0.35111  0.20213  1.0000 -0.1096123868
C   C1364     1.0  0.54723  0.46092  0.42240  1.0000 -0.0905960428
C   C1365     1.0  0.51247  0.39955  0.36102  1.0000 -0.1096123868
C   C1366     1.0  0.50403  0.41455  0.37603  1.0000 -0.1096123868
C   C1367     1.0  0.42746  0.40521  0.31679  1.0000 -0.1096123868
C   C1368     1.0  0.47489  0.38220  0.31227  1.0000 0.611545194
C   C1369     1.0  0.45167  0.40641  0.31089  1.0000 -0.0525003773
C   C1370     1.0  0.45304  0.43068  0.30458  1.0000 -0.1096123868
C   C1371     1.0  0.64843  0.20837  0.18594  1.0000 -0.1096123868
C   C1372     1.0  0.62501  0.25305  0.15936  1.0000 0.6173712273
C   C1373     1.0  0.62494  0.22795  0.18218  1.0000 -0.0428761903
C   C1374     1.0  0.60143  0.22390  0.20145  1.0000 -0.1181568617
C   C1375     1.0  0.70516  0.26799  0.16297  1.0000 -0.1181568617
C   C1376     1.0  0.66831  0.29961  0.14404  1.0000 0.611545194
C   C1377     1.0  0.68530  0.29240  0.15870  1.0000 -0.0428761903
C   C1378     1.0  0.72083  0.26152  0.17681  1.0000 -0.1181568617
C   C1379     1.0  0.73261  0.27199  0.20310  1.0000 0.611545194
C   C1380     1.0  0.71726  0.27927  0.18675  1.0000 -0.0428761903
C   C1381     1.0  0.68190  0.31016  0.16851  1.0000 -0.1181568617
C   C1382     1.0  0.69757  0.30374  0.18222  1.0000 -0.1096123868
C   C1383     1.0  0.62099  0.32264  0.28425  1.0000 -0.1181568617
C   C1384     1.0  0.64841  0.31363  0.27520  1.0000 -0.0905960428
C   C1385     1.0  0.53632  0.24194  0.32224  1.0000 -0.1096123868
C   C1386     1.0  0.52830  0.27304  0.34166  1.0000 0.6038165048
C   C1387     1.0  0.53987  0.24672  0.33972  1.0000 -0.0525003773
C   C1388     1.0  0.54938  0.21750  0.31889  1.0000 -0.1096123868
C   C1389     1.0  0.66808  0.33257  0.07796  1.0000 0.6038165048
C   C1390     1.0  0.56615  0.19747  0.33299  1.0000 -0.0525003773
C   C1391     1.0  0.55592  0.22638  0.35438  1.0000 -0.1096123868
C   C1392     1.0  0.56881  0.20213  0.35111  1.0000 -0.1096123868
C   C1393     1.0  0.35723  0.35723  0.52298  1.0000 0.6038165048
C   C1394     1.0  0.37266  0.37266  0.51646  1.0000 -0.0560962171
C   C1395     1.0  0.41918  0.41918  0.48908  1.0000 0.6038165048
C   C1396     1.0  0.40303  0.40303  0.49938  1.0000 -0.0560962171
C   C1397     1.0  0.31762  0.31762  0.57750  1.0000 0.611545194
C   C1398     1.0  0.30807  0.30807  0.60680  1.0000 -0.0428761903
C   C1399     1.0  0.28000  0.28000  0.69049  1.0000 0.5930395235
C   C1400     1.0  0.28965  0.28965  0.66272  1.0000 -0.1026087756
C   C1401     1.0  0.35723  0.35723  0.76256  1.0000 0.6038165048
C   C1402     1.0  0.37266  0.37266  0.73822  1.0000 -0.0560962171
C   C1403     1.0  0.41918  0.41918  0.67257  1.0000 0.6038165048
C   C1404     1.0  0.40303  0.40303  0.69455  1.0000 -0.0560962171
C   C1405     1.0  0.31762  0.31762  0.78725  1.0000 0.611545194
C   C1406     1.0  0.30807  0.30807  0.77705  1.0000 -0.0428761903
C   C1407     1.0  0.28000  0.28000  0.74951  1.0000 0.5930395235
C   C1408     1.0  0.28965  0.28965  0.75798  1.0000 -0.1026087756
C   C1409     1.0  0.52298  0.76256  0.35723  1.0000 0.6038165048
C   C1410     1.0  0.51646  0.73822  0.37266  1.0000 -0.0560962171
C   C1411     1.0  0.48908  0.67257  0.41918  1.0000 0.6038165048
C   C1412     1.0  0.49938  0.69455  0.40303  1.0000 -0.0560962171
C   C1413     1.0  0.57750  0.78725  0.31762  1.0000 0.611545194
C   C1414     1.0  0.60680  0.77705  0.30807  1.0000 -0.0428761903
C   C1415     1.0  0.69049  0.74951  0.28000  1.0000 0.5930395235
C   C1416     1.0  0.66272  0.75798  0.28965  1.0000 -0.1026087756
C   C1417     1.0  0.76256  0.52298  0.35723  1.0000 0.6038165048
C   C1418     1.0  0.73822  0.51646  0.37266  1.0000 -0.0560962171
C   C1419     1.0  0.67257  0.48908  0.41918  1.0000 0.6038165048
C   C1420     1.0  0.69455  0.49938  0.40303  1.0000 -0.0560962171
C   C1421     1.0  0.78725  0.57750  0.31762  1.0000 0.611545194
C   C1422     1.0  0.77705  0.60680  0.30807  1.0000 -0.0428761903
C   C1423     1.0  0.74951  0.69049  0.28000  1.0000 0.5930395235
C   C1424     1.0  0.75798  0.66272  0.28965  1.0000 -0.1026087756
C   C1425     1.0  0.52298  0.35723  0.35723  1.0000 0.6038165048
C   C1426     1.0  0.51646  0.37266  0.37266  1.0000 -0.0560962171
C   C1427     1.0  0.48908  0.41918  0.41918  1.0000 0.6038165048
C   C1428     1.0  0.49938  0.40303  0.40303  1.0000 -0.0560962171
C   C1429     1.0  0.57750  0.31762  0.31762  1.0000 0.611545194
C   C1430     1.0  0.60680  0.30807  0.30807  1.0000 -0.0428761903
C   C1431     1.0  0.69049  0.28000  0.28000  1.0000 0.5930395235
C   C1432     1.0  0.66272  0.28965  0.28965  1.0000 -0.1026087756
C   C1433     1.0  0.76256  0.35723  0.35723  1.0000 0.6038165048
C   C1434     1.0  0.73822  0.37266  0.37266  1.0000 -0.0560962171
C   C1435     1.0  0.67257  0.41918  0.41918  1.0000 0.6038165048
C   C1436     1.0  0.69455  0.40303  0.40303  1.0000 -0.0560962171
C   C1437     1.0  0.78725  0.31762  0.31762  1.0000 0.611545194
C   C1438     1.0  0.77705  0.30807  0.30807  1.0000 -0.0428761903
C   C1439     1.0  0.74951  0.28000  0.28000  1.0000 0.5930395235
C   C1440     1.0  0.75798  0.28965  0.28965  1.0000 -0.1026087756
C   C1441     1.0  0.35723  0.52298  0.76256  1.0000 0.6038165048
C   C1442     1.0  0.37266  0.51646  0.73822  1.0000 -0.0560962171
C   C1443     1.0  0.41918  0.48908  0.67257  1.0000 0.6038165048
C   C1444     1.0  0.40303  0.49938  0.69455  1.0000 -0.0560962171
C   C1445     1.0  0.31762  0.57750  0.78725  1.0000 0.611545194
C   C1446     1.0  0.30807  0.60680  0.77705  1.0000 -0.0428761903
C   C1447     1.0  0.28000  0.69049  0.74951  1.0000 0.5930395235
C   C1448     1.0  0.28965  0.66272  0.75798  1.0000 -0.1026087756
C   C1449     1.0  0.35723  0.76256  0.52298  1.0000 0.6038165048
C   C1450     1.0  0.37266  0.73822  0.51646  1.0000 -0.0560962171
C   C1451     1.0  0.41918  0.67257  0.48908  1.0000 0.6038165048
C   C1452     1.0  0.40303  0.69455  0.49938  1.0000 -0.0560962171
C   C1453     1.0  0.31762  0.78725  0.57750  1.0000 0.611545194
C   C1454     1.0  0.30807  0.77705  0.60680  1.0000 -0.0428761903
C   C1455     1.0  0.28000  0.74951  0.69049  1.0000 0.5930395235
C   C1456     1.0  0.28965  0.75798  0.66272  1.0000 -0.1026087756
C   C1457     1.0  0.35723  0.52298  0.35723  1.0000 0.6038165048
C   C1458     1.0  0.37266  0.51646  0.37266  1.0000 -0.0560962171
C   C1459     1.0  0.41918  0.48908  0.41918  1.0000 0.6038165048
C   C1460     1.0  0.40303  0.49938  0.40303  1.0000 -0.0560962171
C   C1461     1.0  0.31762  0.57750  0.31762  1.0000 0.611545194
C   C1462     1.0  0.30807  0.60680  0.30807  1.0000 -0.0428761903
C   C1463     1.0  0.28000  0.69049  0.28000  1.0000 0.5930395235
C   C1464     1.0  0.28965  0.66272  0.28965  1.0000 -0.1026087756
C   C1465     1.0  0.35723  0.76256  0.35723  1.0000 0.6038165048
C   C1466     1.0  0.37266  0.73822  0.37266  1.0000 -0.0560962171
C   C1467     1.0  0.41918  0.67257  0.41918  1.0000 0.6038165048
C   C1468     1.0  0.40303  0.69455  0.40303  1.0000 -0.0560962171
C   C1469     1.0  0.31762  0.78725  0.31762  1.0000 0.611545194
C   C1470     1.0  0.30807  0.77705  0.30807  1.0000 -0.0428761903
C   C1471     1.0  0.28000  0.74951  0.28000  1.0000 0.5930395235
C   C1472     1.0  0.28965  0.75798  0.28965  1.0000 -0.1026087756
C   C1473     1.0  0.76256  0.35723  0.52298  1.0000 0.6038165048
C   C1474     1.0  0.73822  0.37266  0.51646  1.0000 -0.0560962171
C   C1475     1.0  0.67257  0.41918  0.48908  1.0000 0.6038165048
C   C1476     1.0  0.69455  0.40303  0.49938  1.0000 -0.0560962171
C   C1477     1.0  0.78725  0.31762  0.57750  1.0000 0.611545194
C   C1478     1.0  0.77705  0.30807  0.60680  1.0000 -0.0428761903
C   C1479     1.0  0.74951  0.28000  0.69049  1.0000 0.5930395235
C   C1480     1.0  0.75798  0.28965  0.66272  1.0000 -0.1026087756
C   C1481     1.0  0.52298  0.35723  0.76256  1.0000 0.6038165048
C   C1482     1.0  0.51646  0.37266  0.73822  1.0000 -0.0560962171
C   C1483     1.0  0.48908  0.41918  0.67257  1.0000 0.6038165048
C   C1484     1.0  0.49938  0.40303  0.69455  1.0000 -0.0560962171
C   C1485     1.0  0.57750  0.31762  0.78725  1.0000 0.611545194
C   C1486     1.0  0.60680  0.30807  0.77705  1.0000 -0.0428761903
C   C1487     1.0  0.69049  0.28000  0.74951  1.0000 0.5930395235
C   C1488     1.0  0.66272  0.28965  0.75798  1.0000 -0.1026087756
C   C1489     1.0  0.89277  0.89277  0.48744  1.0000 0.6038165048
C   C1490     1.0  0.87734  0.87734  0.51178  1.0000 -0.0560962171
C   C1491     1.0  0.83082  0.83082  0.57743  1.0000 0.6038165048
C   C1492     1.0  0.84697  0.84697  0.55545  1.0000 -0.0560962171
C   C1493     1.0  0.93238  0.93238  0.46275  1.0000 0.611545194
C   C1494     1.0  0.94193  0.94193  0.47295  1.0000 -0.0428761903
C   C1495     1.0  0.97000  0.97000  0.50049  1.0000 0.5930395235
C   C1496     1.0  0.96035  0.96035  0.49202  1.0000 -0.1026087756
C   C1497     1.0  0.89277  0.89277  0.72702  1.0000 0.6038165048
C   C1498     1.0  0.87734  0.87734  0.73354  1.0000 -0.0560962171
C   C1499     1.0  0.83082  0.83082  0.76092  1.0000 0.6038165048
C   C1500     1.0  0.84697  0.84697  0.75062  1.0000 -0.0560962171
C   C1501     1.0  0.93238  0.93238  0.67250  1.0000 0.611545194
C   C1502     1.0  0.94193  0.94193  0.64320  1.0000 -0.0428761903
C   C1503     1.0  0.97000  0.97000  0.55951  1.0000 0.5930395235
C   C1504     1.0  0.96035  0.96035  0.58728  1.0000 -0.1026087756
C   C1505     1.0  0.72702  0.48744  0.89277  1.0000 0.6038165048
C   C1506     1.0  0.73354  0.51178  0.87734  1.0000 -0.0560962171
C   C1507     1.0  0.76092  0.57743  0.83082  1.0000 0.6038165048
C   C1508     1.0  0.75062  0.55545  0.84697  1.0000 -0.0560962171
C   C1509     1.0  0.67250  0.46275  0.93238  1.0000 0.611545194
C   C1510     1.0  0.64320  0.47295  0.94193  1.0000 -0.0428761903
C   C1511     1.0  0.55951  0.50049  0.97000  1.0000 0.5930395235
C   C1512     1.0  0.58728  0.49202  0.96035  1.0000 -0.1026087756
C   C1513     1.0  0.48744  0.72702  0.89277  1.0000 0.6038165048
C   C1514     1.0  0.51178  0.73354  0.87734  1.0000 -0.0560962171
C   C1515     1.0  0.57743  0.76092  0.83082  1.0000 0.6038165048
C   C1516     1.0  0.55545  0.75062  0.84697  1.0000 -0.0560962171
C   C1517     1.0  0.46275  0.67250  0.93238  1.0000 0.611545194
C   C1518     1.0  0.47295  0.64320  0.94193  1.0000 -0.0428761903
C   C1519     1.0  0.50049  0.55951  0.97000  1.0000 0.5930395235
C   C1520     1.0  0.49202  0.58728  0.96035  1.0000 -0.1026087756
C   C1521     1.0  0.72702  0.89277  0.48744  1.0000 0.6038165048
C   C1522     1.0  0.73354  0.87734  0.51178  1.0000 -0.0560962171
C   C1523     1.0  0.76092  0.83082  0.57743  1.0000 0.6038165048
C   C1524     1.0  0.75062  0.84697  0.55545  1.0000 -0.0560962171
C   C1525     1.0  0.67250  0.93238  0.46275  1.0000 0.611545194
C   C1526     1.0  0.64320  0.94193  0.47295  1.0000 -0.0428761903
C   C1527     1.0  0.55951  0.97000  0.50049  1.0000 0.5930395235
C   C1528     1.0  0.58728  0.96035  0.49202  1.0000 -0.1026087756
C   C1529     1.0  0.48744  0.89277  0.72702  1.0000 0.6038165048
C   C1530     1.0  0.51178  0.87734  0.73354  1.0000 -0.0560962171
C   C1531     1.0  0.57743  0.83082  0.76092  1.0000 0.6038165048
C   C1532     1.0  0.55545  0.84697  0.75062  1.0000 -0.0560962171
C   C1533     1.0  0.46275  0.93238  0.67250  1.0000 0.611545194
C   C1534     1.0  0.47295  0.94193  0.64320  1.0000 -0.0428761903
C   C1535     1.0  0.50049  0.97000  0.55951  1.0000 0.5930395235
C   C1536     1.0  0.49202  0.96035  0.58728  1.0000 -0.1026087756
C   C1537     1.0  0.89277  0.72702  0.89277  1.0000 0.6038165048
C   C1538     1.0  0.87734  0.73354  0.87734  1.0000 -0.0560962171
C   C1539     1.0  0.83082  0.76092  0.83082  1.0000 0.6038165048
C   C1540     1.0  0.84697  0.75062  0.84697  1.0000 -0.0560962171
C   C1541     1.0  0.93238  0.67250  0.93238  1.0000 0.611545194
C   C1542     1.0  0.94193  0.64320  0.94193  1.0000 -0.0428761903
C   C1543     1.0  0.97000  0.55951  0.97000  1.0000 0.5930395235
C   C1544     1.0  0.96035  0.58728  0.96035  1.0000 -0.1026087756
C   C1545     1.0  0.89277  0.48744  0.89277  1.0000 0.6038165048
C   C1546     1.0  0.87734  0.51178  0.87734  1.0000 -0.0560962171
C   C1547     1.0  0.83082  0.57743  0.83082  1.0000 0.6038165048
C   C1548     1.0  0.84697  0.55545  0.84697  1.0000 -0.0560962171
C   C1549     1.0  0.93238  0.46275  0.93238  1.0000 0.611545194
C   C1550     1.0  0.94193  0.47295  0.94193  1.0000 -0.0428761903
C   C1551     1.0  0.97000  0.50049  0.97000  1.0000 0.5930395235
C   C1552     1.0  0.96035  0.49202  0.96035  1.0000 -0.1026087756
C   C1553     1.0  0.89277  0.72702  0.48744  1.0000 0.6038165048
C   C1554     1.0  0.87734  0.73354  0.51178  1.0000 -0.0560962171
C   C1555     1.0  0.83082  0.76092  0.57743  1.0000 0.6038165048
C   C1556     1.0  0.84697  0.75062  0.55545  1.0000 -0.0560962171
C   C1557     1.0  0.93238  0.67250  0.46275  1.0000 0.611545194
C   C1558     1.0  0.94193  0.64320  0.47295  1.0000 -0.0428761903
C   C1559     1.0  0.97000  0.55951  0.50049  1.0000 0.5930395235
C   C1560     1.0  0.96035  0.58728  0.49202  1.0000 -0.1026087756
C   C1561     1.0  0.89277  0.48744  0.72702  1.0000 0.6038165048
C   C1562     1.0  0.87734  0.51178  0.73354  1.0000 -0.0560962171
C   C1563     1.0  0.83082  0.57743  0.76092  1.0000 0.6038165048
C   C1564     1.0  0.84697  0.55545  0.75062  1.0000 -0.0560962171
C   C1565     1.0  0.93238  0.46275  0.67250  1.0000 0.611545194
C   C1566     1.0  0.94193  0.47295  0.64320  1.0000 -0.0428761903
C   C1567     1.0  0.97000  0.50049  0.55951  1.0000 0.5930395235
C   C1568     1.0  0.96035  0.49202  0.58728  1.0000 -0.1026087756
C   C1569     1.0  0.48744  0.89277  0.89277  1.0000 0.6038165048
C   C1570     1.0  0.51178  0.87734  0.87734  1.0000 -0.0560962171
C   C1571     1.0  0.57743  0.83082  0.83082  1.0000 0.6038165048
C   C1572     1.0  0.55545  0.84697  0.84697  1.0000 -0.0560962171
C   C1573     1.0  0.46275  0.93238  0.93238  1.0000 0.611545194
C   C1574     1.0  0.47295  0.94193  0.94193  1.0000 -0.0428761903
C   C1575     1.0  0.50049  0.97000  0.97000  1.0000 0.5930395235
C   C1576     1.0  0.49202  0.96035  0.96035  1.0000 -0.1026087756
C   C1577     1.0  0.72702  0.89277  0.89277  1.0000 0.6038165048
C   C1578     1.0  0.73354  0.87734  0.87734  1.0000 -0.0560962171
C   C1579     1.0  0.76092  0.83082  0.83082  1.0000 0.6038165048
C   C1580     1.0  0.75062  0.84697  0.84697  1.0000 -0.0560962171
C   C1581     1.0  0.67250  0.93238  0.93238  1.0000 0.611545194
C   C1582     1.0  0.64320  0.94193  0.94193  1.0000 -0.0428761903
C   C1583     1.0  0.55951  0.97000  0.97000  1.0000 0.5930395235
C   C1584     1.0  0.58728  0.96035  0.96035  1.0000 -0.1026087756
C   C1585     1.0  0.44280  0.44280  0.51229  1.0000 0.5762838755
C   C1586     1.0  0.44188  0.44188  0.53555  1.0000 -0.1026087756
C   C1587     1.0  0.44280  0.44280  0.60211  1.0000 0.5762838755
C   C1588     1.0  0.44188  0.44188  0.58069  1.0000 -0.1026087756
C   C1589     1.0  0.51229  0.60211  0.44280  1.0000 0.5762838755
C   C1590     1.0  0.53555  0.58069  0.44188  1.0000 -0.1026087756
C   C1591     1.0  0.60211  0.51229  0.44280  1.0000 0.5762838755
C   C1592     1.0  0.58069  0.53555  0.44188  1.0000 -0.1026087756
C   C1593     1.0  0.51229  0.44280  0.44280  1.0000 0.5762838755
C   C1594     1.0  0.53555  0.44188  0.44188  1.0000 -0.1026087756
C   C1595     1.0  0.60211  0.44280  0.44280  1.0000 0.5762838755
C   C1596     1.0  0.58069  0.44188  0.44188  1.0000 -0.1026087756
C   C1597     1.0  0.44280  0.51229  0.60211  1.0000 0.5762838755
C   C1598     1.0  0.44188  0.53555  0.58069  1.0000 -0.1026087756
C   C1599     1.0  0.44280  0.60211  0.51229  1.0000 0.5762838755
C   C1600     1.0  0.44188  0.58069  0.53555  1.0000 -0.1026087756
C   C1601     1.0  0.44280  0.51229  0.44280  1.0000 0.5762838755
C   C1602     1.0  0.44188  0.53555  0.44188  1.0000 -0.1026087756
C   C1603     1.0  0.44280  0.60211  0.44280  1.0000 0.5762838755
C   C1604     1.0  0.44188  0.58069  0.44188  1.0000 -0.1026087756
C   C1605     1.0  0.60211  0.44280  0.51229  1.0000 0.5762838755
C   C1606     1.0  0.58069  0.44188  0.53555  1.0000 -0.1026087756
C   C1607     1.0  0.51229  0.44280  0.60211  1.0000 0.5762838755
C   C1608     1.0  0.53555  0.44188  0.58069  1.0000 -0.1026087756
C   C1609     1.0  0.80720  0.80720  0.64789  1.0000 0.5762838755
C   C1610     1.0  0.80812  0.80812  0.66931  1.0000 -0.1026087756
C   C1611     1.0  0.80720  0.80720  0.73771  1.0000 0.5762838755
C   C1612     1.0  0.80812  0.80812  0.71445  1.0000 -0.1026087756
C   C1613     1.0  0.73771  0.64789  0.80720  1.0000 0.5762838755
C   C1614     1.0  0.71445  0.66931  0.80812  1.0000 -0.1026087756
C   C1615     1.0  0.64789  0.73771  0.80720  1.0000 0.5762838755
C   C1616     1.0  0.66931  0.71445  0.80812  1.0000 -0.1026087756
C   C1617     1.0  0.73771  0.80720  0.64789  1.0000 0.5762838755
C   C1618     1.0  0.71445  0.80812  0.66931  1.0000 -0.1026087756
C   C1619     1.0  0.64789  0.80720  0.73771  1.0000 0.5762838755
C   C1620     1.0  0.66931  0.80812  0.71445  1.0000 -0.1026087756
C   C1621     1.0  0.80720  0.73771  0.80720  1.0000 0.5762838755
C   C1622     1.0  0.80812  0.71445  0.80812  1.0000 -0.1026087756
C   C1623     1.0  0.80720  0.64789  0.80720  1.0000 0.5762838755
C   C1624     1.0  0.80812  0.66931  0.80812  1.0000 -0.1026087756
C   C1625     1.0  0.80720  0.73771  0.64789  1.0000 0.5762838755
C   C1626     1.0  0.80812  0.71445  0.66931  1.0000 -0.1026087756
C   C1627     1.0  0.80720  0.64789  0.73771  1.0000 0.5762838755
C   C1628     1.0  0.80812  0.66931  0.71445  1.0000 -0.1026087756
C   C1629     1.0  0.64789  0.80720  0.80720  1.0000 0.5762838755
C   C1630     1.0  0.66931  0.80812  0.80812  1.0000 -0.1026087756
C   C1631     1.0  0.73771  0.80720  0.80720  1.0000 0.5762838755
C   C1632     1.0  0.71445  0.80812  0.80812  1.0000 -0.1026087756
O   O1        1.0  0.42559  0.46103  0.50214  1.0000 -0.5711922133
O   O2        1.0  0.33327  0.36883  0.52525  1.0000 -0.5711922133
O   O3        1.0  0.40801  0.44352  0.48477  1.0000 -0.5711922133
O   O4        1.0  0.30637  0.38370  0.49673  1.0000 -0.5817735704
O   O5        1.0  0.36082  0.31969  0.47176  1.0000 -0.5711922133
O   O6        1.0  0.14341  0.25626  0.64681  1.0000 -0.5894294085
O   O7        1.0  0.09285  0.28098  0.64670  1.0000 -0.5894294085
O   O8        1.0  0.13396  0.28390  0.67277  1.0000 -0.5894294085
O   O9        1.0  0.14205  0.32149  0.65000  1.0000 -0.5894294085
O   O10       1.0  0.20797  0.24927  0.74940  1.0000 -0.5894294085
O   O11       1.0  0.21218  0.28867  0.72771  1.0000 -0.5894294085
O   O12       1.0  0.30379  0.33926  0.56556  1.0000 -0.5817735704
O   O13       1.0  0.25801  0.29346  0.70249  1.0000 -0.5817735704
O   O14       1.0  0.33112  0.29016  0.51111  1.0000 -0.5711922133
O   O15       1.0  0.27746  0.35332  0.53657  1.0000 -0.5711922133
O   O16       1.0  0.08410  0.30855  0.67227  1.0000 -0.5817735704
O   O17       1.0  0.15737  0.33907  0.59943  1.0000 -0.5580986369
O   O18       1.0  0.46103  0.42559  0.61124  1.0000 -0.5711922133
O   O19       1.0  0.36883  0.33327  0.77265  1.0000 -0.5711922133
O   O20       1.0  0.44352  0.40801  0.66370  1.0000 -0.5711922133
O   O21       1.0  0.38370  0.30637  0.81320  1.0000 -0.5817735704
O   O22       1.0  0.31969  0.36082  0.84773  1.0000 -0.5711922133
O   O23       1.0  0.25626  0.14341  0.95352  1.0000 -0.5894294085
O   O24       1.0  0.28098  0.09285  0.97946  1.0000 -0.5894294085
O   O25       1.0  0.28390  0.13396  0.90937  1.0000 -0.5894294085
O   O26       1.0  0.32149  0.14205  0.88647  1.0000 -0.5894294085
O   O27       1.0  0.24927  0.20797  0.79336  1.0000 -0.5894294085
O   O28       1.0  0.28867  0.21218  0.77143  1.0000 -0.5894294085
O   O29       1.0  0.33926  0.30379  0.79140  1.0000 -0.5817735704
O   O30       1.0  0.29346  0.25801  0.74604  1.0000 -0.5817735704
O   O31       1.0  0.29016  0.33112  0.86762  1.0000 -0.5711922133
O   O32       1.0  0.35332  0.27746  0.83264  1.0000 -0.5711922133
O   O33       1.0  0.30855  0.08410  0.93508  1.0000 -0.5817735704
O   O34       1.0  0.33907  0.15737  0.90414  1.0000 -0.5580986369
O   O35       1.0  0.50214  0.61124  0.42559  1.0000 -0.5711922133
O   O36       1.0  0.52525  0.77265  0.33327  1.0000 -0.5711922133
O   O37       1.0  0.48477  0.66370  0.40801  1.0000 -0.5711922133
O   O38       1.0  0.49673  0.81320  0.30637  1.0000 -0.5817735704
O   O39       1.0  0.47176  0.84773  0.36082  1.0000 -0.5711922133
O   O40       1.0  0.64681  0.95352  0.14341  1.0000 -0.5894294085
O   O41       1.0  0.64670  0.97946  0.09285  1.0000 -0.5894294085
O   O42       1.0  0.67277  0.90937  0.13396  1.0000 -0.5894294085
O   O43       1.0  0.65000  0.88647  0.14205  1.0000 -0.5894294085
O   O44       1.0  0.74940  0.79336  0.20797  1.0000 -0.5894294085
O   O45       1.0  0.72771  0.77143  0.21218  1.0000 -0.5894294085
O   O46       1.0  0.56556  0.79140  0.30379  1.0000 -0.5817735704
O   O47       1.0  0.70249  0.74604  0.25801  1.0000 -0.5817735704
O   O48       1.0  0.51111  0.86762  0.33112  1.0000 -0.5711922133
O   O49       1.0  0.53657  0.83264  0.27746  1.0000 -0.5711922133
O   O50       1.0  0.67227  0.93508  0.08410  1.0000 -0.5817735704
O   O51       1.0  0.59943  0.90414  0.15737  1.0000 -0.5580986369
O   O52       1.0  0.61124  0.50214  0.46103  1.0000 -0.5711922133
O   O53       1.0  0.77265  0.52525  0.36883  1.0000 -0.5711922133
O   O54       1.0  0.66370  0.48477  0.44352  1.0000 -0.5711922133
O   O55       1.0  0.81320  0.49673  0.38370  1.0000 -0.5817735704
O   O56       1.0  0.84773  0.47176  0.31969  1.0000 -0.5711922133
O   O57       1.0  0.95352  0.64681  0.25626  1.0000 -0.5894294085
O   O58       1.0  0.97946  0.64670  0.28098  1.0000 -0.5894294085
O   O59       1.0  0.90937  0.67277  0.28390  1.0000 -0.5894294085
O   O60       1.0  0.88647  0.65000  0.32149  1.0000 -0.5894294085
O   O61       1.0  0.79336  0.74940  0.24927  1.0000 -0.5894294085
O   O62       1.0  0.77143  0.72771  0.28867  1.0000 -0.5894294085
O   O63       1.0  0.79140  0.56556  0.33926  1.0000 -0.5894294085
O   O64       1.0  0.74604  0.70249  0.29346  1.0000 -0.5817735704
O   O65       1.0  0.86762  0.51111  0.29016  1.0000 -0.5711922133
O   O66       1.0  0.83264  0.53657  0.35332  1.0000 -0.5711922133
O   O67       1.0  0.93508  0.67227  0.30855  1.0000 -0.5817735704
O   O68       1.0  0.90414  0.59943  0.33907  1.0000 -0.5580986369
O   O69       1.0  0.50214  0.42559  0.46103  1.0000 -0.5711922133
O   O70       1.0  0.52525  0.33327  0.36883  1.0000 -0.5711922133
O   O71       1.0  0.48477  0.40801  0.44352  1.0000 -0.5711922133
O   O72       1.0  0.49673  0.30637  0.38370  1.0000 -0.5817735704
O   O73       1.0  0.47176  0.36082  0.31969  1.0000 -0.5711922133
O   O74       1.0  0.64681  0.14341  0.25626  1.0000 -0.5894294085
O   O75       1.0  0.64670  0.09285  0.28098  1.0000 -0.5894294085
O   O76       1.0  0.67277  0.13396  0.28390  1.0000 -0.5894294085
O   O77       1.0  0.65000  0.14205  0.32149  1.0000 -0.5894294085
O   O78       1.0  0.74940  0.20797  0.24927  1.0000 -0.5894294085
O   O79       1.0  0.72771  0.21218  0.28867  1.0000 -0.5894294085
O   O80       1.0  0.56556  0.30379  0.33926  1.0000 -0.5817735704
O   O81       1.0  0.70249  0.25801  0.29346  1.0000 -0.5817735704
O   O82       1.0  0.51111  0.33112  0.29016  1.0000 -0.5711922133
O   O83       1.0  0.53657  0.27746  0.35332  1.0000 -0.5711922133
O   O84       1.0  0.67227  0.08410  0.30855  1.0000 -0.5817735704
O   O85       1.0  0.59943  0.15737  0.33907  1.0000 -0.5580986369
O   O86       1.0  0.61124  0.46103  0.42559  1.0000 -0.5711922133
O   O87       1.0  0.77265  0.36883  0.33327  1.0000 -0.5711922133
O   O88       1.0  0.66370  0.44352  0.40801  1.0000 -0.5711922133
O   O89       1.0  0.81320  0.38370  0.30637  1.0000 -0.5817735704
O   O90       1.0  0.84773  0.31969  0.36082  1.0000 -0.5711922133
O   O91       1.0  0.95352  0.25626  0.14341  1.0000 -0.5894294085
O   O92       1.0  0.97946  0.28098  0.09285  1.0000 -0.5894294085
O   O93       1.0  0.90937  0.28390  0.13396  1.0000 -0.5894294085
O   O94       1.0  0.88647  0.32149  0.14205  1.0000 -0.5894294085
O   O95       1.0  0.79336  0.24927  0.20797  1.0000 -0.5894294085
O   O96       1.0  0.77143  0.28867  0.21218  1.0000 -0.5894294085
O   O97       1.0  0.79140  0.33926  0.30379  1.0000 -0.5817735704
O   O98       1.0  0.74604  0.29346  0.25801  1.0000 -0.5817735704
O   O99       1.0  0.86762  0.29016  0.33112  1.0000 -0.5711922133
O   O100      1.0  0.83264  0.35332  0.27746  1.0000 -0.5711922133
O   O101      1.0  0.93508  0.30855  0.08410  1.0000 -0.5817735704
O   O102      1.0  0.90414  0.33907  0.15737  1.0000 -0.5580986369
O   O103      1.0  0.42559  0.50214  0.61124  1.0000 -0.5711922133
O   O104      1.0  0.33327  0.52525  0.77265  1.0000 -0.5711922133
O   O105      1.0  0.40801  0.48477  0.66370  1.0000 -0.5711922133
O   O106      1.0  0.30637  0.49673  0.81320  1.0000 -0.5817735704
O   O107      1.0  0.36082  0.47176  0.84773  1.0000 -0.5711922133
O   O108      1.0  0.14341  0.64681  0.95352  1.0000 -0.5894294085
O   O109      1.0  0.09285  0.64670  0.97946  1.0000 -0.5894294085
O   O110      1.0  0.13396  0.67277  0.90937  1.0000 -0.5894294085
O   O111      1.0  0.14205  0.65000  0.88647  1.0000 -0.5894294085
O   O112      1.0  0.20797  0.74940  0.79336  1.0000 -0.5894294085
O   O113      1.0  0.21218  0.72771  0.77143  1.0000 -0.5894294085
O   O114      1.0  0.30379  0.56556  0.79140  1.0000 -0.5817735704
O   O115      1.0  0.25801  0.70249  0.74604  1.0000 -0.5817735704
O   O116      1.0  0.33112  0.51111  0.86762  1.0000 -0.5711922133
O   O117      1.0  0.27746  0.53657  0.83264  1.0000 -0.5711922133
O   O118      1.0  0.08410  0.67227  0.93508  1.0000 -0.5817735704
O   O119      1.0  0.15737  0.59943  0.90414  1.0000 -0.5580986369
O   O120      1.0  0.46103  0.61124  0.50214  1.0000 -0.5711922133
O   O121      1.0  0.36883  0.77265  0.52525  1.0000 -0.5711922133
O   O122      1.0  0.44352  0.66370  0.48477  1.0000 -0.5711922133
O   O123      1.0  0.38370  0.81320  0.49673  1.0000 -0.5817735704
O   O124      1.0  0.31969  0.84773  0.47176  1.0000 -0.5711922133
O   O125      1.0  0.25626  0.95352  0.64681  1.0000 -0.5894294085
O   O126      1.0  0.28098  0.97946  0.64670  1.0000 -0.5894294085
O   O127      1.0  0.28390  0.90937  0.67277  1.0000 -0.5894294085
O   O128      1.0  0.32149  0.88647  0.65000  1.0000 -0.5894294085
O   O129      1.0  0.24927  0.79336  0.74940  1.0000 -0.5894294085
O   O130      1.0  0.28867  0.77143  0.72771  1.0000 -0.5894294085
O   O131      1.0  0.33926  0.79140  0.56556  1.0000 -0.5817735704
O   O132      1.0  0.29346  0.74604  0.70249  1.0000 -0.5817735704
O   O133      1.0  0.29016  0.86762  0.51111  1.0000 -0.5711922133
O   O134      1.0  0.35332  0.83264  0.53657  1.0000 -0.5711922133
O   O135      1.0  0.30855  0.93508  0.67227  1.0000 -0.5817735704
O   O136      1.0  0.33907  0.90414  0.59943  1.0000 -0.5580986369
O   O137      1.0  0.46103  0.50214  0.42559  1.0000 -0.5711922133
O   O138      1.0  0.36883  0.52525  0.33327  1.0000 -0.5711922133
O   O139      1.0  0.44352  0.48477  0.40801  1.0000 -0.5711922133
O   O140      1.0  0.38370  0.49673  0.30637  1.0000 -0.5817735704
O   O141      1.0  0.31969  0.47176  0.36082  1.0000 -0.5711922133
O   O142      1.0  0.25626  0.64681  0.14341  1.0000 -0.5894294085
O   O143      1.0  0.28098  0.64670  0.09285  1.0000 -0.5894294085
O   O144      1.0  0.28390  0.67277  0.13396  1.0000 -0.5894294085
O   O145      1.0  0.32149  0.65000  0.14205  1.0000 -0.5894294085
O   O146      1.0  0.24927  0.74940  0.20797  1.0000 -0.5894294085
O   O147      1.0  0.28867  0.72771  0.21218  1.0000 -0.5894294085
O   O148      1.0  0.33926  0.56556  0.30379  1.0000 -0.5817735704
O   O149      1.0  0.29346  0.70249  0.25801  1.0000 -0.5817735704
O   O150      1.0  0.29016  0.51111  0.33112  1.0000 -0.5711922133
O   O151      1.0  0.35332  0.53657  0.27746  1.0000 -0.5711922133
O   O152      1.0  0.30855  0.67227  0.08410  1.0000 -0.5817735704
O   O153      1.0  0.33907  0.59943  0.15737  1.0000 -0.5580986369
O   O154      1.0  0.42559  0.61124  0.46103  1.0000 -0.5711922133
O   O155      1.0  0.33327  0.77265  0.36883  1.0000 -0.5711922133
O   O156      1.0  0.40801  0.66370  0.44352  1.0000 -0.5711922133
O   O157      1.0  0.30637  0.81320  0.38370  1.0000 -0.5817735704
O   O158      1.0  0.36082  0.84773  0.31969  1.0000 -0.5711922133
O   O159      1.0  0.14341  0.95352  0.25626  1.0000 -0.5894294085
O   O160      1.0  0.09285  0.97946  0.28098  1.0000 -0.5894294085
O   O161      1.0  0.13396  0.90937  0.28390  1.0000 -0.5894294085
O   O162      1.0  0.14205  0.88647  0.32149  1.0000 -0.5894294085
O   O163      1.0  0.20797  0.79336  0.24927  1.0000 -0.5894294085
O   O164      1.0  0.21218  0.77143  0.28867  1.0000 -0.5894294085
O   O165      1.0  0.30379  0.79140  0.33926  1.0000 -0.5817735704
O   O166      1.0  0.25801  0.74604  0.29346  1.0000 -0.5817735704
O   O167      1.0  0.33112  0.86762  0.29016  1.0000 -0.5711922133
O   O168      1.0  0.27746  0.83264  0.35332  1.0000 -0.5711922133
O   O169      1.0  0.08410  0.93508  0.30855  1.0000 -0.5817735704
O   O170      1.0  0.15737  0.90414  0.33907  1.0000 -0.5580986369
O   O171      1.0  0.61124  0.42559  0.50214  1.0000 -0.5711922133
O   O172      1.0  0.77265  0.33327  0.52525  1.0000 -0.5711922133
O   O173      1.0  0.66370  0.40801  0.48477  1.0000 -0.5711922133
O   O174      1.0  0.81320  0.30637  0.49673  1.0000 -0.5817735704
O   O175      1.0  0.84773  0.36082  0.47176  1.0000 -0.5711922133
O   O176      1.0  0.95352  0.14341  0.64681  1.0000 -0.5894294085
O   O177      1.0  0.97946  0.09285  0.64670  1.0000 -0.5894294085
O   O178      1.0  0.90937  0.13396  0.67277  1.0000 -0.5894294085
O   O179      1.0  0.88647  0.14205  0.65000  1.0000 -0.5894294085
O   O180      1.0  0.79336  0.20797  0.74940  1.0000 -0.5894294085
O   O181      1.0  0.77143  0.21218  0.72771  1.0000 -0.5894294085
O   O182      1.0  0.79140  0.30379  0.56556  1.0000 -0.5817735704
O   O183      1.0  0.74604  0.25801  0.70249  1.0000 -0.5817735704
O   O184      1.0  0.86762  0.33112  0.51111  1.0000 -0.5711922133
O   O185      1.0  0.83264  0.27746  0.53657  1.0000 -0.5711922133
O   O186      1.0  0.93508  0.08410  0.67227  1.0000 -0.5817735704
O   O187      1.0  0.90414  0.15737  0.59943  1.0000 -0.5580986369
O   O188      1.0  0.50214  0.46103  0.61124  1.0000 -0.5711922133
O   O189      1.0  0.52525  0.36883  0.77265  1.0000 -0.5711922133
O   O190      1.0  0.48477  0.44352  0.66370  1.0000 -0.5711922133
O   O191      1.0  0.49673  0.38370  0.81320  1.0000 -0.5817735704
O   O192      1.0  0.47176  0.31969  0.84773  1.0000 -0.5711922133
O   O193      1.0  0.64681  0.25626  0.95352  1.0000 -0.5894294085
O   O194      1.0  0.64670  0.28098  0.97946  1.0000 -0.5894294085
O   O195      1.0  0.67277  0.28390  0.90937  1.0000 -0.5894294085
O   O196      1.0  0.65000  0.32149  0.88647  1.0000 -0.5894294085
O   O197      1.0  0.74940  0.24927  0.79336  1.0000 -0.5894294085
O   O198      1.0  0.72771  0.28867  0.77143  1.0000 -0.5894294085
O   O199      1.0  0.56556  0.33926  0.79140  1.0000 -0.5817735704
O   O200      1.0  0.70249  0.29346  0.74604  1.0000 -0.5817735704
O   O201      1.0  0.51111  0.29016  0.86762  1.0000 -0.5711922133
O   O202      1.0  0.53657  0.35332  0.83264  1.0000 -0.5711922133
O   O203      1.0  0.67227  0.30855  0.93508  1.0000 -0.5817735704
O   O204      1.0  0.59943  0.33907  0.90414  1.0000 -0.5580986369
O   O205      1.0  0.82441  0.78897  0.63876  1.0000 -0.5711922133
O   O206      1.0  0.91673  0.88117  0.47735  1.0000 -0.5711922133
O   O207      1.0  0.84199  0.80648  0.58630  1.0000 -0.5711922133
O   O208      1.0  0.94363  0.86630  0.43680  1.0000 -0.5817735704
O   O209      1.0  0.88918  0.93031  0.40227  1.0000 -0.5711922133
O   O210      1.0  0.10659  0.99374  0.29648  1.0000 -0.5894294085
O   O211      1.0  0.15715  0.96902  0.27054  1.0000 -0.5894294085
O   O212      1.0  0.11604  0.96610  0.34063  1.0000 -0.5894294085
O   O213      1.0  0.10795  0.92851  0.36353  1.0000 -0.5894294085
O   O214      1.0  0.04203  0.00073  0.45664  1.0000 -0.5894294085
O   O215      1.0  0.03782  0.96133  0.47857  1.0000 -0.5894294085
O   O216      1.0  0.94621  0.91074  0.45860  1.0000 -0.5817735704
O   O217      1.0  0.99199  0.95654  0.50396  1.0000 -0.5817735704
O   O218      1.0  0.91888  0.95984  0.38238  1.0000 -0.5711922133
O   O219      1.0  0.97254  0.89668  0.41736  1.0000 -0.5711922133
O   O220      1.0  0.16590  0.94145  0.31492  1.0000 -0.5817735704
O   O221      1.0  0.09263  0.91093  0.34586  1.0000 -0.5580986369
O   O222      1.0  0.78897  0.82441  0.74786  1.0000 -0.5711922133
O   O223      1.0  0.88117  0.91673  0.72475  1.0000 -0.5711922133
O   O224      1.0  0.80648  0.84199  0.76523  1.0000 -0.5711922133
O   O225      1.0  0.86630  0.94363  0.75327  1.0000 -0.5817735704
O   O226      1.0  0.93031  0.88918  0.77824  1.0000 -0.5711922133
O   O227      1.0  0.99374  0.10659  0.60319  1.0000 -0.5894294085
O   O228      1.0  0.96902  0.15715  0.60330  1.0000 -0.5894294085
O   O229      1.0  0.96610  0.11604  0.57723  1.0000 -0.5894294085
O   O230      1.0  0.92851  0.10795  0.60000  1.0000 -0.5894294085
O   O231      1.0  0.00073  0.04203  0.50060  1.0000 -0.5894294085
O   O232      1.0  0.96133  0.03782  0.52229  1.0000 -0.5894294085
O   O233      1.0  0.91074  0.94621  0.68444  1.0000 -0.5817735704
O   O234      1.0  0.95654  0.99199  0.54751  1.0000 -0.5817735704
O   O235      1.0  0.95984  0.91888  0.73889  1.0000 -0.5711922133
O   O236      1.0  0.89668  0.97254  0.71343  1.0000 -0.5711922133
O   O237      1.0  0.94145  0.16590  0.57773  1.0000 -0.5817735704
O   O238      1.0  0.91093  0.09263  0.65057  1.0000 -0.5580986369
O   O239      1.0  0.74786  0.63876  0.78897  1.0000 -0.5711922133
O   O240      1.0  0.72475  0.47735  0.88117  1.0000 -0.5711922133
O   O241      1.0  0.76523  0.58630  0.80648  1.0000 -0.5711922133
O   O242      1.0  0.75327  0.43680  0.86630  1.0000 -0.5817735704
O   O243      1.0  0.77824  0.40227  0.93031  1.0000 -0.5711922133
O   O244      1.0  0.60319  0.29648  0.99374  1.0000 -0.5894294085
O   O245      1.0  0.60330  0.27054  0.96902  1.0000 -0.5894294085
O   O246      1.0  0.57723  0.34063  0.96610  1.0000 -0.5894294085
O   O247      1.0  0.60000  0.36353  0.92851  1.0000 -0.5894294085
O   O248      1.0  0.50060  0.45664  0.00073  1.0000 -0.5894294085
O   O249      1.0  0.52229  0.47857  0.96133  1.0000 -0.5894294085
O   O250      1.0  0.68444  0.45860  0.91074  1.0000 -0.5817735704
O   O251      1.0  0.54751  0.50396  0.95654  1.0000 -0.5817735704
O   O252      1.0  0.73889  0.38238  0.95984  1.0000 -0.5711922133
O   O253      1.0  0.71343  0.41736  0.89668  1.0000 -0.5711922133
O   O254      1.0  0.57773  0.31492  0.94145  1.0000 -0.5817735704
O   O255      1.0  0.65057  0.34586  0.91093  1.0000 -0.5580986369
O   O256      1.0  0.63876  0.74786  0.82441  1.0000 -0.5711922133
O   O257      1.0  0.47735  0.72475  0.91673  1.0000 -0.5711922133
O   O258      1.0  0.58630  0.76523  0.84199  1.0000 -0.5711922133
O   O259      1.0  0.43680  0.75327  0.94363  1.0000 -0.5817735704
O   O260      1.0  0.40227  0.77824  0.88918  1.0000 -0.5711922133
O   O261      1.0  0.29648  0.60319  0.10659  1.0000 -0.5894294085
O   O262      1.0  0.27054  0.60330  0.15715  1.0000 -0.5894294085
O   O263      1.0  0.34063  0.57723  0.11604  1.0000 -0.5894294085
O   O264      1.0  0.36353  0.60000  0.10795  1.0000 -0.5894294085
O   O265      1.0  0.45664  0.50060  0.04203  1.0000 -0.5894294085
O   O266      1.0  0.47857  0.52229  0.03782  1.0000 -0.5894294085
O   O267      1.0  0.45860  0.68444  0.94621  1.0000 -0.5817735704
O   O268      1.0  0.50396  0.54751  0.99199  1.0000 -0.5817735704
O   O269      1.0  0.38238  0.73889  0.91888  1.0000 -0.5711922133
O   O270      1.0  0.41736  0.71343  0.97254  1.0000 -0.5711922133
O   O271      1.0  0.31492  0.57773  0.16590  1.0000 -0.5817735704
O   O272      1.0  0.34586  0.65057  0.09263  1.0000 -0.5580986369
O   O273      1.0  0.74786  0.82441  0.63876  1.0000 -0.5711922133
O   O274      1.0  0.72475  0.91673  0.47735  1.0000 -0.5711922133
O   O275      1.0  0.76523  0.84199  0.58630  1.0000 -0.5711922133
O   O276      1.0  0.75327  0.94363  0.43680  1.0000 -0.5817735704
O   O277      1.0  0.77824  0.88918  0.40227  1.0000 -0.5711922133
O   O278      1.0  0.60319  0.10659  0.29648  1.0000 -0.5894294085
O   O279      1.0  0.60330  0.15715  0.27054  1.0000 -0.5894294085
O   O280      1.0  0.57723  0.11604  0.34063  1.0000 -0.5894294085
O   O281      1.0  0.60000  0.10795  0.36353  1.0000 -0.5894294085
O   O282      1.0  0.50060  0.04203  0.45664  1.0000 -0.5894294085
O   O283      1.0  0.52229  0.03782  0.47857  1.0000 -0.5894294085
O   O284      1.0  0.68444  0.94621  0.45860  1.0000 -0.5817735704
O   O285      1.0  0.54751  0.99199  0.50396  1.0000 -0.5817735704
O   O286      1.0  0.73889  0.91888  0.38238  1.0000 -0.5711922133
O   O287      1.0  0.71343  0.97254  0.41736  1.0000 -0.5711922133
O   O288      1.0  0.57773  0.16590  0.31492  1.0000 -0.5817735704
O   O289      1.0  0.65057  0.09263  0.34586  1.0000 -0.5580986369
O   O290      1.0  0.63876  0.78897  0.74786  1.0000 -0.5711922133
O   O291      1.0  0.47735  0.88117  0.72475  1.0000 -0.5711922133
O   O292      1.0  0.58630  0.80648  0.76523  1.0000 -0.5711922133
O   O293      1.0  0.43680  0.86630  0.75327  1.0000 -0.5817735704
O   O294      1.0  0.40227  0.93031  0.77824  1.0000 -0.5711922133
O   O295      1.0  0.29648  0.99374  0.60319  1.0000 -0.5894294085
O   O296      1.0  0.27054  0.96902  0.60330  1.0000 -0.5894294085
O   O297      1.0  0.34063  0.96610  0.57723  1.0000 -0.5894294085
O   O298      1.0  0.36353  0.92851  0.60000  1.0000 -0.5894294085
O   O299      1.0  0.45664  0.00073  0.50060  1.0000 -0.5894294085
O   O300      1.0  0.47857  0.96133  0.52229  1.0000 -0.5894294085
O   O301      1.0  0.45860  0.91074  0.68444  1.0000 -0.5817735704
O   O302      1.0  0.50396  0.95654  0.54751  1.0000 -0.5817735704
O   O303      1.0  0.38238  0.95984  0.73889  1.0000 -0.5711922133
O   O304      1.0  0.41736  0.89668  0.71343  1.0000 -0.5711922133
O   O305      1.0  0.31492  0.94145  0.57773  1.0000 -0.5817735704
O   O306      1.0  0.34586  0.91093  0.65057  1.0000 -0.5580986369
O   O307      1.0  0.82441  0.74786  0.78897  1.0000 -0.5711922133
O   O308      1.0  0.91673  0.72475  0.88117  1.0000 -0.5711922133
O   O309      1.0  0.84199  0.76523  0.80648  1.0000 -0.5711922133
O   O310      1.0  0.94363  0.75327  0.86630  1.0000 -0.5817735704
O   O311      1.0  0.88918  0.77824  0.93031  1.0000 -0.5711922133
O   O312      1.0  0.10659  0.60319  0.99374  1.0000 -0.5894294085
O   O313      1.0  0.15715  0.60330  0.96902  1.0000 -0.5894294085
O   O314      1.0  0.11604  0.57723  0.96610  1.0000 -0.5894294085
O   O315      1.0  0.10795  0.60000  0.92851  1.0000 -0.5894294085
O   O316      1.0  0.04203  0.50060  0.00073  1.0000 -0.5894294085
O   O317      1.0  0.03782  0.52229  0.96133  1.0000 -0.5894294085
O   O318      1.0  0.94621  0.68444  0.91074  1.0000 -0.5817735704
O   O319      1.0  0.99199  0.54751  0.95654  1.0000 -0.5817735704
O   O320      1.0  0.91888  0.73889  0.95984  1.0000 -0.5711922133
O   O321      1.0  0.97254  0.71343  0.89668  1.0000 -0.5711922133
O   O322      1.0  0.16590  0.57773  0.94145  1.0000 -0.5817735704
O   O323      1.0  0.09263  0.65057  0.91093  1.0000 -0.5580986369
O   O324      1.0  0.78897  0.63876  0.82441  1.0000 -0.5711922133
O   O325      1.0  0.88117  0.47735  0.91673  1.0000 -0.5711922133
O   O326      1.0  0.80648  0.58630  0.84199  1.0000 -0.5711922133
O   O327      1.0  0.86630  0.43680  0.94363  1.0000 -0.5817735704
O   O328      1.0  0.93031  0.40227  0.88918  1.0000 -0.5711922133
O   O329      1.0  0.99374  0.29648  0.10659  1.0000 -0.5894294085
O   O330      1.0  0.96902  0.27054  0.15715  1.0000 -0.5894294085
O   O331      1.0  0.96610  0.34063  0.11604  1.0000 -0.5894294085
O   O332      1.0  0.92851  0.36353  0.10795  1.0000 -0.5894294085
O   O333      1.0  0.00073  0.45664  0.04203  1.0000 -0.5894294085
O   O334      1.0  0.96133  0.47857  0.03782  1.0000 -0.5894294085
O   O335      1.0  0.91074  0.45860  0.94621  1.0000 -0.5817735704
O   O336      1.0  0.95654  0.50396  0.99199  1.0000 -0.5817735704
O   O337      1.0  0.95984  0.38238  0.91888  1.0000 -0.5711922133
O   O338      1.0  0.89668  0.41736  0.97254  1.0000 -0.5711922133
O   O339      1.0  0.94145  0.31492  0.16590  1.0000 -0.5817735704
O   O340      1.0  0.91093  0.34586  0.09263  1.0000 -0.5580986369
O   O341      1.0  0.78897  0.74786  0.63876  1.0000 -0.5711922133
O   O342      1.0  0.88117  0.72475  0.47735  1.0000 -0.5711922133
O   O343      1.0  0.80648  0.76523  0.58630  1.0000 -0.5711922133
O   O344      1.0  0.86630  0.75327  0.43680  1.0000 -0.5817735704
O   O345      1.0  0.93031  0.77824  0.40227  1.0000 -0.5711922133
O   O346      1.0  0.99374  0.60319  0.29648  1.0000 -0.5894294085
O   O347      1.0  0.96902  0.60330  0.27054  1.0000 -0.5894294085
O   O348      1.0  0.96610  0.57723  0.34063  1.0000 -0.5894294085
O   O349      1.0  0.92851  0.60000  0.36353  1.0000 -0.5894294085
O   O350      1.0  0.00073  0.50060  0.45664  1.0000 -0.5894294085
O   O351      1.0  0.96133  0.52229  0.47857  1.0000 -0.5894294085
O   O352      1.0  0.91074  0.68444  0.45860  1.0000 -0.5817735704
O   O353      1.0  0.95654  0.54751  0.50396  1.0000 -0.5817735704
O   O354      1.0  0.95984  0.73889  0.38238  1.0000 -0.5711922133
O   O355      1.0  0.89668  0.71343  0.41736  1.0000 -0.5711922133
O   O356      1.0  0.94145  0.57773  0.31492  1.0000 -0.5817735704
O   O357      1.0  0.91093  0.65057  0.34586  1.0000 -0.5580986369
O   O358      1.0  0.82441  0.63876  0.74786  1.0000 -0.5711922133
O   O359      1.0  0.91673  0.47735  0.72475  1.0000 -0.5711922133
O   O360      1.0  0.84199  0.58630  0.76523  1.0000 -0.5711922133
O   O361      1.0  0.94363  0.43680  0.75327  1.0000 -0.5817735704
O   O362      1.0  0.88918  0.40227  0.77824  1.0000 -0.5711922133
O   O363      1.0  0.10659  0.29648  0.60319  1.0000 -0.5894294085
O   O364      1.0  0.15715  0.27054  0.60330  1.0000 -0.5894294085
O   O365      1.0  0.11604  0.34063  0.57723  1.0000 -0.5894294085
O   O366      1.0  0.10795  0.36353  0.60000  1.0000 -0.5894294085
O   O367      1.0  0.04203  0.45664  0.50060  1.0000 -0.5894294085
O   O368      1.0  0.03782  0.47857  0.52229  1.0000 -0.5894294085
O   O369      1.0  0.94621  0.45860  0.68444  1.0000 -0.5817735704
O   O370      1.0  0.99199  0.50396  0.54751  1.0000 -0.5817735704
O   O371      1.0  0.91888  0.38238  0.73889  1.0000 -0.5711922133
O   O372      1.0  0.97254  0.41736  0.71343  1.0000 -0.5711922133
O   O373      1.0  0.16590  0.31492  0.57773  1.0000 -0.5817735704
O   O374      1.0  0.09263  0.34586  0.65057  1.0000 -0.5580986369
O   O375      1.0  0.63876  0.82441  0.78897  1.0000 -0.5711922133
O   O376      1.0  0.47735  0.91673  0.88117  1.0000 -0.5711922133
O   O377      1.0  0.58630  0.84199  0.80648  1.0000 -0.5711922133
O   O378      1.0  0.43680  0.94363  0.86630  1.0000 -0.5817735704
O   O379      1.0  0.40227  0.88918  0.93031  1.0000 -0.5711922133
O   O380      1.0  0.29648  0.10659  0.99374  1.0000 -0.5894294085
O   O381      1.0  0.27054  0.15715  0.96902  1.0000 -0.5894294085
O   O382      1.0  0.34063  0.11604  0.96610  1.0000 -0.5894294085
O   O383      1.0  0.36353  0.10795  0.92851  1.0000 -0.5894294085
O   O384      1.0  0.45664  0.04203  0.00073  1.0000 -0.5894294085
O   O385      1.0  0.47857  0.03782  0.96133  1.0000 -0.5894294085
O   O386      1.0  0.45860  0.94621  0.91074  1.0000 -0.5817735704
O   O387      1.0  0.50396  0.99199  0.95654  1.0000 -0.5817735704
O   O388      1.0  0.38238  0.91888  0.95984  1.0000 -0.5711922133
O   O389      1.0  0.41736  0.97254  0.89668  1.0000 -0.5711922133
O   O390      1.0  0.31492  0.16590  0.94145  1.0000 -0.5817735704
O   O391      1.0  0.34586  0.09263  0.91093  1.0000 -0.5580986369
O   O392      1.0  0.74786  0.78897  0.82441  1.0000 -0.5711922133
O   O393      1.0  0.72475  0.88117  0.91673  1.0000 -0.5711922133
O   O394      1.0  0.76523  0.80648  0.84199  1.0000 -0.5711922133
O   O395      1.0  0.75327  0.86630  0.94363  1.0000 -0.5817735704
O   O396      1.0  0.77824  0.93031  0.88918  1.0000 -0.5711922133
O   O397      1.0  0.60319  0.99374  0.10659  1.0000 -0.5894294085
O   O398      1.0  0.60330  0.96902  0.15715  1.0000 -0.5894294085
O   O399      1.0  0.57723  0.96610  0.11604  1.0000 -0.5894294085
O   O400      1.0  0.60000  0.92851  0.10795  1.0000 -0.5894294085
O   O401      1.0  0.50060  0.00073  0.04203  1.0000 -0.5894294085
O   O402      1.0  0.52229  0.96133  0.03782  1.0000 -0.5894294085
O   O403      1.0  0.68444  0.91074  0.94621  1.0000 -0.5817735704
O   O404      1.0  0.54751  0.95654  0.99199  1.0000 -0.5817735704
O   O405      1.0  0.73889  0.95984  0.91888  1.0000 -0.5711922133
O   O406      1.0  0.71343  0.89668  0.97254  1.0000 -0.5711922133
O   O407      1.0  0.57773  0.94145  0.16590  1.0000 -0.5817735704
O   O408      1.0  0.65057  0.91093  0.09263  1.0000 -0.5580986369
O   O409      1.0  0.82441  0.78897  0.74786  1.0000 -0.5711922133
O   O410      1.0  0.91673  0.88117  0.72475  1.0000 -0.5711922133
O   O411      1.0  0.84199  0.80648  0.76523  1.0000 -0.5711922133
O   O412      1.0  0.94363  0.86630  0.75327  1.0000 -0.5817735704
O   O413      1.0  0.88918  0.93031  0.77824  1.0000 -0.5711922133
O   O414      1.0  0.10659  0.99374  0.60319  1.0000 -0.5894294085
O   O415      1.0  0.15715  0.96902  0.60330  1.0000 -0.5894294085
O   O416      1.0  0.11604  0.96610  0.57723  1.0000 -0.5894294085
O   O417      1.0  0.10795  0.92851  0.60000  1.0000 -0.5894294085
O   O418      1.0  0.04203  0.00073  0.50060  1.0000 -0.5894294085
O   O419      1.0  0.03782  0.96133  0.52229  1.0000 -0.5894294085
O   O420      1.0  0.94621  0.91074  0.68444  1.0000 -0.5817735704
O   O421      1.0  0.99199  0.95654  0.54751  1.0000 -0.5817735704
O   O422      1.0  0.91888  0.95984  0.73889  1.0000 -0.5711922133
O   O423      1.0  0.97254  0.89668  0.71343  1.0000 -0.5711922133
O   O424      1.0  0.16590  0.94145  0.57773  1.0000 -0.5817735704
O   O425      1.0  0.09263  0.91093  0.65057  1.0000 -0.5580986369
O   O426      1.0  0.78897  0.82441  0.63876  1.0000 -0.5711922133
O   O427      1.0  0.88117  0.91673  0.47735  1.0000 -0.5711922133
O   O428      1.0  0.80648  0.84199  0.58630  1.0000 -0.5711922133
O   O429      1.0  0.86630  0.94363  0.43680  1.0000 -0.5817735704
O   O430      1.0  0.93031  0.88918  0.40227  1.0000 -0.5711922133
O   O431      1.0  0.99374  0.10659  0.29648  1.0000 -0.5894294085
O   O432      1.0  0.96902  0.15715  0.27054  1.0000 -0.5894294085
O   O433      1.0  0.96610  0.11604  0.34063  1.0000 -0.5894294085
O   O434      1.0  0.92851  0.10795  0.36353  1.0000 -0.5894294085
O   O435      1.0  0.00073  0.04203  0.45664  1.0000 -0.5894294085
O   O436      1.0  0.96133  0.03782  0.47857  1.0000 -0.5894294085
O   O437      1.0  0.91074  0.94621  0.45860  1.0000 -0.5817735704
O   O438      1.0  0.95654  0.99199  0.50396  1.0000 -0.5817735704
O   O439      1.0  0.95984  0.91888  0.38238  1.0000 -0.5711922133
O   O440      1.0  0.89668  0.97254  0.41736  1.0000 -0.5711922133
O   O441      1.0  0.94145  0.16590  0.31492  1.0000 -0.5817735704
O   O442      1.0  0.91093  0.09263  0.34586  1.0000 -0.5580986369
O   O443      1.0  0.74786  0.63876  0.82441  1.0000 -0.5711922133
O   O444      1.0  0.72475  0.47735  0.91673  1.0000 -0.5711922133
O   O445      1.0  0.76523  0.58630  0.84199  1.0000 -0.5711922133
O   O446      1.0  0.75327  0.43680  0.94363  1.0000 -0.5817735704
O   O447      1.0  0.77824  0.40227  0.88918  1.0000 -0.5711922133
O   O448      1.0  0.60319  0.29648  0.10659  1.0000 -0.5894294085
O   O449      1.0  0.60330  0.27054  0.15715  1.0000 -0.5894294085
O   O450      1.0  0.57723  0.34063  0.11604  1.0000 -0.5894294085
O   O451      1.0  0.60000  0.36353  0.10795  1.0000 -0.5894294085
O   O452      1.0  0.50060  0.45664  0.04203  1.0000 -0.5894294085
O   O453      1.0  0.52229  0.47857  0.03782  1.0000 -0.5894294085
O   O454      1.0  0.68444  0.45860  0.94621  1.0000 -0.5817735704
O   O455      1.0  0.54751  0.50396  0.99199  1.0000 -0.5817735704
O   O456      1.0  0.73889  0.38238  0.91888  1.0000 -0.5711922133
O   O457      1.0  0.71343  0.41736  0.97254  1.0000 -0.5711922133
O   O458      1.0  0.57773  0.31492  0.16590  1.0000 -0.5817735704
O   O459      1.0  0.65057  0.34586  0.09263  1.0000 -0.5580986369
O   O460      1.0  0.63876  0.74786  0.78897  1.0000 -0.5711922133
O   O461      1.0  0.47735  0.72475  0.88117  1.0000 -0.5711922133
O   O462      1.0  0.58630  0.76523  0.80648  1.0000 -0.5711922133
O   O463      1.0  0.43680  0.75327  0.86630  1.0000 -0.5817735704
O   O464      1.0  0.40227  0.77824  0.93031  1.0000 -0.5711922133
O   O465      1.0  0.29648  0.60319  0.99374  1.0000 -0.5894294085
O   O466      1.0  0.27054  0.60330  0.96902  1.0000 -0.5894294085
O   O467      1.0  0.34063  0.57723  0.96610  1.0000 -0.5894294085
O   O468      1.0  0.36353  0.60000  0.92851  1.0000 -0.5894294085
O   O469      1.0  0.45664  0.50060  0.00073  1.0000 -0.5894294085
O   O470      1.0  0.47857  0.52229  0.96133  1.0000 -0.5894294085
O   O471      1.0  0.45860  0.68444  0.91074  1.0000 -0.5817735704
O   O472      1.0  0.50396  0.54751  0.95654  1.0000 -0.5817735704
O   O473      1.0  0.38238  0.73889  0.95984  1.0000 -0.5711922133
O   O474      1.0  0.41736  0.71343  0.89668  1.0000 -0.5711922133
O   O475      1.0  0.31492  0.57773  0.94145  1.0000 -0.5817735704
O   O476      1.0  0.34586  0.65057  0.91093  1.0000 -0.5580986369
O   O477      1.0  0.74786  0.82441  0.78897  1.0000 -0.5711922133
O   O478      1.0  0.72475  0.91673  0.88117  1.0000 -0.5711922133
O   O479      1.0  0.76523  0.84199  0.80648  1.0000 -0.5711922133
O   O480      1.0  0.75327  0.94363  0.86630  1.0000 -0.5817735704
O   O481      1.0  0.77824  0.88918  0.93031  1.0000 -0.5711922133
O   O482      1.0  0.60319  0.10659  0.99374  1.0000 -0.5894294085
O   O483      1.0  0.60330  0.15715  0.96902  1.0000 -0.5894294085
O   O484      1.0  0.57723  0.11604  0.96610  1.0000 -0.5894294085
O   O485      1.0  0.60000  0.10795  0.92851  1.0000 -0.5894294085
O   O486      1.0  0.50060  0.04203  0.00073  1.0000 -0.5894294085
O   O487      1.0  0.52229  0.03782  0.96133  1.0000 -0.5894294085
O   O488      1.0  0.68444  0.94621  0.91074  1.0000 -0.5817735704
O   O489      1.0  0.54751  0.99199  0.95654  1.0000 -0.5817735704
O   O490      1.0  0.73889  0.91888  0.95984  1.0000 -0.5711922133
O   O491      1.0  0.71343  0.97254  0.89668  1.0000 -0.5711922133
O   O492      1.0  0.57773  0.16590  0.94145  1.0000 -0.5817735704
O   O493      1.0  0.65057  0.09263  0.91093  1.0000 -0.5580986369
O   O494      1.0  0.63876  0.78897  0.82441  1.0000 -0.5711922133
O   O495      1.0  0.47735  0.88117  0.91673  1.0000 -0.5711922133
O   O496      1.0  0.58630  0.80648  0.84199  1.0000 -0.5711922133
O   O497      1.0  0.43680  0.86630  0.94363  1.0000 -0.5817735704
O   O498      1.0  0.40227  0.93031  0.88918  1.0000 -0.5711922133
O   O499      1.0  0.29648  0.99374  0.10659  1.0000 -0.5894294085
O   O500      1.0  0.27054  0.96902  0.15715  1.0000 -0.5894294085
O   O501      1.0  0.34063  0.96610  0.11604  1.0000 -0.5894294085
O   O502      1.0  0.36353  0.92851  0.10795  1.0000 -0.5894294085
O   O503      1.0  0.45664  0.00073  0.04203  1.0000 -0.5894294085
O   O504      1.0  0.47857  0.96133  0.03782  1.0000 -0.5894294085
O   O505      1.0  0.45860  0.91074  0.94621  1.0000 -0.5817735704
O   O506      1.0  0.50396  0.95654  0.99199  1.0000 -0.5817735704
O   O507      1.0  0.38238  0.95984  0.91888  1.0000 -0.5711922133
O   O508      1.0  0.41736  0.89668  0.97254  1.0000 -0.5711922133
O   O509      1.0  0.31492  0.94145  0.16590  1.0000 -0.5817735704
O   O510      1.0  0.34586  0.91093  0.09263  1.0000 -0.5580986369
O   O511      1.0  0.82441  0.74786  0.63876  1.0000 -0.5711922133
O   O512      1.0  0.91673  0.72475  0.47735  1.0000 -0.5711922133
O   O513      1.0  0.84199  0.76523  0.58630  1.0000 -0.5711922133
O   O514      1.0  0.94363  0.75327  0.43680  1.0000 -0.5817735704
O   O515      1.0  0.88918  0.77824  0.40227  1.0000 -0.5711922133
O   O516      1.0  0.10659  0.60319  0.29648  1.0000 -0.5894294085
O   O517      1.0  0.15715  0.60330  0.27054  1.0000 -0.5894294085
O   O518      1.0  0.11604  0.57723  0.34063  1.0000 -0.5894294085
O   O519      1.0  0.10795  0.60000  0.36353  1.0000 -0.5894294085
O   O520      1.0  0.04203  0.50060  0.45664  1.0000 -0.5894294085
O   O521      1.0  0.03782  0.52229  0.47857  1.0000 -0.5894294085
O   O522      1.0  0.94621  0.68444  0.45860  1.0000 -0.5817735704
O   O523      1.0  0.99199  0.54751  0.50396  1.0000 -0.5817735704
O   O524      1.0  0.91888  0.73889  0.38238  1.0000 -0.5711922133
O   O525      1.0  0.97254  0.71343  0.41736  1.0000 -0.5711922133
O   O526      1.0  0.16590  0.57773  0.31492  1.0000 -0.5817735704
O   O527      1.0  0.09263  0.65057  0.34586  1.0000 -0.5580986369
O   O528      1.0  0.78897  0.63876  0.74786  1.0000 -0.5711922133
O   O529      1.0  0.88117  0.47735  0.72475  1.0000 -0.5711922133
O   O530      1.0  0.80648  0.58630  0.76523  1.0000 -0.5711922133
O   O531      1.0  0.86630  0.43680  0.75327  1.0000 -0.5817735704
O   O532      1.0  0.93031  0.40227  0.77824  1.0000 -0.5711922133
O   O533      1.0  0.99374  0.29648  0.60319  1.0000 -0.5894294085
O   O534      1.0  0.96902  0.27054  0.60330  1.0000 -0.5894294085
O   O535      1.0  0.96610  0.34063  0.57723  1.0000 -0.5894294085
O   O536      1.0  0.92851  0.36353  0.60000  1.0000 -0.5894294085
O   O537      1.0  0.00073  0.45664  0.50060  1.0000 -0.5894294085
O   O538      1.0  0.96133  0.47857  0.52229  1.0000 -0.5894294085
O   O539      1.0  0.91074  0.45860  0.68444  1.0000 -0.5817735704
O   O540      1.0  0.95654  0.50396  0.54751  1.0000 -0.5817735704
O   O541      1.0  0.95984  0.38238  0.73889  1.0000 -0.5711922133
O   O542      1.0  0.89668  0.41736  0.71343  1.0000 -0.5711922133
O   O543      1.0  0.94145  0.31492  0.57773  1.0000 -0.5817735704
O   O544      1.0  0.91093  0.34586  0.65057  1.0000 -0.5580986369
O   O545      1.0  0.78897  0.74786  0.82441  1.0000 -0.5711922133
O   O546      1.0  0.88117  0.72475  0.91673  1.0000 -0.5711922133
O   O547      1.0  0.80648  0.76523  0.84199  1.0000 -0.5711922133
O   O548      1.0  0.86630  0.75327  0.94363  1.0000 -0.5817735704
O   O549      1.0  0.93031  0.77824  0.88918  1.0000 -0.5711922133
O   O550      1.0  0.99374  0.60319  0.10659  1.0000 -0.5894294085
O   O551      1.0  0.96902  0.60330  0.15715  1.0000 -0.5894294085
O   O552      1.0  0.96610  0.57723  0.11604  1.0000 -0.5894294085
O   O553      1.0  0.92851  0.60000  0.10795  1.0000 -0.5894294085
O   O554      1.0  0.00073  0.50060  0.04203  1.0000 -0.5894294085
O   O555      1.0  0.96133  0.52229  0.03782  1.0000 -0.5894294085
O   O556      1.0  0.91074  0.68444  0.94621  1.0000 -0.5817735704
O   O557      1.0  0.95654  0.54751  0.99199  1.0000 -0.5817735704
O   O558      1.0  0.95984  0.73889  0.91888  1.0000 -0.5711922133
O   O559      1.0  0.89668  0.71343  0.97254  1.0000 -0.5711922133
O   O560      1.0  0.94145  0.57773  0.16590  1.0000 -0.5817735704
O   O561      1.0  0.91093  0.65057  0.09263  1.0000 -0.5580986369
O   O562      1.0  0.82441  0.63876  0.78897  1.0000 -0.5711922133
O   O563      1.0  0.91673  0.47735  0.88117  1.0000 -0.5711922133
O   O564      1.0  0.84199  0.58630  0.80648  1.0000 -0.5711922133
O   O565      1.0  0.94363  0.43680  0.86630  1.0000 -0.5817735704
O   O566      1.0  0.88918  0.40227  0.93031  1.0000 -0.5711922133
O   O567      1.0  0.10659  0.29648  0.99374  1.0000 -0.5894294085
O   O568      1.0  0.15715  0.27054  0.96902  1.0000 -0.5894294085
O   O569      1.0  0.11604  0.34063  0.96610  1.0000 -0.5894294085
O   O570      1.0  0.10795  0.36353  0.92851  1.0000 -0.5894294085
O   O571      1.0  0.04203  0.45664  0.00073  1.0000 -0.5894294085
O   O572      1.0  0.03782  0.47857  0.96133  1.0000 -0.5894294085
O   O573      1.0  0.94621  0.45860  0.91074  1.0000 -0.5817735704
O   O574      1.0  0.99199  0.50396  0.95654  1.0000 -0.5817735704
O   O575      1.0  0.91888  0.38238  0.95984  1.0000 -0.5711922133
O   O576      1.0  0.97254  0.41736  0.89668  1.0000 -0.5711922133
O   O577      1.0  0.16590  0.31492  0.94145  1.0000 -0.5817735704
O   O578      1.0  0.09263  0.34586  0.91093  1.0000 -0.5580986369
O   O579      1.0  0.63876  0.82441  0.74786  1.0000 -0.5711922133
O   O580      1.0  0.47735  0.91673  0.72475  1.0000 -0.5711922133
O   O581      1.0  0.58630  0.84199  0.76523  1.0000 -0.5711922133
O   O582      1.0  0.43680  0.94363  0.75327  1.0000 -0.5817735704
O   O583      1.0  0.40227  0.88918  0.77824  1.0000 -0.5711922133
O   O584      1.0  0.29648  0.10659  0.60319  1.0000 -0.5894294085
O   O585      1.0  0.27054  0.15715  0.60330  1.0000 -0.5894294085
O   O586      1.0  0.34063  0.11604  0.57723  1.0000 -0.5894294085
O   O587      1.0  0.36353  0.10795  0.60000  1.0000 -0.5894294085
O   O588      1.0  0.45664  0.04203  0.50060  1.0000 -0.5894294085
O   O589      1.0  0.47857  0.03782  0.52229  1.0000 -0.5894294085
O   O590      1.0  0.45860  0.94621  0.68444  1.0000 -0.5817735704
O   O591      1.0  0.50396  0.99199  0.54751  1.0000 -0.5817735704
O   O592      1.0  0.38238  0.91888  0.73889  1.0000 -0.5711922133
O   O593      1.0  0.41736  0.97254  0.71343  1.0000 -0.5711922133
O   O594      1.0  0.31492  0.16590  0.57773  1.0000 -0.5817735704
O   O595      1.0  0.34586  0.09263  0.65057  1.0000 -0.5580986369
O   O596      1.0  0.74786  0.78897  0.63876  1.0000 -0.5711922133
O   O597      1.0  0.72475  0.88117  0.47735  1.0000 -0.5711922133
O   O598      1.0  0.76523  0.80648  0.58630  1.0000 -0.5711922133
O   O599      1.0  0.75327  0.86630  0.43680  1.0000 -0.5817735704
O   O600      1.0  0.77824  0.93031  0.40227  1.0000 -0.5711922133
O   O601      1.0  0.60319  0.99374  0.29648  1.0000 -0.5894294085
O   O602      1.0  0.60330  0.96902  0.27054  1.0000 -0.5894294085
O   O603      1.0  0.57723  0.96610  0.34063  1.0000 -0.5894294085
O   O604      1.0  0.60000  0.92851  0.36353  1.0000 -0.5894294085
O   O605      1.0  0.50060  0.00073  0.45664  1.0000 -0.5894294085
O   O606      1.0  0.52229  0.96133  0.47857  1.0000 -0.5894294085
O   O607      1.0  0.68444  0.91074  0.45860  1.0000 -0.5817735704
O   O608      1.0  0.54751  0.95654  0.50396  1.0000 -0.5817735704
O   O609      1.0  0.73889  0.95984  0.38238  1.0000 -0.5711922133
O   O610      1.0  0.71343  0.89668  0.41736  1.0000 -0.5711922133
O   O611      1.0  0.57773  0.94145  0.31492  1.0000 -0.5817735704
O   O612      1.0  0.65057  0.91093  0.34586  1.0000 -0.5580986369
O   O613      1.0  0.42559  0.46103  0.61124  1.0000 -0.5711922133
O   O614      1.0  0.33327  0.36883  0.77265  1.0000 -0.5711922133
O   O615      1.0  0.40801  0.44352  0.66370  1.0000 -0.5711922133
O   O616      1.0  0.30637  0.38370  0.81320  1.0000 -0.5817735704
O   O617      1.0  0.36082  0.31969  0.84773  1.0000 -0.5711922133
O   O618      1.0  0.14341  0.25626  0.95352  1.0000 -0.5894294085
O   O619      1.0  0.09285  0.28098  0.97946  1.0000 -0.5894294085
O   O620      1.0  0.13396  0.28390  0.90937  1.0000 -0.5894294085
O   O621      1.0  0.14205  0.32149  0.88647  1.0000 -0.5894294085
O   O622      1.0  0.20797  0.24927  0.79336  1.0000 -0.5894294085
O   O623      1.0  0.21218  0.28867  0.77143  1.0000 -0.5894294085
O   O624      1.0  0.30379  0.33926  0.79140  1.0000 -0.5817735704
O   O625      1.0  0.25801  0.29346  0.74604  1.0000 -0.5817735704
O   O626      1.0  0.33112  0.29016  0.86762  1.0000 -0.5711922133
O   O627      1.0  0.27746  0.35332  0.83264  1.0000 -0.5711922133
O   O628      1.0  0.08410  0.30855  0.93508  1.0000 -0.5817735704
O   O629      1.0  0.15737  0.33907  0.90414  1.0000 -0.5580986369
O   O630      1.0  0.46103  0.42559  0.50214  1.0000 -0.5711922133
O   O631      1.0  0.36883  0.33327  0.52525  1.0000 -0.5711922133
O   O632      1.0  0.44352  0.40801  0.48477  1.0000 -0.5711922133
O   O633      1.0  0.38370  0.30637  0.49673  1.0000 -0.5817735704
O   O634      1.0  0.31969  0.36082  0.47176  1.0000 -0.5711922133
O   O635      1.0  0.25626  0.14341  0.64681  1.0000 -0.5894294085
O   O636      1.0  0.28098  0.09285  0.64670  1.0000 -0.5894294085
O   O637      1.0  0.28390  0.13396  0.67277  1.0000 -0.5894294085
O   O638      1.0  0.32149  0.14205  0.65000  1.0000 -0.5894294085
O   O639      1.0  0.24927  0.20797  0.74940  1.0000 -0.5894294085
O   O640      1.0  0.28867  0.21218  0.72771  1.0000 -0.5894294085
O   O641      1.0  0.33926  0.30379  0.56556  1.0000 -0.5817735704
O   O642      1.0  0.29346  0.25801  0.70249  1.0000 -0.5817735704
O   O643      1.0  0.29016  0.33112  0.51111  1.0000 -0.5711922133
O   O644      1.0  0.35332  0.27746  0.53657  1.0000 -0.5711922133
O   O645      1.0  0.30855  0.08410  0.67227  1.0000 -0.5817735704
O   O646      1.0  0.33907  0.15737  0.59943  1.0000 -0.5580986369
O   O647      1.0  0.50214  0.61124  0.46103  1.0000 -0.5711922133
O   O648      1.0  0.52525  0.77265  0.36883  1.0000 -0.5711922133
O   O649      1.0  0.48477  0.66370  0.44352  1.0000 -0.5711922133
O   O650      1.0  0.49673  0.81320  0.38370  1.0000 -0.5817735704
O   O651      1.0  0.47176  0.84773  0.31969  1.0000 -0.5711922133
O   O652      1.0  0.64681  0.95352  0.25626  1.0000 -0.5894294085
O   O653      1.0  0.64670  0.97946  0.28098  1.0000 -0.5894294085
O   O654      1.0  0.67277  0.90937  0.28390  1.0000 -0.5894294085
O   O655      1.0  0.65000  0.88647  0.32149  1.0000 -0.5894294085
O   O656      1.0  0.74940  0.79336  0.24927  1.0000 -0.5894294085
O   O657      1.0  0.72771  0.77143  0.28867  1.0000 -0.5894294085
O   O658      1.0  0.56556  0.79140  0.33926  1.0000 -0.5817735704
O   O659      1.0  0.70249  0.74604  0.29346  1.0000 -0.5817735704
O   O660      1.0  0.51111  0.86762  0.29016  1.0000 -0.5711922133
O   O661      1.0  0.53657  0.83264  0.35332  1.0000 -0.5711922133
O   O662      1.0  0.67227  0.93508  0.30855  1.0000 -0.5817735704
O   O663      1.0  0.59943  0.90414  0.33907  1.0000 -0.5580986369
O   O664      1.0  0.61124  0.50214  0.42559  1.0000 -0.5711922133
O   O665      1.0  0.77265  0.52525  0.33327  1.0000 -0.5711922133
O   O666      1.0  0.66370  0.48477  0.40801  1.0000 -0.5711922133
O   O667      1.0  0.81320  0.49673  0.30637  1.0000 -0.5817735704
O   O668      1.0  0.84773  0.47176  0.36082  1.0000 -0.5711922133
O   O669      1.0  0.95352  0.64681  0.14341  1.0000 -0.5894294085
O   O670      1.0  0.97946  0.64670  0.09285  1.0000 -0.5894294085
O   O671      1.0  0.90937  0.67277  0.13396  1.0000 -0.5894294085
O   O672      1.0  0.88647  0.65000  0.14205  1.0000 -0.5894294085
O   O673      1.0  0.79336  0.74940  0.20797  1.0000 -0.5894294085
O   O674      1.0  0.77143  0.72771  0.21218  1.0000 -0.5894294085
O   O675      1.0  0.79140  0.56556  0.30379  1.0000 -0.5817735704
O   O676      1.0  0.74604  0.70249  0.25801  1.0000 -0.5817735704
O   O677      1.0  0.86762  0.51111  0.33112  1.0000 -0.5711922133
O   O678      1.0  0.83264  0.53657  0.27746  1.0000 -0.5711922133
O   O679      1.0  0.93508  0.67227  0.08410  1.0000 -0.5817735704
O   O680      1.0  0.90414  0.59943  0.15737  1.0000 -0.5580986369
O   O681      1.0  0.50214  0.42559  0.61124  1.0000 -0.5711922133
O   O682      1.0  0.52525  0.33327  0.77265  1.0000 -0.5711922133
O   O683      1.0  0.48477  0.40801  0.66370  1.0000 -0.5711922133
O   O684      1.0  0.49673  0.30637  0.81320  1.0000 -0.5817735704
O   O685      1.0  0.47176  0.36082  0.84773  1.0000 -0.5711922133
O   O686      1.0  0.64681  0.14341  0.95352  1.0000 -0.5894294085
O   O687      1.0  0.64670  0.09285  0.97946  1.0000 -0.5894294085
O   O688      1.0  0.67277  0.13396  0.90937  1.0000 -0.5894294085
O   O689      1.0  0.65000  0.14205  0.88647  1.0000 -0.5894294085
O   O690      1.0  0.74940  0.20797  0.79336  1.0000 -0.5894294085
O   O691      1.0  0.72771  0.21218  0.77143  1.0000 -0.5894294085
O   O692      1.0  0.56556  0.30379  0.79140  1.0000 -0.5817735704
O   O693      1.0  0.70249  0.25801  0.74604  1.0000 -0.5817735704
O   O694      1.0  0.51111  0.33112  0.86762  1.0000 -0.5711922133
O   O695      1.0  0.53657  0.27746  0.83264  1.0000 -0.5711922133
O   O696      1.0  0.67227  0.08410  0.93508  1.0000 -0.5817735704
O   O697      1.0  0.59943  0.15737  0.90414  1.0000 -0.5580986369
O   O698      1.0  0.61124  0.46103  0.50214  1.0000 -0.5711922133
O   O699      1.0  0.77265  0.36883  0.52525  1.0000 -0.5711922133
O   O700      1.0  0.66370  0.44352  0.48477  1.0000 -0.5711922133
O   O701      1.0  0.81320  0.38370  0.49673  1.0000 -0.5817735704
O   O702      1.0  0.84773  0.31969  0.47176  1.0000 -0.5711922133
O   O703      1.0  0.95352  0.25626  0.64681  1.0000 -0.5894294085
O   O704      1.0  0.97946  0.28098  0.64670  1.0000 -0.5894294085
O   O705      1.0  0.90937  0.28390  0.67277  1.0000 -0.5894294085
O   O706      1.0  0.88647  0.32149  0.65000  1.0000 -0.5894294085
O   O707      1.0  0.79336  0.24927  0.74940  1.0000 -0.5894294085
O   O708      1.0  0.77143  0.28867  0.72771  1.0000 -0.5894294085
O   O709      1.0  0.79140  0.33926  0.56556  1.0000 -0.5817735704
O   O710      1.0  0.74604  0.29346  0.70249  1.0000 -0.5817735704
O   O711      1.0  0.86762  0.29016  0.51111  1.0000 -0.5711922133
O   O712      1.0  0.83264  0.35332  0.53657  1.0000 -0.5711922133
O   O713      1.0  0.93508  0.30855  0.67227  1.0000 -0.5817735704
O   O714      1.0  0.90414  0.33907  0.59943  1.0000 -0.5580986369
O   O715      1.0  0.42559  0.50214  0.46103  1.0000 -0.5711922133
O   O716      1.0  0.33327  0.52525  0.36883  1.0000 -0.5711922133
O   O717      1.0  0.40801  0.48477  0.44352  1.0000 -0.5711922133
O   O718      1.0  0.30637  0.49673  0.38370  1.0000 -0.5817735704
O   O719      1.0  0.36082  0.47176  0.31969  1.0000 -0.5711922133
O   O720      1.0  0.14341  0.64681  0.25626  1.0000 -0.5894294085
O   O721      1.0  0.09285  0.64670  0.28098  1.0000 -0.5894294085
O   O722      1.0  0.13396  0.67277  0.28390  1.0000 -0.5894294085
O   O723      1.0  0.14205  0.65000  0.32149  1.0000 -0.5894294085
O   O724      1.0  0.20797  0.74940  0.24927  1.0000 -0.5894294085
O   O725      1.0  0.21218  0.72771  0.28867  1.0000 -0.5894294085
O   O726      1.0  0.30379  0.56556  0.33926  1.0000 -0.5817735704
O   O727      1.0  0.25801  0.70249  0.29346  1.0000 -0.5817735704
O   O728      1.0  0.33112  0.51111  0.29016  1.0000 -0.5711922133
O   O729      1.0  0.27746  0.53657  0.35332  1.0000 -0.5711922133
O   O730      1.0  0.08410  0.67227  0.30855  1.0000 -0.5817735704
O   O731      1.0  0.15737  0.59943  0.33907  1.0000 -0.5580986369
O   O732      1.0  0.46103  0.61124  0.42559  1.0000 -0.5711922133
O   O733      1.0  0.36883  0.77265  0.33327  1.0000 -0.5711922133
O   O734      1.0  0.44352  0.66370  0.40801  1.0000 -0.5711922133
O   O735      1.0  0.38370  0.81320  0.30637  1.0000 -0.5817735704
O   O736      1.0  0.31969  0.84773  0.36082  1.0000 -0.5711922133
O   O737      1.0  0.25626  0.95352  0.14341  1.0000 -0.5894294085
O   O738      1.0  0.28098  0.97946  0.09285  1.0000 -0.5894294085
O   O739      1.0  0.28390  0.90937  0.13396  1.0000 -0.5894294085
O   O740      1.0  0.32149  0.88647  0.14205  1.0000 -0.5894294085
O   O741      1.0  0.24927  0.79336  0.20797  1.0000 -0.5894294085
O   O742      1.0  0.28867  0.77143  0.21218  1.0000 -0.5894294085
O   O743      1.0  0.33926  0.79140  0.30379  1.0000 -0.5817735704
O   O744      1.0  0.29346  0.74604  0.25801  1.0000 -0.5817735704
O   O745      1.0  0.29016  0.86762  0.33112  1.0000 -0.5711922133
O   O746      1.0  0.35332  0.83264  0.27746  1.0000 -0.5711922133
O   O747      1.0  0.30855  0.93508  0.08410  1.0000 -0.5817735704
O   O748      1.0  0.33907  0.90414  0.15737  1.0000 -0.5580986369
O   O749      1.0  0.46103  0.50214  0.61124  1.0000 -0.5711922133
O   O750      1.0  0.36883  0.52525  0.77265  1.0000 -0.5711922133
O   O751      1.0  0.44352  0.48477  0.66370  1.0000 -0.5711922133
O   O752      1.0  0.38370  0.49673  0.81320  1.0000 -0.5817735704
O   O753      1.0  0.31969  0.47176  0.84773  1.0000 -0.5711922133
O   O754      1.0  0.25626  0.64681  0.95352  1.0000 -0.5894294085
O   O755      1.0  0.28098  0.64670  0.97946  1.0000 -0.5894294085
O   O756      1.0  0.28390  0.67277  0.90937  1.0000 -0.5894294085
O   O757      1.0  0.32149  0.65000  0.88647  1.0000 -0.5894294085
O   O758      1.0  0.24927  0.74940  0.79336  1.0000 -0.5894294085
O   O759      1.0  0.28867  0.72771  0.77143  1.0000 -0.5894294085
O   O760      1.0  0.33926  0.56556  0.79140  1.0000 -0.5817735704
O   O761      1.0  0.29346  0.70249  0.74604  1.0000 -0.5817735704
O   O762      1.0  0.29016  0.51111  0.86762  1.0000 -0.5711922133
O   O763      1.0  0.35332  0.53657  0.83264  1.0000 -0.5711922133
O   O764      1.0  0.30855  0.67227  0.93508  1.0000 -0.5817735704
O   O765      1.0  0.33907  0.59943  0.90414  1.0000 -0.5580986369
O   O766      1.0  0.42559  0.61124  0.50214  1.0000 -0.5711922133
O   O767      1.0  0.33327  0.77265  0.52525  1.0000 -0.5711922133
O   O768      1.0  0.40801  0.66370  0.48477  1.0000 -0.5711922133
O   O769      1.0  0.30637  0.81320  0.49673  1.0000 -0.5817735704
O   O770      1.0  0.36082  0.84773  0.47176  1.0000 -0.5711922133
O   O771      1.0  0.14341  0.95352  0.64681  1.0000 -0.5894294085
O   O772      1.0  0.09285  0.97946  0.64670  1.0000 -0.5894294085
O   O773      1.0  0.13396  0.90937  0.67277  1.0000 -0.5894294085
O   O774      1.0  0.14205  0.88647  0.65000  1.0000 -0.5894294085
O   O775      1.0  0.20797  0.79336  0.74940  1.0000 -0.5894294085
O   O776      1.0  0.21218  0.77143  0.72771  1.0000 -0.5894294085
O   O777      1.0  0.30379  0.79140  0.56556  1.0000 -0.5817735704
O   O778      1.0  0.25801  0.74604  0.70249  1.0000 -0.5817735704
O   O779      1.0  0.33112  0.86762  0.51111  1.0000 -0.5711922133
O   O780      1.0  0.27746  0.83264  0.53657  1.0000 -0.5711922133
O   O781      1.0  0.08410  0.93508  0.67227  1.0000 -0.5817735704
O   O782      1.0  0.15737  0.90414  0.59943  1.0000 -0.5580986369
O   O783      1.0  0.61124  0.42559  0.46103  1.0000 -0.5711922133
O   O784      1.0  0.77265  0.33327  0.36883  1.0000 -0.5711922133
O   O785      1.0  0.66370  0.40801  0.44352  1.0000 -0.5711922133
O   O786      1.0  0.81320  0.30637  0.38370  1.0000 -0.5817735704
O   O787      1.0  0.84773  0.36082  0.31969  1.0000 -0.5711922133
O   O788      1.0  0.95352  0.14341  0.25626  1.0000 -0.5894294085
O   O789      1.0  0.97946  0.09285  0.28098  1.0000 -0.5894294085
O   O790      1.0  0.90937  0.13396  0.28390  1.0000 -0.5894294085
O   O791      1.0  0.88647  0.14205  0.32149  1.0000 -0.5894294085
O   O792      1.0  0.79336  0.20797  0.24927  1.0000 -0.5894294085
O   O793      1.0  0.77143  0.21218  0.28867  1.0000 -0.5894294085
O   O794      1.0  0.79140  0.30379  0.33926  1.0000 -0.5817735704
O   O795      1.0  0.74604  0.25801  0.29346  1.0000 -0.5817735704
O   O796      1.0  0.86762  0.33112  0.29016  1.0000 -0.5711922133
O   O797      1.0  0.83264  0.27746  0.35332  1.0000 -0.5711922133
O   O798      1.0  0.93508  0.08410  0.30855  1.0000 -0.5817735704
O   O799      1.0  0.90414  0.15737  0.33907  1.0000 -0.5580986369
O   O800      1.0  0.50214  0.46103  0.42559  1.0000 -0.5711922133
O   O801      1.0  0.52525  0.36883  0.33327  1.0000 -0.5711922133
O   O802      1.0  0.48477  0.44352  0.40801  1.0000 -0.5711922133
O   O803      1.0  0.49673  0.38370  0.30637  1.0000 -0.5817735704
O   O804      1.0  0.47176  0.31969  0.36082  1.0000 -0.5711922133
O   O805      1.0  0.64681  0.25626  0.14341  1.0000 -0.5894294085
O   O806      1.0  0.64670  0.28098  0.09285  1.0000 -0.5894294085
O   O807      1.0  0.67277  0.28390  0.13396  1.0000 -0.5894294085
O   O808      1.0  0.65000  0.32149  0.14205  1.0000 -0.5894294085
O   O809      1.0  0.74940  0.24927  0.20797  1.0000 -0.5894294085
O   O810      1.0  0.72771  0.28867  0.21218  1.0000 -0.5894294085
O   O811      1.0  0.56556  0.33926  0.30379  1.0000 -0.5817735704
O   O812      1.0  0.70249  0.29346  0.25801  1.0000 -0.5817735704
O   O813      1.0  0.51111  0.29016  0.33112  1.0000 -0.5711922133
O   O814      1.0  0.53657  0.35332  0.27746  1.0000 -0.5711922133
O   O815      1.0  0.67227  0.30855  0.08410  1.0000 -0.5817735704
O   O816      1.0  0.59943  0.33907  0.15737  1.0000 -0.5580986369
O   O817      1.0  0.12500  0.31008  0.62500  1.0000 -1.1085859994
O   O818      1.0  0.31008  0.12500  0.93992  1.0000 -1.1085859994
O   O819      1.0  0.62500  0.93992  0.12500  1.0000 -1.1085859994
O   O820      1.0  0.93992  0.62500  0.31008  1.0000 -1.1085859994
O   O821      1.0  0.62500  0.12500  0.31008  1.0000 -1.1085859994
O   O822      1.0  0.93992  0.31008  0.12500  1.0000 -1.1085859994
O   O823      1.0  0.12500  0.62500  0.93992  1.0000 -1.1085859994
O   O824      1.0  0.31008  0.93992  0.62500  1.0000 -1.1085859994
O   O825      1.0  0.31008  0.62500  0.12500  1.0000 -1.1085859994
O   O826      1.0  0.12500  0.93992  0.31008  1.0000 -1.1085859994
O   O827      1.0  0.93992  0.12500  0.62500  1.0000 -1.1085859994
O   O828      1.0  0.62500  0.31008  0.93992  1.0000 -1.1085859994
O   O829      1.0  0.12500  0.93992  0.62500  1.0000 -1.1085859994
O   O830      1.0  0.93992  0.12500  0.31008  1.0000 -1.1085859994
O   O831      1.0  0.62500  0.31008  0.12500  1.0000 -1.1085859994
O   O832      1.0  0.31008  0.62500  0.93992  1.0000 -1.1085859994
O   O833      1.0  0.62500  0.12500  0.93992  1.0000 -1.1085859994
O   O834      1.0  0.31008  0.93992  0.12500  1.0000 -1.1085859994
O   O835      1.0  0.12500  0.62500  0.31008  1.0000 -1.1085859994
O   O836      1.0  0.93992  0.31008  0.62500  1.0000 -1.1085859994
O   O837      1.0  0.93992  0.62500  0.12500  1.0000 -1.1085859994
O   O838      1.0  0.12500  0.31008  0.93992  1.0000 -1.1085859994
O   O839      1.0  0.31008  0.12500  0.62500  1.0000 -1.1085859994
O   O840      1.0  0.62500  0.93992  0.31008  1.0000 -1.1085859994
O   O841      1.0  0.25157  0.25157  0.74843  1.0000 -1.1085859994
O   O842      1.0  0.74843  0.74843  0.25157  1.0000 -1.1085859994
O   O843      1.0  0.74843  0.25157  0.25157  1.0000 -1.1085859994
O   O844      1.0  0.25157  0.74843  0.74843  1.0000 -1.1085859994
O   O845      1.0  0.25157  0.74843  0.25157  1.0000 -1.1085859994
O   O846      1.0  0.74843  0.25157  0.74843  1.0000 -1.1085859994
O   O847      1.0  0.99843  0.99843  0.50157  1.0000 -1.1085859994
O   O848      1.0  0.50157  0.50157  0.99843  1.0000 -1.1085859994
O   O849      1.0  0.50157  0.99843  0.50157  1.0000 -1.1085859994
O   O850      1.0  0.99843  0.50157  0.99843  1.0000 -1.1085859994
O   O851      1.0  0.99843  0.50157  0.50157  1.0000 -1.1085859994
O   O852      1.0  0.50157  0.99843  0.99843  1.0000 -1.1085859994
O   O853      1.0  0.33063  0.33063  0.51787  1.0000 -1.1085859994
O   O854      1.0  0.33063  0.33063  0.82086  1.0000 -1.1085859994
O   O855      1.0  0.51787  0.82086  0.33063  1.0000 -1.1085859994
O   O856      1.0  0.82086  0.51787  0.33063  1.0000 -1.1085859994
O   O857      1.0  0.51787  0.33063  0.33063  1.0000 -1.1085859994
O   O858      1.0  0.82086  0.33063  0.33063  1.0000 -1.1085859994
O   O859      1.0  0.33063  0.51787  0.82086  1.0000 -1.1085859994
O   O860      1.0  0.33063  0.82086  0.51787  1.0000 -1.1085859994
O   O861      1.0  0.33063  0.51787  0.33063  1.0000 -1.1085859994
O   O862      1.0  0.33063  0.82086  0.33063  1.0000 -1.1085859994
O   O863      1.0  0.82086  0.33063  0.51787  1.0000 -1.1085859994
O   O864      1.0  0.51787  0.33063  0.82086  1.0000 -1.1085859994
O   O865      1.0  0.91937  0.91937  0.42914  1.0000 -1.1085859994
O   O866      1.0  0.91937  0.91937  0.73213  1.0000 -1.1085859994
O   O867      1.0  0.73213  0.42914  0.91937  1.0000 -1.1085859994
O   O868      1.0  0.42914  0.73213  0.91937  1.0000 -1.1085859994
O   O869      1.0  0.73213  0.91937  0.42914  1.0000 -1.1085859994
O   O870      1.0  0.42914  0.91937  0.73213  1.0000 -1.1085859994
O   O871      1.0  0.91937  0.73213  0.91937  1.0000 -1.1085859994
O   O872      1.0  0.91937  0.42914  0.91937  1.0000 -1.1085859994
O   O873      1.0  0.91937  0.73213  0.42914  1.0000 -1.1085859994
O   O874      1.0  0.91937  0.42914  0.73213  1.0000 -1.1085859994
O   O875      1.0  0.42914  0.91937  0.91937  1.0000 -1.1085859994
O   O876      1.0  0.73213  0.91937  0.91937  1.0000 -1.1085859994
O   O877      1.0  0.45414  0.45414  0.45414  1.0000 -1.1085859994
O   O878      1.0  0.45414  0.45414  0.63759  1.0000 -1.1085859994
O   O879      1.0  0.45414  0.63759  0.45414  1.0000 -1.1085859994
O   O880      1.0  0.63759  0.45414  0.45414  1.0000 -1.1085859994
O   O881      1.0  0.79586  0.79586  0.61241  1.0000 -1.1085859994
O   O882      1.0  0.79586  0.79586  0.79586  1.0000 -1.1085859994
O   O883      1.0  0.79586  0.61241  0.79586  1.0000 -1.1085859994
O   O884      1.0  0.61241  0.79586  0.79586  1.0000 -1.1085859994
