# DDEC6 charges by PACMAN v1.1 (https://github.com/mtap-research/PACMAN-charge/)
data_2005[Mn][lvt]2[ASR]1
_chemical_formula_sum              "Mn24 H312 C336 N64 O72"
_cell_length_a       30.0516
_cell_length_b       30.0516
_cell_length_c       30.0516
_cell_angle_alpha    94.9287
_cell_angle_beta     94.9287
_cell_angle_gamma    145.911

_symmetry_space_group_name_H-M    "P 1"
_symmetry_Int_Tables_number       1

loop_
  _symmetry_equiv_pos_as_xyz
  'x, y, z'

loop_
  _atom_site_type_symbol
  _atom_site_label
  _atom_site_symmetry_multiplicity
  _atom_site_fract_x
  _atom_site_fract_y
  _atom_site_fract_z
  _atom_site_occupancy
  _atom_site_charge
Mn  Mn1       1.0  0.54451  0.93731  0.16434  1.0000 0.9187452646
Mn  Mn2       1.0  0.63017  0.29451  0.10720  1.0000 0.9187452646
Mn  Mn3       1.0  0.18731  0.52297  0.89280  1.0000 0.9187452646
Mn  Mn4       1.0  0.77297  0.38017  0.83566  1.0000 0.9187452646
Mn  Mn5       1.0  0.70549  0.81269  0.33566  1.0000 0.9187452646
Mn  Mn6       1.0  0.61983  0.45549  0.39280  1.0000 0.9187452646
Mn  Mn7       1.0  0.06269  0.22703  0.60720  1.0000 0.9187452646
Mn  Mn8       1.0  0.47703  0.36983  0.66434  1.0000 0.9187452646
Mn  Mn9       1.0  0.38375  0.66396  0.12879  1.0000 0.9354450828
Mn  Mn10      1.0  0.50496  0.13375  0.21979  1.0000 0.9354450828
Mn  Mn11      1.0  0.91396  0.28517  0.78021  1.0000 0.9354450828
Mn  Mn12      1.0  0.53517  0.25496  0.87121  1.0000 0.9345378207
Mn  Mn13      1.0  0.86625  0.08604  0.37121  1.0000 0.9354450828
Mn  Mn14      1.0  0.74504  0.61625  0.28021  1.0000 0.9354450828
Mn  Mn15      1.0  0.33604  0.46483  0.71979  1.0000 0.9345378207
Mn  Mn16      1.0  0.71483  0.49504  0.62879  1.0000 0.9354450828
Mn  Mn17      1.0  0.83323  0.15796  0.24681  1.0000 0.8926919924
Mn  Mn18      1.0  0.83642  0.58323  0.17527  1.0000 0.8926919924
Mn  Mn19      1.0  0.40796  0.66115  0.82473  1.0000 0.8926919924
Mn  Mn20      1.0  0.91115  0.58642  0.75319  1.0000 0.8926919924
Mn  Mn21      1.0  0.41677  0.59204  0.25319  1.0000 0.8926919924
Mn  Mn22      1.0  0.41358  0.16677  0.32473  1.0000 0.8926919924
Mn  Mn23      1.0  0.84204  0.08885  0.67527  1.0000 0.8926919924
Mn  Mn24      1.0  0.33885  0.16358  0.74681  1.0000 0.8926919924
H   H1        1.0  0.36710  0.71230  0.00360  1.0000 0.1198062244
H   H2        1.0  0.61350  0.11710  0.15480  1.0000 0.1198062244
H   H3        1.0  0.96230  0.45870  0.84520  1.0000 0.1198062244
H   H4        1.0  0.70870  0.36350  0.99640  1.0000 0.1198062244
H   H5        1.0  0.88290  0.03770  0.49640  1.0000 0.1198062244
H   H6        1.0  0.63650  0.63290  0.34520  1.0000 0.1198062244
H   H7        1.0  0.28770  0.29130  0.65480  1.0000 0.1198062244
H   H8        1.0  0.54130  0.38650  0.50360  1.0000 0.1198062244
H   H9        1.0  0.36880  0.75640  0.94180  1.0000 0.1198062244
H   H10       1.0  0.67700  0.11880  0.11240  1.0000 0.1198062244
H   H11       1.0  0.00640  0.56460  0.88760  1.0000 0.1198062244
H   H12       1.0  0.81460  0.42700  0.05820  1.0000 0.1198062244
H   H13       1.0  0.88120  0.99360  0.55820  1.0000 0.1198062244
H   H14       1.0  0.57300  0.63120  0.38760  1.0000 0.1198062244
H   H15       1.0  0.24360  0.18540  0.61240  1.0000 0.1198062244
H   H16       1.0  0.43540  0.32300  0.44180  1.0000 0.1198062244
H   H17       1.0  0.44610  0.88760  0.95730  1.0000 0.1010586763
H   H18       1.0  0.73880  0.19610  0.05850  1.0000 0.1010586763
H   H19       1.0  0.13760  0.68030  0.94150  1.0000 0.1010586763
H   H20       1.0  0.93030  0.48880  0.04270  1.0000 0.1010586763
H   H21       1.0  0.80390  0.86240  0.54270  1.0000 0.1010586763
H   H22       1.0  0.51120  0.55390  0.44150  1.0000 0.1010586763
H   H23       1.0  0.11240  0.06970  0.55850  1.0000 0.1010586763
H   H24       1.0  0.31970  0.26120  0.45730  1.0000 0.1010586763
H   H25       1.0  0.52960  0.97890  0.03290  1.0000 0.130734676
H   H26       1.0  0.74670  0.27960  0.05070  1.0000 0.130734676
H   H27       1.0  0.22890  0.69600  0.94930  1.0000 0.130734676
H   H28       1.0  0.94600  0.49670  0.96710  1.0000 0.130734676
H   H29       1.0  0.72040  0.77110  0.46710  1.0000 0.130734676
H   H30       1.0  0.50330  0.47040  0.44930  1.0000 0.130734676
H   H31       1.0  0.02110  0.05400  0.55070  1.0000 0.130734676
H   H32       1.0  0.30400  0.25330  0.53290  1.0000 0.130734676
H   H33       1.0  0.47960  0.76100  0.23940  1.0000 0.130734676
H   H34       1.0  0.49020  0.22960  0.21860  1.0000 0.130734676
H   H35       1.0  0.01100  0.27160  0.78140  1.0000 0.130734676
H   H36       1.0  0.52160  0.24020  0.76060  1.0000 0.130734676
H   H37       1.0  0.77040  0.98900  0.26060  1.0000 0.130734676
H   H38       1.0  0.75980  0.52040  0.28140  1.0000 0.130734676
H   H39       1.0  0.23900  0.47840  0.71860  1.0000 0.130734676
H   H40       1.0  0.72840  0.50980  0.73940  1.0000 0.130734676
H   H41       1.0  0.54980  0.85210  0.27390  1.0000 0.130734676
H   H42       1.0  0.52590  0.29980  0.19770  1.0000 0.130734676
H   H43       1.0  0.10210  0.32820  0.80230  1.0000 0.130734676
H   H44       1.0  0.57820  0.27590  0.72610  1.0000 0.130734676
H   H45       1.0  0.70020  0.89790  0.22610  1.0000 0.130734676
H   H46       1.0  0.72410  0.45020  0.30230  1.0000 0.130734676
H   H47       1.0  0.14790  0.42180  0.69770  1.0000 0.130734676
H   H48       1.0  0.67180  0.47410  0.77390  1.0000 0.130734676
H   H49       1.0  0.37230  0.71490  0.25340  1.0000 0.1198062244
H   H50       1.0  0.36890  0.12230  0.15740  1.0000 0.1198062244
H   H51       1.0  0.96490  0.21150  0.84260  1.0000 0.1198062244
H   H52       1.0  0.46150  0.11890  0.74660  1.0000 0.1198062244
H   H53       1.0  0.87770  0.03510  0.24660  1.0000 0.1198062244
H   H54       1.0  0.88110  0.62770  0.34260  1.0000 0.1198062244
H   H55       1.0  0.28510  0.53850  0.65740  1.0000 0.1198062244
H   H56       1.0  0.78850  0.63110  0.75340  1.0000 0.1198062244
H   H57       1.0  0.43860  0.77920  0.30320  1.0000 0.130734676
H   H58       1.0  0.38540  0.18860  0.15940  1.0000 0.130734676
H   H59       1.0  0.02920  0.22600  0.84060  1.0000 0.130734676
H   H60       1.0  0.47600  0.13540  0.69680  1.0000 0.130734676
H   H61       1.0  0.81140  0.97080  0.19680  1.0000 0.130734676
H   H62       1.0  0.86460  0.56140  0.34060  1.0000 0.130734676
H   H63       1.0  0.22080  0.52400  0.65940  1.0000 0.130734676
H   H64       1.0  0.77400  0.61460  0.80320  1.0000 0.130734676
H   H65       1.0  0.42750  0.80570  0.26560  1.0000 0.1198062244
H   H66       1.0  0.41190  0.17750  0.12180  1.0000 0.1198062244
H   H67       1.0  0.05570  0.29010  0.87820  1.0000 0.1198062244
H   H68       1.0  0.54010  0.16190  0.73440  1.0000 0.1198062244
H   H69       1.0  0.82250  0.94430  0.23440  1.0000 0.1198062244
H   H70       1.0  0.83810  0.57250  0.37820  1.0000 0.1198062244
H   H71       1.0  0.19430  0.45990  0.62180  1.0000 0.1198062244
H   H72       1.0  0.70990  0.58810  0.76560  1.0000 0.1198062244
H   H73       1.0  0.36500  0.77570  0.17290  1.0000 0.1010586763
H   H74       1.0  0.44210  0.11500  0.08930  1.0000 0.1010586763
H   H75       1.0  0.02570  0.35280  0.91070  1.0000 0.1010586763
H   H76       1.0  0.60280  0.19210  0.82710  1.0000 0.1010586763
H   H77       1.0  0.88500  0.97430  0.32710  1.0000 0.1010586763
H   H78       1.0  0.80790  0.63500  0.41070  1.0000 0.1010586763
H   H79       1.0  0.22430  0.39720  0.58930  1.0000 0.1010586763
H   H80       1.0  0.64720  0.55790  0.67290  1.0000 0.1010586763
H   H81       1.0  0.24750  0.71760  0.18190  1.0000 0.130734676
H   H82       1.0  0.31560  0.99750  0.02990  1.0000 0.130734676
H   H83       1.0  0.96760  0.28570  0.97010  1.0000 0.130734676
H   H84       1.0  0.53570  0.06560  0.81810  1.0000 0.130734676
H   H85       1.0  0.00250  0.03240  0.31810  1.0000 0.130734676
H   H86       1.0  0.93440  0.75250  0.47010  1.0000 0.130734676
H   H87       1.0  0.28240  0.46430  0.52990  1.0000 0.130734676
H   H88       1.0  0.71430  0.68440  0.68190  1.0000 0.130734676
H   H89       1.0  0.36390  0.92850  0.17320  1.0000 0.130734676
H   H90       1.0  0.44070  0.11390  0.93540  1.0000 0.130734676
H   H91       1.0  0.17850  0.50530  0.06460  1.0000 0.130734676
H   H92       1.0  0.75530  0.19070  0.82680  1.0000 0.130734676
H   H93       1.0  0.88610  0.82150  0.32680  1.0000 0.130734676
H   H94       1.0  0.80930  0.63610  0.56460  1.0000 0.130734676
H   H95       1.0  0.07150  0.24470  0.43540  1.0000 0.130734676
H   H96       1.0  0.49470  0.55930  0.67320  1.0000 0.130734676
H   H97       1.0  0.47610  0.97920  0.16330  1.0000 0.1198062244
H   H98       1.0  0.56280  0.22610  0.99690  1.0000 0.1116708527
H   H99       1.0  0.22920  0.56590  0.00310  1.0000 0.1198062244
H   H100      1.0  0.81590  0.31280  0.83670  1.0000 0.1116708527
H   H101      1.0  0.77390  0.77080  0.33670  1.0000 0.1116708527
H   H102      1.0  0.68720  0.52390  0.50310  1.0000 0.1116708527
H   H103      1.0  0.02080  0.18410  0.49690  1.0000 0.1116708527
H   H104      1.0  0.43410  0.43720  0.66330  1.0000 0.1116708527
H   H105      1.0  0.24370  0.83400  0.19670  1.0000 0.130734676
H   H106      1.0  0.29700  0.99370  0.90970  1.0000 0.130734676
H   H107      1.0  0.08400  0.38730  0.09030  1.0000 0.130734676
H   H108      1.0  0.63730  0.04700  0.80330  1.0000 0.130734676
H   H109      1.0  0.00630  0.91600  0.30330  1.0000 0.130734676
H   H110      1.0  0.95300  0.75630  0.59030  1.0000 0.130734676
H   H111      1.0  0.16600  0.36270  0.40970  1.0000 0.130734676
H   H112      1.0  0.61270  0.70300  0.69670  1.0000 0.130734676
H   H113      1.0  0.22030  0.77380  0.22170  1.0000 0.1198062244
H   H114      1.0  0.24860  0.97030  0.94650  1.0000 0.1198062244
H   H115      1.0  0.02380  0.30210  0.05350  1.0000 0.1198062244
H   H116      1.0  0.55210  0.99860  0.77830  1.0000 0.1198062244
H   H117      1.0  0.02970  0.97620  0.27830  1.0000 0.1198062244
H   H118      1.0  0.00140  0.77970  0.55350  1.0000 0.1198062244
H   H119      1.0  0.22620  0.44790  0.44650  1.0000 0.1198062244
H   H120      1.0  0.69790  0.75140  0.72170  1.0000 0.1198062244
H   H121      1.0  0.18790  0.46960  0.23470  1.0000 0.1116708527
H   H122      1.0  0.20320  0.93790  0.21830  1.0000 0.1116708527
H   H123      1.0  0.71960  0.98490  0.78170  1.0000 0.1116708527
H   H124      1.0  0.23490  0.95320  0.76530  1.0000 0.1116708527
H   H125      1.0  0.06210  0.28040  0.26530  1.0000 0.1116708527
H   H126      1.0  0.04680  0.81210  0.28170  1.0000 0.1116708527
H   H127      1.0  0.53040  0.76510  0.71830  1.0000 0.1116708527
H   H128      1.0  0.01510  0.79680  0.73470  1.0000 0.1116708527
H   H129      1.0  0.07790  0.43110  0.22200  1.0000 0.1198062244
H   H130      1.0  0.10590  0.82790  0.14680  1.0000 0.1198062244
H   H131      1.0  0.68110  0.95910  0.85320  1.0000 0.1198062244
H   H132      1.0  0.20910  0.85590  0.77800  1.0000 0.1198062244
H   H133      1.0  0.17210  0.31890  0.27800  1.0000 0.1198062244
H   H134      1.0  0.14410  0.92210  0.35320  1.0000 0.1198062244
H   H135      1.0  0.56890  0.79090  0.64680  1.0000 0.1198062244
H   H136      1.0  0.04090  0.89410  0.72200  1.0000 0.1198062244
H   H137      1.0  0.07610  0.48440  0.17570  1.0000 0.1116708527
H   H138      1.0  0.15040  0.82610  0.09170  1.0000 0.1116708527
H   H139      1.0  0.73440  0.05870  0.90830  1.0000 0.1116708527
H   H140      1.0  0.30870  0.90040  0.82430  1.0000 0.1116708527
H   H141      1.0  0.17390  0.26560  0.32430  1.0000 0.1116708527
H   H142      1.0  0.09960  0.92390  0.40830  1.0000 0.1116708527
H   H143      1.0  0.51560  0.69130  0.59170  1.0000 0.1116708527
H   H144      1.0  0.94130  0.84960  0.67570  1.0000 0.1116708527
H   H145      1.0  0.17430  0.57320  0.13570  1.0000 0.130734676
H   H146      1.0  0.28860  0.92430  0.10110  1.0000 0.130734676
H   H147      1.0  0.82320  0.18750  0.89890  1.0000 0.130734676
H   H148      1.0  0.43750  0.03860  0.86430  1.0000 0.130734676
H   H149      1.0  0.07570  0.17680  0.36430  1.0000 0.130734676
H   H150      1.0  0.96140  0.82570  0.39890  1.0000 0.130734676
H   H151      1.0  0.42680  0.56250  0.60110  1.0000 0.130734676
H   H152      1.0  0.81250  0.71140  0.63570  1.0000 0.130734676
H   H153      1.0  0.53010  0.65540  0.17090  1.0000 0.130734676
H   H154      1.0  0.60920  0.28010  0.37470  1.0000 0.130734676
H   H155      1.0  0.90540  0.23450  0.62530  1.0000 0.130734676
H   H156      1.0  0.48450  0.35920  0.82910  1.0000 0.130734676
H   H157      1.0  0.71990  0.09460  0.32910  1.0000 0.130734676
H   H158      1.0  0.64080  0.46990  0.12530  1.0000 0.130734676
H   H159      1.0  0.34460  0.51550  0.87470  1.0000 0.130734676
H   H160      1.0  0.76550  0.39080  0.67090  1.0000 0.130734676
H   H161      1.0  0.59240  0.74440  0.20320  1.0000 0.1398837193
H   H162      1.0  0.63920  0.34240  0.34800  1.0000 0.1398837193
H   H163      1.0  0.99440  0.29120  0.65200  1.0000 0.1398837193
H   H164      1.0  0.54120  0.38920  0.79680  1.0000 0.1398837193
H   H165      1.0  0.65760  0.00560  0.29680  1.0000 0.1398837193
H   H166      1.0  0.61080  0.40760  0.15200  1.0000 0.1398837193
H   H167      1.0  0.25560  0.45880  0.84800  1.0000 0.1398837193
H   H168      1.0  0.70880  0.36080  0.70320  1.0000 0.1398837193
H   H169      1.0  0.63740  0.80070  0.14310  1.0000 0.1198062244
H   H170      1.0  0.74430  0.38740  0.33670  1.0000 0.1198062244
H   H171      1.0  0.05070  0.40760  0.66330  1.0000 0.1198062244
H   H172      1.0  0.65760  0.49430  0.85690  1.0000 0.1198062244
H   H173      1.0  0.61260  0.94930  0.35690  1.0000 0.1198062244
H   H174      1.0  0.50570  0.36260  0.16330  1.0000 0.1198062244
H   H175      1.0  0.19930  0.34240  0.83670  1.0000 0.1198062244
H   H176      1.0  0.59240  0.25570  0.64310  1.0000 0.1198062244
H   H177      1.0  0.63680  0.74670  0.14030  1.0000 0.1198062244
H   H178      1.0  0.74650  0.38680  0.39010  1.0000 0.1198062244
H   H179      1.0  0.99670  0.35640  0.60990  1.0000 0.1198062244
H   H180      1.0  0.60640  0.49650  0.85970  1.0000 0.1198062244
H   H181      1.0  0.61320  0.00330  0.35970  1.0000 0.1198062244
H   H182      1.0  0.50350  0.36320  0.10990  1.0000 0.1198062244
H   H183      1.0  0.25330  0.39360  0.89010  1.0000 0.1198062244
H   H184      1.0  0.64360  0.25350  0.64030  1.0000 0.1198062244
H   H185      1.0  0.56420  0.71170  0.10590  1.0000 0.1116708527
H   H186      1.0  0.70830  0.31420  0.35250  1.0000 0.1116708527
H   H187      1.0  0.96170  0.35580  0.64750  1.0000 0.1116708527
H   H188      1.0  0.60580  0.45830  0.89410  1.0000 0.1116708527
H   H189      1.0  0.68580  0.03830  0.39410  1.0000 0.1116708527
H   H190      1.0  0.54170  0.43580  0.14750  1.0000 0.1116708527
H   H191      1.0  0.28830  0.39420  0.85250  1.0000 0.1116708527
H   H192      1.0  0.64420  0.29170  0.60590  1.0000 0.1116708527
H   H193      1.0  0.65160  0.15160  0.23620  1.0000 0.1198062244
H   H194      1.0  0.66540  0.40160  0.00000  1.0000 0.1198062244
H   H195      1.0  0.40160  0.66540  0.00000  1.0000 0.1198062244
H   H196      1.0  0.91540  0.41540  0.76380  1.0000 0.1198062244
H   H197      1.0  0.59840  0.59840  0.26380  1.0000 0.1198062244
H   H198      1.0  0.58460  0.34840  0.50000  1.0000 0.1198062244
H   H199      1.0  0.84840  0.08460  0.50000  1.0000 0.1198062244
H   H200      1.0  0.33460  0.33460  0.73620  1.0000 0.1198062244
H   H201      1.0  0.72600  0.27500  0.28260  1.0000 0.130734676
H   H202      1.0  0.69340  0.47600  0.95100  1.0000 0.130734676
H   H203      1.0  0.52500  0.74240  0.04900  1.0000 0.130734676
H   H204      1.0  0.99240  0.44340  0.71740  1.0000 0.130734676
H   H205      1.0  0.52400  0.47500  0.21740  1.0000 0.130734676
H   H206      1.0  0.55660  0.27400  0.54900  1.0000 0.130734676
H   H207      1.0  0.72500  0.00760  0.45100  1.0000 0.130734676
H   H208      1.0  0.25760  0.30660  0.78260  1.0000 0.130734676
H   H209      1.0  0.86030  0.37710  0.32580  1.0000 0.1116708527
H   H210      1.0  0.78450  0.61030  0.98320  1.0000 0.1116708527
H   H211      1.0  0.62710  0.80130  0.01680  1.0000 0.1116708527
H   H212      1.0  0.05130  0.53450  0.67420  1.0000 0.1116708527
H   H213      1.0  0.38970  0.37290  0.17420  1.0000 0.1116708527
H   H214      1.0  0.46550  0.13970  0.51680  1.0000 0.1116708527
H   H215      1.0  0.62290  0.94870  0.48320  1.0000 0.1116708527
H   H216      1.0  0.19870  0.21550  0.82580  1.0000 0.1116708527
H   H217      1.0  0.92630  0.36480  0.32410  1.0000 0.1398837193
H   H218      1.0  0.85220  0.67630  0.06150  1.0000 0.1398837193
H   H219      1.0  0.61480  0.79070  0.93850  1.0000 0.1398837193
H   H220      1.0  0.04070  0.60220  0.67590  1.0000 0.1398837193
H   H221      1.0  0.32370  0.38520  0.17590  1.0000 0.1398837193
H   H222      1.0  0.39780  0.07370  0.43850  1.0000 0.1398837193
H   H223      1.0  0.63520  0.95930  0.56150  1.0000 0.1398837193
H   H224      1.0  0.20930  0.14780  0.82410  1.0000 0.1398837193
H   H225      1.0  0.64740  0.89990  0.15830  1.0000 0.1398837193
H   H226      1.0  0.73910  0.39740  0.24750  1.0000 0.1398837193
H   H227      1.0  0.14990  0.49160  0.75250  1.0000 0.1398837193
H   H228      1.0  0.74160  0.48910  0.84170  1.0000 0.1398837193
H   H229      1.0  0.60260  0.85010  0.34170  1.0000 0.1398837193
H   H230      1.0  0.51090  0.35260  0.25250  1.0000 0.1398837193
H   H231      1.0  0.10010  0.25840  0.74750  1.0000 0.1398837193
H   H232      1.0  0.50840  0.26090  0.65830  1.0000 0.1398837193
H   H233      1.0  0.62450  0.91600  0.11990  1.0000 0.130734676
H   H234      1.0  0.75460  0.37450  0.20850  1.0000 0.130734676
H   H235      1.0  0.16600  0.54610  0.79150  1.0000 0.130734676
H   H236      1.0  0.79610  0.50460  0.88010  1.0000 0.130734676
H   H237      1.0  0.62550  0.83400  0.38010  1.0000 0.130734676
H   H238      1.0  0.49540  0.37550  0.29150  1.0000 0.130734676
H   H239      1.0  0.08400  0.20390  0.70850  1.0000 0.130734676
H   H240      1.0  0.45390  0.24540  0.61990  1.0000 0.130734676
H   H241      1.0  0.74050  0.99670  0.09800  1.0000 0.1198062244
H   H242      1.0  0.89250  0.49050  0.24380  1.0000 0.1198062244
H   H243      1.0  0.24670  0.64870  0.75620  1.0000 0.1198062244
H   H244      1.0  0.89870  0.64250  0.90200  1.0000 0.1198062244
H   H245      1.0  0.50950  0.75330  0.40200  1.0000 0.1198062244
H   H246      1.0  0.35750  0.25950  0.25620  1.0000 0.1198062244
H   H247      1.0  0.00330  0.10130  0.74380  1.0000 0.1198062244
H   H248      1.0  0.35130  0.10750  0.59800  1.0000 0.1198062244
H   H249      1.0  0.69400  0.91190  0.09850  1.0000 0.1116708527
H   H250      1.0  0.84550  0.44400  0.28210  1.0000 0.1116708527
H   H251      1.0  0.16190  0.56340  0.71790  1.0000 0.1116708527
H   H252      1.0  0.81340  0.59550  0.90150  1.0000 0.1116708527
H   H253      1.0  0.55600  0.83810  0.40150  1.0000 0.1116708527
H   H254      1.0  0.40450  0.30600  0.21790  1.0000 0.1116708527
H   H255      1.0  0.08810  0.18660  0.78210  1.0000 0.1116708527
H   H256      1.0  0.43660  0.15450  0.59850  1.0000 0.1116708527
H   H257      1.0  0.77380  0.99380  0.14020  1.0000 0.1198062244
H   H258      1.0  0.88360  0.52380  0.28000  1.0000 0.1198062244
H   H259      1.0  0.24380  0.60360  0.72000  1.0000 0.1198062244
H   H260      1.0  0.85360  0.63360  0.85980  1.0000 0.1198062244
H   H261      1.0  0.47620  0.75620  0.35980  1.0000 0.1198062244
H   H262      1.0  0.36640  0.22620  0.22000  1.0000 0.1198062244
H   H263      1.0  0.00620  0.14640  0.78000  1.0000 0.1198062244
H   H264      1.0  0.39640  0.11640  0.64020  1.0000 0.1198062244
H   H265      1.0  0.00220  0.68110  0.23810  1.0000 0.1198062244
H   H266      1.0  0.01410  0.75220  0.82110  1.0000 0.1198062244
H   H267      1.0  0.93110  0.19300  0.17890  1.0000 0.1198062244
H   H268      1.0  0.44300  0.76410  0.76190  1.0000 0.1198062244
H   H269      1.0  0.24780  0.06890  0.26190  1.0000 0.1198062244
H   H270      1.0  0.23590  0.99780  0.67890  1.0000 0.1198062244
H   H271      1.0  0.31890  0.55700  0.32110  1.0000 0.1198062244
H   H272      1.0  0.80700  0.98590  0.73810  1.0000 0.1198062244
H   H273      1.0  0.10950  0.72370  0.23280  1.0000 0.1398837193
H   H274      1.0  0.12670  0.85950  0.88580  1.0000 0.1398837193
H   H275      1.0  0.97370  0.24090  0.11420  1.0000 0.1398837193
H   H276      1.0  0.49090  0.87670  0.76720  1.0000 0.1398837193
H   H277      1.0  0.14050  0.02630  0.26720  1.0000 0.1398837193
H   H278      1.0  0.12330  0.89050  0.61420  1.0000 0.1398837193
H   H279      1.0  0.27630  0.50910  0.38580  1.0000 0.1398837193
H   H280      1.0  0.75910  0.87330  0.73280  1.0000 0.1398837193
H   H281      1.0  0.02670  0.64300  0.09730  1.0000 0.1398837193
H   H282      1.0  0.17940  0.77670  0.88370  1.0000 0.1398837193
H   H283      1.0  0.89300  0.29570  0.11630  1.0000 0.1398837193
H   H284      1.0  0.54570  0.92940  0.90270  1.0000 0.1398837193
H   H285      1.0  0.22330  0.10700  0.40270  1.0000 0.1398837193
H   H286      1.0  0.07060  0.97330  0.61630  1.0000 0.1398837193
H   H287      1.0  0.35700  0.45430  0.38370  1.0000 0.1398837193
H   H288      1.0  0.70430  0.82060  0.59730  1.0000 0.1398837193
H   H289      1.0  0.91920  0.60300  0.10180  1.0000 0.1010586763
H   H290      1.0  0.06740  0.66920  0.81620  1.0000 0.1010586763
H   H291      1.0  0.85300  0.25120  0.18380  1.0000 0.1010586763
H   H292      1.0  0.50120  0.81740  0.89820  1.0000 0.1010586763
H   H293      1.0  0.33080  0.14700  0.39820  1.0000 0.1010586763
H   H294      1.0  0.18260  0.08080  0.68380  1.0000 0.1010586763
H   H295      1.0  0.39700  0.49880  0.31620  1.0000 0.1010586763
H   H296      1.0  0.74880  0.93260  0.60180  1.0000 0.1010586763
H   H297      1.0  0.12910  0.67010  0.15600  1.0000 0.1198062244
H   H298      1.0  0.22310  0.87910  0.95900  1.0000 0.1198062244
H   H299      1.0  0.92010  0.26410  0.04100  1.0000 0.1198062244
H   H300      1.0  0.51410  0.97310  0.84400  1.0000 0.1198062244
H   H301      1.0  0.12090  0.07990  0.34400  1.0000 0.1198062244
H   H302      1.0  0.02690  0.87090  0.54100  1.0000 0.1198062244
H   H303      1.0  0.32990  0.48590  0.45900  1.0000 0.1198062244
H   H304      1.0  0.73590  0.77690  0.65600  1.0000 0.1198062244
H   H305      1.0  0.15880  0.72940  0.12640  1.0000 0.130734676
H   H306      1.0  0.28240  0.90880  0.92940  1.0000 0.130734676
H   H307      1.0  0.97940  0.35300  0.07060  1.0000 0.130734676
H   H308      1.0  0.60300  0.03240  0.87360  1.0000 0.130734676
H   H309      1.0  0.09120  0.02060  0.37360  1.0000 0.130734676
H   H310      1.0  0.96760  0.84120  0.57060  1.0000 0.130734676
H   H311      1.0  0.27060  0.39700  0.42940  1.0000 0.130734676
H   H312      1.0  0.64700  0.71760  0.62640  1.0000 0.130734676
C   C1        1.0  0.49530  0.89848  0.06398  1.0000 0.2971971856
C   C2        1.0  0.68132  0.24530  0.09682  1.0000 0.2971971856
C   C3        1.0  0.14848  0.58450  0.90318  1.0000 0.2971971856
C   C4        1.0  0.83450  0.43132  0.93602  1.0000 0.2971971856
C   C5        1.0  0.75470  0.85152  0.43602  1.0000 0.2971971856
C   C6        1.0  0.56868  0.50470  0.40318  1.0000 0.2971971856
C   C7        1.0  0.10152  0.16550  0.59682  1.0000 0.2971971856
C   C8        1.0  0.41550  0.31868  0.56398  1.0000 0.2971971856
C   C9        1.0  0.44714  0.81805  0.05479  1.0000 -0.1494247763
C   C10       1.0  0.64235  0.19714  0.12909  1.0000 -0.1494247763
C   C11       1.0  0.06805  0.51326  0.87091  1.0000 -0.1494247763
C   C12       1.0  0.76326  0.39235  0.94521  1.0000 -0.1494247763
C   C13       1.0  0.80286  0.93195  0.44521  1.0000 -0.1494247763
C   C14       1.0  0.60765  0.55286  0.37091  1.0000 -0.1494247763
C   C15       1.0  0.18195  0.23674  0.62909  1.0000 -0.1494247763
C   C16       1.0  0.48674  0.35765  0.55479  1.0000 -0.1494247763
C   C17       1.0  0.40010  0.76630  0.00960  1.0000 -0.0806391067
C   C18       1.0  0.64050  0.15010  0.13380  1.0000 -0.0806391067
C   C19       1.0  0.01630  0.50670  0.86620  1.0000 -0.0806391067
C   C20       1.0  0.75670  0.39050  0.99040  1.0000 -0.0806391067
C   C21       1.0  0.84990  0.98370  0.49040  1.0000 -0.0806391067
C   C22       1.0  0.60950  0.59990  0.36620  1.0000 -0.0806391067
C   C23       1.0  0.23370  0.24330  0.63380  1.0000 -0.0806391067
C   C24       1.0  0.49330  0.35950  0.50960  1.0000 -0.0806391067
C   C25       1.0  0.40025  0.79200  0.97265  1.0000 -0.1404498796
C   C26       1.0  0.67760  0.15025  0.10825  1.0000 -0.1404498796
C   C27       1.0  0.04200  0.56935  0.89175  1.0000 -0.1404498796
C   C28       1.0  0.81935  0.42760  0.02735  1.0000 -0.1404498796
C   C29       1.0  0.84975  0.95800  0.52735  1.0000 -0.1404498796
C   C30       1.0  0.57240  0.59975  0.39175  1.0000 -0.1404498796
C   C31       1.0  0.20800  0.18065  0.60825  1.0000 -0.1404498796
C   C32       1.0  0.43065  0.32240  0.47265  1.0000 -0.1404498796
C   C33       1.0  0.44710  0.87040  0.98190  1.0000 -0.0806391067
C   C34       1.0  0.71520  0.19710  0.07670  1.0000 -0.0806391067
C   C35       1.0  0.12040  0.63850  0.92330  1.0000 -0.0806391067
C   C36       1.0  0.88850  0.46520  0.01810  1.0000 -0.0806391067
C   C37       1.0  0.80290  0.87960  0.51810  1.0000 -0.0806391067
C   C38       1.0  0.53480  0.55290  0.42330  1.0000 -0.0806391067
C   C39       1.0  0.12960  0.11150  0.57670  1.0000 -0.0806391067
C   C40       1.0  0.36150  0.28480  0.48190  1.0000 -0.0806391067
C   C41       1.0  0.49610  0.92470  0.02720  1.0000 -0.2210021974
C   C42       1.0  0.71890  0.24610  0.07140  1.0000 -0.2210021974
C   C43       1.0  0.17470  0.64750  0.92860  1.0000 -0.2210021974
C   C44       1.0  0.89750  0.46890  0.97280  1.0000 -0.2210021974
C   C45       1.0  0.75390  0.82530  0.47280  1.0000 -0.2210021974
C   C46       1.0  0.53110  0.50390  0.42860  1.0000 -0.2210021974
C   C47       1.0  0.07530  0.10250  0.57140  1.0000 -0.2210021974
C   C48       1.0  0.35250  0.28110  0.52720  1.0000 -0.2210021974
C   C49       1.0  0.44105  0.78420  0.09165  1.0000 0.4488401638
C   C50       1.0  0.59940  0.19105  0.15685  1.0000 0.4488401638
C   C51       1.0  0.03420  0.44255  0.84315  1.0000 0.4488401638
C   C52       1.0  0.69255  0.34940  0.90835  1.0000 0.4488401638
C   C53       1.0  0.80895  0.96580  0.40835  1.0000 0.4488401638
C   C54       1.0  0.65060  0.55895  0.34315  1.0000 0.4488401638
C   C55       1.0  0.21580  0.30745  0.65685  1.0000 0.4488401638
C   C56       1.0  0.55745  0.40060  0.59165  1.0000 0.4488401638
C   C57       1.0  0.50021  0.83452  0.21033  1.0000 0.4384658096
C   C58       1.0  0.53988  0.25021  0.16569  1.0000 0.4384658096
C   C59       1.0  0.08452  0.37419  0.83431  1.0000 0.4384658096
C   C60       1.0  0.62419  0.28988  0.78967  1.0000 0.4384658096
C   C61       1.0  0.74979  0.91548  0.28967  1.0000 0.4384658096
C   C62       1.0  0.71012  0.49979  0.33431  1.0000 0.4384658096
C   C63       1.0  0.16548  0.37581  0.66569  1.0000 0.4384658096
C   C64       1.0  0.62581  0.46012  0.71033  1.0000 0.4384658096
C   C65       1.0  0.49570  0.80600  0.24990  1.0000 -0.2498749083
C   C66       1.0  0.49580  0.24570  0.18970  1.0000 -0.2498749083
C   C67       1.0  0.05600  0.30610  0.81030  1.0000 -0.2498749083
C   C68       1.0  0.55610  0.24580  0.75010  1.0000 -0.2498749083
C   C69       1.0  0.75430  0.94400  0.25010  1.0000 -0.2498749083
C   C70       1.0  0.75420  0.50430  0.31030  1.0000 -0.2498749083
C   C71       1.0  0.19400  0.44390  0.68970  1.0000 -0.2498749083
C   C72       1.0  0.69390  0.50420  0.74990  1.0000 -0.2498749083
C   C73       1.0  0.42690  0.77330  0.27000  1.0000 -0.3289110622
C   C74       1.0  0.40690  0.17690  0.15360  1.0000 -0.3289110622
C   C75       1.0  0.02330  0.25330  0.84640  1.0000 -0.3289110622
C   C76       1.0  0.50330  0.15690  0.73000  1.0000 -0.3289110622
C   C77       1.0  0.82310  0.97670  0.23000  1.0000 -0.3289110622
C   C78       1.0  0.84310  0.57310  0.34640  1.0000 -0.3289110622
C   C79       1.0  0.22670  0.49670  0.65360  1.0000 -0.3289110622
C   C80       1.0  0.74670  0.59310  0.77000  1.0000 -0.3289110622
C   C81       1.0  0.36490  0.80720  0.17290  1.0000 0.1010586763
C   C82       1.0  0.44200  0.11490  0.05770  1.0000 0.1010586763
C   C83       1.0  0.05720  0.38430  0.94230  1.0000 0.1010586763
C   C84       1.0  0.63430  0.19200  0.82710  1.0000 0.1010586763
C   C85       1.0  0.88510  0.94280  0.32710  1.0000 0.1010586763
C   C86       1.0  0.80800  0.63510  0.44230  1.0000 0.1010586763
C   C87       1.0  0.19280  0.36570  0.55770  1.0000 0.1010586763
C   C88       1.0  0.61570  0.55800  0.67290  1.0000 0.1010586763
C   C89       1.0  0.29420  0.77230  0.17910  1.0000 -0.2100843773
C   C90       1.0  0.36510  0.04420  0.02190  1.0000 -0.2100843773
C   C91       1.0  0.02230  0.34320  0.97810  1.0000 -0.2100843773
C   C92       1.0  0.59320  0.11510  0.82090  1.0000 -0.2100843773
C   C93       1.0  0.95580  0.97770  0.32090  1.0000 -0.2100843773
C   C94       1.0  0.88490  0.70580  0.47810  1.0000 -0.2100843773
C   C95       1.0  0.22770  0.40680  0.52190  1.0000 -0.2100843773
C   C96       1.0  0.65680  0.63490  0.67910  1.0000 -0.2100843773
C   C97       1.0  0.29430  0.81820  0.18130  1.0000 0.1575258599
C   C98       1.0  0.36300  0.04430  0.97610  1.0000 0.1575258599
C   C99       1.0  0.06820  0.38690  0.02390  1.0000 0.1575258599
C   C100      1.0  0.63690  0.11300  0.81870  1.0000 0.1575258599
C   C101      1.0  0.95570  0.93180  0.31870  1.0000 0.1575258599
C   C102      1.0  0.88700  0.70570  0.52390  1.0000 0.1575258599
C   C103      1.0  0.18180  0.36310  0.47610  1.0000 0.1575258599
C   C104      1.0  0.61310  0.63700  0.68130  1.0000 0.1575258599
C   C105      1.0  0.36240  0.89570  0.17390  1.0000 -0.2100843773
C   C106      1.0  0.43850  0.11240  0.96670  1.0000 -0.2100843773
C   C107      1.0  0.14570  0.47180  0.03330  1.0000 -0.2100843773
C   C108      1.0  0.72180  0.18850  0.82610  1.0000 -0.2100843773
C   C109      1.0  0.88760  0.85430  0.32610  1.0000 -0.2100843773
C   C110      1.0  0.81150  0.63760  0.53330  1.0000 -0.2100843773
C   C111      1.0  0.10430  0.27820  0.46670  1.0000 -0.2100843773
C   C112      1.0  0.52820  0.56150  0.67390  1.0000 -0.2100843773
C   C113      1.0  0.42940  0.92550  0.16750  1.0000 0.1116708527
C   C114      1.0  0.51190  0.17940  0.00390  1.0000 0.1116708527
C   C115      1.0  0.17550  0.50800  0.99610  1.0000 0.1116708527
C   C116      1.0  0.75800  0.26190  0.83250  1.0000 0.1116708527
C   C117      1.0  0.82060  0.82450  0.33250  1.0000 0.1116708527
C   C118      1.0  0.73810  0.57060  0.49610  1.0000 0.1116708527
C   C119      1.0  0.07450  0.24200  0.50390  1.0000 0.1116708527
C   C120      1.0  0.49200  0.48810  0.66750  1.0000 0.1116708527
C   C121      1.0  0.22740  0.78840  0.19200  1.0000 -0.2316784149
C   C122      1.0  0.28540  0.97740  0.93900  1.0000 -0.2316784149
C   C123      1.0  0.03840  0.34640  0.06100  1.0000 -0.2316784149
C   C124      1.0  0.59640  0.03540  0.80800  1.0000 -0.2316784149
C   C125      1.0  0.02260  0.96160  0.30800  1.0000 -0.2316784149
C   C126      1.0  0.96460  0.77260  0.56100  1.0000 -0.2316784149
C   C127      1.0  0.21160  0.40360  0.43900  1.0000 -0.2316784149
C   C128      1.0  0.65360  0.71460  0.69200  1.0000 -0.2316784149
C   C129      1.0  0.23916  0.57120  0.15916  1.0000 0.2748274768
C   C130      1.0  0.33000  0.98916  0.16796  1.0000 0.2748274768
C   C131      1.0  0.82120  0.16204  0.83204  1.0000 0.2748274768
C   C132      1.0  0.41204  0.08000  0.84084  1.0000 0.2748274768
C   C133      1.0  0.01084  0.17880  0.34084  1.0000 0.2748274768
C   C134      1.0  0.92000  0.76084  0.33204  1.0000 0.2748274768
C   C135      1.0  0.42880  0.58796  0.66796  1.0000 0.2748274768
C   C136      1.0  0.83796  0.67000  0.65916  1.0000 0.2748274768
C   C137      1.0  0.24680  0.54500  0.19000  1.0000 -0.1698313754
C   C138      1.0  0.30680  0.99680  0.20180  1.0000 -0.1698313754
C   C139      1.0  0.79500  0.10500  0.79820  1.0000 -0.1698313754
C   C140      1.0  0.35500  0.05680  0.81000  1.0000 -0.1698313754
C   C141      1.0  0.00320  0.20500  0.31000  1.0000 -0.1698313754
C   C142      1.0  0.94320  0.75320  0.29820  1.0000 -0.1698313754
C   C143      1.0  0.45500  0.64500  0.70180  1.0000 -0.1698313754
C   C144      1.0  0.89500  0.69320  0.69000  1.0000 -0.1698313754
C   C145      1.0  0.18560  0.49040  0.21440  1.0000 -0.0806391067
C   C146      1.0  0.22120  0.93560  0.19520  1.0000 -0.0806391067
C   C147      1.0  0.74040  0.02600  0.80480  1.0000 -0.0806391067
C   C148      1.0  0.27600  0.97120  0.78560  1.0000 -0.0806391067
C   C149      1.0  0.06440  0.25960  0.28560  1.0000 -0.0806391067
C   C150      1.0  0.02880  0.81440  0.30480  1.0000 -0.0806391067
C   C151      1.0  0.50960  0.72400  0.69520  1.0000 -0.0806391067
C   C152      1.0  0.97400  0.77880  0.71440  1.0000 -0.0806391067
C   C153      1.0  0.12020  0.46810  0.20690  1.0000 -0.1494247763
C   C154      1.0  0.16330  0.87020  0.15210  1.0000 -0.1494247763
C   C155      1.0  0.71810  0.01120  0.84790  1.0000 -0.1494247763
C   C156      1.0  0.26120  0.91330  0.79310  1.0000 -0.1494247763
C   C157      1.0  0.12980  0.28190  0.29310  1.0000 -0.1494247763
C   C158      1.0  0.08670  0.87980  0.34790  1.0000 -0.1494247763
C   C159      1.0  0.53190  0.73880  0.65210  1.0000 -0.1494247763
C   C160      1.0  0.98880  0.83670  0.70690  1.0000 -0.1494247763
C   C161      1.0  0.11900  0.49890  0.17910  1.0000 -0.0627618348
C   C162      1.0  0.18990  0.86900  0.12010  1.0000 -0.0627618348
C   C163      1.0  0.74890  0.06980  0.87990  1.0000 -0.0627618348
C   C164      1.0  0.31980  0.93990  0.82090  1.0000 -0.0651996805
C   C165      1.0  0.13100  0.25110  0.32090  1.0000 -0.0627618348
C   C166      1.0  0.06010  0.88100  0.37990  1.0000 -0.0627618348
C   C167      1.0  0.50110  0.68020  0.62010  1.0000 -0.0627618348
C   C168      1.0  0.93020  0.81010  0.67910  1.0000 -0.0627618348
C   C169      1.0  0.17670  0.55130  0.15480  1.0000 -0.2316784149
C   C170      1.0  0.27190  0.92670  0.12540  1.0000 -0.2316784149
C   C171      1.0  0.80130  0.14650  0.87460  1.0000 -0.2316784149
C   C172      1.0  0.39650  0.02190  0.84520  1.0000 -0.2316784149
C   C173      1.0  0.07330  0.19870  0.34520  1.0000 -0.2316784149
C   C174      1.0  0.97810  0.82330  0.37460  1.0000 -0.2316784149
C   C175      1.0  0.44870  0.60350  0.62540  1.0000 -0.2316784149
C   C176      1.0  0.85350  0.72810  0.65480  1.0000 -0.2316784149
C   C177      1.0  0.31293  0.56770  0.19903  1.0000 0.4384658096
C   C178      1.0  0.36390  0.06293  0.24523  1.0000 0.4384658096
C   C179      1.0  0.81770  0.11867  0.75477  1.0000 0.4384658096
C   C180      1.0  0.36867  0.11390  0.80097  1.0000 0.4384658096
C   C181      1.0  0.93707  0.18230  0.30097  1.0000 0.4384658096
C   C182      1.0  0.88610  0.68707  0.25477  1.0000 0.4384658096
C   C183      1.0  0.43230  0.63133  0.74523  1.0000 0.4384658096
C   C184      1.0  0.88133  0.63610  0.69903  1.0000 0.4384658096
C   C185      1.0  0.48565  0.68148  0.16453  1.0000 0.4747754486
C   C186      1.0  0.57112  0.23565  0.30417  1.0000 0.4747754486
C   C187      1.0  0.93148  0.26695  0.69583  1.0000 0.4747754486
C   C188      1.0  0.51695  0.32112  0.83547  1.0000 0.4747754486
C   C189      1.0  0.76435  0.06852  0.33547  1.0000 0.4747754486
C   C190      1.0  0.67888  0.51435  0.19583  1.0000 0.4747754486
C   C191      1.0  0.31852  0.48305  0.80417  1.0000 0.4747754486
C   C192      1.0  0.73305  0.42888  0.66453  1.0000 0.4747754486
C   C193      1.0  0.55400  0.70540  0.17180  1.0000 -0.2498749083
C   C194      1.0  0.63220  0.30400  0.34860  1.0000 -0.2498749083
C   C195      1.0  0.95540  0.28360  0.65140  1.0000 -0.2498749083
C   C196      1.0  0.53360  0.38220  0.82820  1.0000 -0.2498749083
C   C197      1.0  0.69600  0.04460  0.32820  1.0000 -0.2498749083
C   C198      1.0  0.61780  0.44600  0.15140  1.0000 -0.2498749083
C   C199      1.0  0.29460  0.46640  0.84860  1.0000 -0.2498749083
C   C200      1.0  0.71640  0.36780  0.67180  1.0000 -0.2498749083
C   C201      1.0  0.60210  0.74440  0.13730  1.0000 -0.3209556551
C   C202      1.0  0.71480  0.35210  0.35770  1.0000 -0.3209556551
C   C203      1.0  0.99440  0.35710  0.64230  1.0000 -0.3209556551
C   C204      1.0  0.60710  0.46480  0.86270  1.0000 -0.3209556551
C   C205      1.0  0.64790  0.00560  0.36270  1.0000 -0.3209556551
C   C206      1.0  0.53520  0.39790  0.14230  1.0000 -0.3209556551
C   C207      1.0  0.25560  0.39290  0.85770  1.0000 -0.3209556551
C   C208      1.0  0.64290  0.28520  0.63730  1.0000 -0.3209556551
C   C209      1.0  0.82573  0.24470  0.27763  1.0000 0.3319774868
C   C210      1.0  0.79810  0.57573  0.08103  1.0000 0.3319774868
C   C211      1.0  0.49470  0.71707  0.91897  1.0000 0.3319774868
C   C212      1.0  0.96707  0.54810  0.72237  1.0000 0.3319774868
C   C213      1.0  0.42427  0.50530  0.22237  1.0000 0.3319774868
C   C214      1.0  0.45190  0.17427  0.41897  1.0000 0.3319774868
C   C215      1.0  0.75530  0.03293  0.58103  1.0000 0.3319774868
C   C216      1.0  0.28293  0.20190  0.77763  1.0000 0.3319774868
C   C217      1.0  0.74083  0.18018  0.25301  1.0000 -0.1698313754
C   C218      1.0  0.73782  0.49083  0.06065  1.0000 -0.1698313754
C   C219      1.0  0.43018  0.67717  0.93935  1.0000 -0.1698313754
C   C220      1.0  0.92717  0.48782  0.74699  1.0000 -0.1698313754
C   C221      1.0  0.50917  0.56982  0.24699  1.0000 -0.1698313754
C   C222      1.0  0.51218  0.25917  0.43935  1.0000 -0.1698313754
C   C223      1.0  0.81982  0.07283  0.56065  1.0000 -0.1698313754
C   C224      1.0  0.32283  0.26218  0.75301  1.0000 -0.1698313754
C   C225      1.0  0.70690  0.19372  0.25442  1.0000 -0.0627618348
C   C226      1.0  0.70248  0.45690  0.01318  1.0000 -0.0627618348
C   C227      1.0  0.44372  0.68930  0.98682  1.0000 -0.0627618348
C   C228      1.0  0.93930  0.45248  0.74558  1.0000 -0.0627618348
C   C229      1.0  0.54310  0.55628  0.24558  1.0000 -0.0627618348
C   C230      1.0  0.54752  0.29310  0.48682  1.0000 -0.0627618348
C   C231      1.0  0.80628  0.06070  0.51318  1.0000 -0.0627618348
C   C232      1.0  0.31070  0.29752  0.75442  1.0000 -0.0627618348
C   C233      1.0  0.75100  0.26750  0.28170  1.0000 -0.1404498796
C   C234      1.0  0.71930  0.50100  0.98350  1.0000 -0.1404498796
C   C235      1.0  0.51750  0.73580  0.01650  1.0000 -0.1404498796
C   C236      1.0  0.98580  0.46930  0.71830  1.0000 -0.1404498796
C   C237      1.0  0.49900  0.48250  0.21830  1.0000 -0.1404498796
C   C238      1.0  0.53070  0.24900  0.51650  1.0000 -0.1404498796
C   C239      1.0  0.73250  0.01420  0.48350  1.0000 -0.1404498796
C   C240      1.0  0.26420  0.28070  0.78170  1.0000 -0.1404498796
C   C241      1.0  0.83060  0.32760  0.30680  1.0000 -0.0627618348
C   C242      1.0  0.77380  0.58060  0.00300  1.0000 -0.0627618348
C   C243      1.0  0.57760  0.77080  0.99700  1.0000 -0.0627618348
C   C244      1.0  0.02080  0.52380  0.69320  1.0000 -0.0627618348
C   C245      1.0  0.41940  0.42240  0.19320  1.0000 -0.0627618348
C   C246      1.0  0.47620  0.16940  0.49700  1.0000 -0.0627618348
C   C247      1.0  0.67240  0.97920  0.50300  1.0000 -0.0627618348
C   C248      1.0  0.22920  0.22620  0.80680  1.0000 -0.0627618348
C   C249      1.0  0.87040  0.32080  0.30620  1.0000 -0.2210021974
C   C250      1.0  0.81420  0.62040  0.04960  1.0000 -0.2210021974
C   C251      1.0  0.57080  0.76460  0.95040  1.0000 -0.2210021974
C   C252      1.0  0.01460  0.56420  0.69380  1.0000 -0.2210021974
C   C253      1.0  0.37960  0.42920  0.19380  1.0000 -0.2210021974
C   C254      1.0  0.43580  0.12960  0.45040  1.0000 -0.2210021974
C   C255      1.0  0.67920  0.98540  0.54960  1.0000 -0.2210021974
C   C256      1.0  0.23540  0.18580  0.80620  1.0000 -0.2210021974
C   C257      1.0  0.69204  0.10320  0.22224  1.0000 0.4384658096
C   C258      1.0  0.71980  0.44204  0.08884  1.0000 0.4384658096
C   C259      1.0  0.35320  0.63096  0.91116  1.0000 0.4384658096
C   C260      1.0  0.88096  0.46980  0.77776  1.0000 0.4384658096
C   C261      1.0  0.55796  0.64680  0.27776  1.0000 0.4384658096
C   C262      1.0  0.53020  0.30796  0.41116  1.0000 0.4384658096
C   C263      1.0  0.89680  0.11904  0.58884  1.0000 0.4384658096
C   C264      1.0  0.36904  0.28020  0.72224  1.0000 0.4384658096
C   C265      1.0  0.71050  0.01102  0.17872  1.0000 0.4384658096
C   C266      1.0  0.78178  0.46050  0.19948  1.0000 0.4384658096
C   C267      1.0  0.26102  0.58230  0.80052  1.0000 0.4384658096
C   C268      1.0  0.83230  0.53178  0.82128  1.0000 0.4384658096
C   C269      1.0  0.53950  0.73898  0.32128  1.0000 0.4384658096
C   C270      1.0  0.46822  0.28950  0.30052  1.0000 0.4384658096
C   C271      1.0  0.98898  0.16770  0.69948  1.0000 0.4384658096
C   C272      1.0  0.41770  0.21822  0.67872  1.0000 0.4384658096
C   C273      1.0  0.67110  0.94191  0.14301  1.0000 -0.2498749083
C   C274      1.0  0.77809  0.42110  0.22919  1.0000 -0.2498749083
C   C275      1.0  0.19191  0.54890  0.77081  1.0000 -0.2498749083
C   C276      1.0  0.79890  0.52809  0.85699  1.0000 -0.2498749083
C   C277      1.0  0.57890  0.80809  0.35699  1.0000 -0.2498749083
C   C278      1.0  0.47191  0.32890  0.27081  1.0000 -0.2498749083
C   C279      1.0  0.05809  0.20110  0.72919  1.0000 -0.2498749083
C   C280      1.0  0.45110  0.22191  0.64301  1.0000 -0.2498749083
C   C281      1.0  0.72420  0.96280  0.11780  1.0000 -0.3209556551
C   C282      1.0  0.85640  0.47420  0.26140  1.0000 -0.3209556551
C   C283      1.0  0.21280  0.59500  0.73860  1.0000 -0.3209556551
C   C284      1.0  0.84500  0.60640  0.88220  1.0000 -0.3209556551
C   C285      1.0  0.52580  0.78720  0.38220  1.0000 -0.3209556551
C   C286      1.0  0.39360  0.27580  0.23860  1.0000 -0.3209556551
C   C287      1.0  0.03720  0.15500  0.76140  1.0000 -0.3209556551
C   C288      1.0  0.40500  0.14360  0.61780  1.0000 -0.3209556551
C   C289      1.0  0.00690  0.67420  0.20830  1.0000 0.1010586763
C   C290      1.0  0.04860  0.75690  0.83270  1.0000 0.1010586763
C   C291      1.0  0.92420  0.21590  0.16730  1.0000 0.1010586763
C   C292      1.0  0.46590  0.79860  0.79170  1.0000 0.1010586763
C   C293      1.0  0.24310  0.07580  0.29170  1.0000 0.1010586763
C   C294      1.0  0.20140  0.99310  0.66730  1.0000 0.1010586763
C   C295      1.0  0.32580  0.53410  0.33270  1.0000 0.1010586763
C   C296      1.0  0.78410  0.95140  0.70830  1.0000 0.1010586763
C   C297      1.0  0.07140  0.70030  0.20490  1.0000 -0.2316784149
C   C298      1.0  0.11650  0.82140  0.87110  1.0000 -0.2316784149
C   C299      1.0  0.95030  0.24540  0.12890  1.0000 -0.2316784149
C   C300      1.0  0.49540  0.86650  0.79510  1.0000 -0.2316784149
C   C301      1.0  0.17860  0.04970  0.29510  1.0000 -0.2316784149
C   C302      1.0  0.13350  0.92860  0.62890  1.0000 -0.2316784149
C   C303      1.0  0.29970  0.50460  0.37110  1.0000 -0.2316784149
C   C304      1.0  0.75460  0.88350  0.70490  1.0000 -0.2316784149
C   C305      1.0  0.08240  0.69370  0.16310  1.0000 0.1398837193
C   C306      1.0  0.16930  0.83240  0.88870  1.0000 0.1398837193
C   C307      1.0  0.94370  0.28060  0.11130  1.0000 0.1398837193
C   C308      1.0  0.53060  0.91930  0.83690  1.0000 0.1398837193
C   C309      1.0  0.16760  0.05630  0.33690  1.0000 0.1398837193
C   C310      1.0  0.08070  0.91760  0.61130  1.0000 0.1398837193
C   C311      1.0  0.30630  0.46940  0.38870  1.0000 0.1398837193
C   C312      1.0  0.71940  0.83070  0.66310  1.0000 0.1398837193
C   C313      1.0  0.02500  0.65480  0.12680  1.0000 -0.2047227545
C   C314      1.0  0.14820  0.77500  0.87020  1.0000 -0.2047227545
C   C315      1.0  0.90480  0.27800  0.12980  1.0000 -0.2047227545
C   C316      1.0  0.52800  0.89820  0.87320  1.0000 -0.2047227545
C   C317      1.0  0.22500  0.09520  0.37320  1.0000 -0.2047227545
C   C318      1.0  0.10180  0.97500  0.62980  1.0000 -0.2047227545
C   C319      1.0  0.34520  0.47200  0.37020  1.0000 -0.2047227545
C   C320      1.0  0.72200  0.85180  0.62680  1.0000 -0.2047227545
C   C321      1.0  0.95870  0.62870  0.12960  1.0000 0.0895361827
C   C322      1.0  0.07910  0.70870  0.83000  1.0000 0.0895361827
C   C323      1.0  0.87870  0.24910  0.17000  1.0000 0.0895361827
C   C324      1.0  0.49910  0.82910  0.87040  1.0000 0.0895361827
C   C325      1.0  0.29130  0.12130  0.37040  1.0000 0.0895361827
C   C326      1.0  0.17090  0.04130  0.67000  1.0000 0.0895361827
C   C327      1.0  0.37130  0.50090  0.33000  1.0000 0.0895361827
C   C328      1.0  0.75090  0.92090  0.62960  1.0000 0.0895361827
C   C329      1.0  0.14940  0.71800  0.15700  1.0000 -0.2210021974
C   C330      1.0  0.24240  0.89940  0.93140  1.0000 -0.2210021974
C   C331      1.0  0.96800  0.31100  0.06860  1.0000 -0.2210021974
C   C332      1.0  0.56100  0.99240  0.84300  1.0000 -0.2210021974
C   C333      1.0  0.10060  0.03200  0.34300  1.0000 -0.2210021974
C   C334      1.0  0.00760  0.85060  0.56860  1.0000 -0.2210021974
C   C335      1.0  0.28200  0.43900  0.43140  1.0000 -0.2210021974
C   C336      1.0  0.68900  0.75760  0.65700  1.0000 -0.2210021974
N   N1        1.0  0.47917  0.82949  0.13526  1.0000 -0.3537989443
N   N2        1.0  0.59391  0.22917  0.14968  1.0000 -0.3537989443
N   N3        1.0  0.07949  0.44423  0.85032  1.0000 -0.3537989443
N   N4        1.0  0.69423  0.34391  0.86474  1.0000 -0.3537989443
N   N5        1.0  0.77083  0.92051  0.36474  1.0000 -0.3537989443
N   N6        1.0  0.65609  0.52083  0.35032  1.0000 -0.3537989443
N   N7        1.0  0.17051  0.30577  0.64968  1.0000 -0.3537989443
N   N8        1.0  0.55577  0.40609  0.63526  1.0000 -0.3537989443
N   N9        1.0  0.46883  0.79114  0.16817  1.0000 -0.3209556551
N   N10       1.0  0.55066  0.21883  0.17769  1.0000 -0.3209556551
N   N11       1.0  0.04114  0.37297  0.82231  1.0000 -0.3209556551
N   N12       1.0  0.62297  0.30066  0.83183  1.0000 -0.3209556551
N   N13       1.0  0.78117  0.95886  0.33183  1.0000 -0.3209556551
N   N14       1.0  0.69934  0.53117  0.32231  1.0000 -0.3209556551
N   N15       1.0  0.20886  0.37703  0.67769  1.0000 -0.3209556551
N   N16       1.0  0.62703  0.44934  0.66817  1.0000 -0.3209556551
N   N17       1.0  0.42994  0.88200  0.16714  1.0000 -0.2316784149
N   N18       1.0  0.51280  0.17994  0.04794  1.0000 -0.2316784149
N   N19       1.0  0.13200  0.46486  0.95206  1.0000 -0.2316784149
N   N20       1.0  0.71486  0.26280  0.83286  1.0000 -0.2316784149
N   N21       1.0  0.82006  0.86800  0.33286  1.0000 -0.2316784149
N   N22       1.0  0.73720  0.57006  0.45206  1.0000 -0.2316784149
N   N23       1.0  0.11800  0.28514  0.54794  1.0000 -0.2316784149
N   N24       1.0  0.53514  0.48720  0.66714  1.0000 -0.2316784149
N   N25       1.0  0.37040  0.61645  0.17685  1.0000 -0.3380839202
N   N26       1.0  0.44355  0.12040  0.25395  1.0000 -0.3380839202
N   N27       1.0  0.86645  0.18960  0.74605  1.0000 -0.3380839202
N   N28       1.0  0.43960  0.19355  0.82315  1.0000 -0.3380839202
N   N29       1.0  0.87960  0.13355  0.32315  1.0000 -0.3380839202
N   N30       1.0  0.80645  0.62960  0.24605  1.0000 -0.3380839202
N   N31       1.0  0.38355  0.56040  0.75395  1.0000 -0.3380839202
N   N32       1.0  0.81040  0.55645  0.67685  1.0000 -0.3380839202
N   N33       1.0  0.43222  0.63541  0.19003  1.0000 -0.3380839202
N   N34       1.0  0.49219  0.18222  0.29681  1.0000 -0.3380839202
N   N35       1.0  0.88541  0.19538  0.70319  1.0000 -0.3380839202
N   N36       1.0  0.44538  0.24219  0.80997  1.0000 -0.3380839202
N   N37       1.0  0.81778  0.11459  0.30997  1.0000 -0.3380839202
N   N38       1.0  0.75781  0.56778  0.20319  1.0000 -0.3380839202
N   N39       1.0  0.36459  0.55462  0.79681  1.0000 -0.3380839202
N   N40       1.0  0.80462  0.50781  0.69003  1.0000 -0.3380839202
N   N41       1.0  0.72601  0.09228  0.21589  1.0000 -0.3380839202
N   N42       1.0  0.76012  0.47601  0.13373  1.0000 -0.3380839202
N   N43       1.0  0.34228  0.62639  0.86627  1.0000 -0.3380839202
N   N44       1.0  0.87639  0.51012  0.78411  1.0000 -0.3380839202
N   N45       1.0  0.52399  0.65772  0.28411  1.0000 -0.3380839202
N   N46       1.0  0.48988  0.27399  0.36627  1.0000 -0.3380839202
N   N47       1.0  0.90772  0.12361  0.63373  1.0000 -0.3380839202
N   N48       1.0  0.37361  0.23988  0.71589  1.0000 -0.3380839202
N   N49       1.0  0.67466  0.01887  0.18153  1.0000 -0.307183232
N   N50       1.0  0.74313  0.42466  0.15579  1.0000 -0.307183232
N   N51       1.0  0.26887  0.58734  0.84421  1.0000 -0.307183232
N   N52       1.0  0.83734  0.49313  0.81847  1.0000 -0.307183232
N   N53       1.0  0.57534  0.73113  0.31847  1.0000 -0.307183232
N   N54       1.0  0.50687  0.32534  0.34421  1.0000 -0.307183232
N   N55       1.0  0.98113  0.16266  0.65579  1.0000 -0.307183232
N   N56       1.0  0.41266  0.25687  0.68153  1.0000 -0.307183232
N   N57       1.0  0.95180  0.63990  0.17070  1.0000 -0.2100843773
N   N58       1.0  0.03110  0.70180  0.81190  1.0000 -0.2100843773
N   N59       1.0  0.88990  0.21920  0.18810  1.0000 -0.2100843773
N   N60       1.0  0.46920  0.78110  0.82930  1.0000 -0.2100843773
N   N61       1.0  0.29820  0.11010  0.32930  1.0000 -0.2100843773
N   N62       1.0  0.21890  0.04820  0.68810  1.0000 -0.2100843773
N   N63       1.0  0.36010  0.53080  0.31190  1.0000 -0.2100843773
N   N64       1.0  0.78080  0.96890  0.67070  1.0000 -0.2100843773
O   O1        1.0  0.54222  0.95326  0.10648  1.0000 -0.490573814
O   O2        1.0  0.68574  0.29222  0.08896  1.0000 -0.490573814
O   O3        1.0  0.20326  0.59678  0.91104  1.0000 -0.490573814
O   O4        1.0  0.84678  0.43574  0.89352  1.0000 -0.490573814
O   O5        1.0  0.70778  0.79674  0.39352  1.0000 -0.490573814
O   O6        1.0  0.56426  0.45778  0.41104  1.0000 -0.490573814
O   O7        1.0  0.04674  0.15322  0.58896  1.0000 -0.490573814
O   O8        1.0  0.40322  0.31426  0.60648  1.0000 -0.490573814
O   O9        1.0  0.40223  0.71484  0.08007  1.0000 -0.4685768372
O   O10       1.0  0.57216  0.15223  0.18739  1.0000 -0.4685768372
O   O11       1.0  0.96484  0.38477  0.81261  1.0000 -0.4685768372
O   O12       1.0  0.63477  0.32216  0.91993  1.0000 -0.4685768372
O   O13       1.0  0.84777  0.03516  0.41993  1.0000 -0.4685768372
O   O14       1.0  0.67784  0.59777  0.31261  1.0000 -0.4685768372
O   O15       1.0  0.28516  0.36523  0.68739  1.0000 -0.4685768372
O   O16       1.0  0.61523  0.42784  0.58007  1.0000 -0.4685768372
O   O17       1.0  0.53750  0.90502  0.21952  1.0000 -0.490573814
O   O18       1.0  0.56798  0.28750  0.13248  1.0000 -0.490573814
O   O19       1.0  0.15502  0.43550  0.86752  1.0000 -0.490573814
O   O20       1.0  0.68550  0.31798  0.78048  1.0000 -0.490573814
O   O21       1.0  0.71250  0.84498  0.28048  1.0000 -0.490573814
O   O22       1.0  0.68202  0.46250  0.36752  1.0000 -0.490573814
O   O23       1.0  0.09498  0.31450  0.63248  1.0000 -0.490573814
O   O24       1.0  0.56450  0.43202  0.71952  1.0000 -0.490573814
O   O25       1.0  0.29037  0.61818  0.13215  1.0000 -0.5125422551
O   O26       1.0  0.40822  0.04037  0.17219  1.0000 -0.5125422551
O   O27       1.0  0.86818  0.23603  0.82781  1.0000 -0.5125422551
O   O28       1.0  0.48603  0.15822  0.86785  1.0000 -0.5125422551
O   O29       1.0  0.95963  0.13182  0.36785  1.0000 -0.5125422551
O   O30       1.0  0.84178  0.70963  0.32781  1.0000 -0.5125422551
O   O31       1.0  0.38182  0.51397  0.67219  1.0000 -0.5125422551
O   O32       1.0  0.76397  0.59178  0.63215  1.0000 -0.5125422551
O   O33       1.0  0.31185  0.53780  0.22785  1.0000 -0.4685768372
O   O34       1.0  0.33400  0.06185  0.27405  1.0000 -0.4685768372
O   O35       1.0  0.78780  0.05995  0.72595  1.0000 -0.4685768372
O   O36       1.0  0.30995  0.08400  0.77215  1.0000 -0.4685768372
O   O37       1.0  0.93815  0.21220  0.27215  1.0000 -0.4685768372
O   O38       1.0  0.91600  0.68815  0.22595  1.0000 -0.4685768372
O   O39       1.0  0.46220  0.69005  0.77405  1.0000 -0.4685768372
O   O40       1.0  0.94005  0.66600  0.72785  1.0000 -0.4685768372
O   O41       1.0  0.47830  0.70383  0.13393  1.0000 -0.490573814
O   O42       1.0  0.59437  0.22830  0.27447  1.0000 -0.490573814
O   O43       1.0  0.95383  0.31990  0.72553  1.0000 -0.490573814
O   O44       1.0  0.56990  0.34437  0.86607  1.0000 -0.490573814
O   O45       1.0  0.77170  0.04617  0.36607  1.0000 -0.490573814
O   O46       1.0  0.65563  0.52170  0.22553  1.0000 -0.490573814
O   O47       1.0  0.29617  0.43010  0.77447  1.0000 -0.490573814
O   O48       1.0  0.68010  0.40563  0.63393  1.0000 -0.490573814
O   O49       1.0  0.86649  0.24094  0.27863  1.0000 -0.4580006374
O   O50       1.0  0.83786  0.61649  0.12555  1.0000 -0.4580006374
O   O51       1.0  0.49094  0.71231  0.87445  1.0000 -0.4580006374
O   O52       1.0  0.96231  0.58786  0.72137  1.0000 -0.4580006374
O   O53       1.0  0.38351  0.50906  0.22137  1.0000 -0.4580006374
O   O54       1.0  0.41214  0.13351  0.37445  1.0000 -0.4580006374
O   O55       1.0  0.75906  0.03769  0.62555  1.0000 -0.4580006374
O   O56       1.0  0.28769  0.16214  0.77863  1.0000 -0.4580006374
O   O57       1.0  0.61530  0.04708  0.20038  1.0000 -0.4685768372
O   O58       1.0  0.66492  0.36530  0.06822  1.0000 -0.4685768372
O   O59       1.0  0.29708  0.59670  0.93178  1.0000 -0.4685768372
O   O60       1.0  0.84670  0.41492  0.79962  1.0000 -0.4685768372
O   O61       1.0  0.63470  0.70292  0.29962  1.0000 -0.4685768372
O   O62       1.0  0.58508  0.38470  0.43178  1.0000 -0.4685768372
O   O63       1.0  0.95292  0.15330  0.56822  1.0000 -0.4685768372
O   O64       1.0  0.40330  0.33508  0.70038  1.0000 -0.4685768372
O   O65       1.0  0.78321  0.06374  0.20715  1.0000 -0.490573814
O   O66       1.0  0.82606  0.53321  0.21947  1.0000 -0.490573814
O   O67       1.0  0.31374  0.60659  0.78053  1.0000 -0.490573814
O   O68       1.0  0.85659  0.57606  0.79285  1.0000 -0.490573814
O   O69       1.0  0.46679  0.68626  0.29285  1.0000 -0.490573814
O   O70       1.0  0.42394  0.21679  0.28053  1.0000 -0.490573814
O   O71       1.0  0.93626  0.14341  0.71947  1.0000 -0.490573814
O   O72       1.0  0.39341  0.17394  0.70715  1.0000 -0.490573814
