# DDEC6 charges by PACMAN v1.1 (https://github.com/mtap-research/PACMAN-charge/)
data_2005[Gd][dia]3[ASR]2
_chemical_formula_sum              "Gd2 C8 O16"
_cell_length_a       8.52
_cell_length_b       9.51
_cell_length_c       10.14
_cell_angle_alpha    62.11
_cell_angle_beta     76.15
_cell_angle_gamma    73.73

_symmetry_space_group_name_H-M    "P 1"
_symmetry_Int_Tables_number       1

loop_
  _symmetry_equiv_pos_as_xyz
  'x, y, z'

loop_
  _atom_site_type_symbol
  _atom_site_label
  _atom_site_symmetry_multiplicity
  _atom_site_fract_x
  _atom_site_fract_y
  _atom_site_fract_z
  _atom_site_occupancy
  _atom_site_charge
Gd  Gd1       1.0  0.33294  0.37197  0.84010  1.0000 1.8991289368
Gd  Gd2       1.0  0.66706  0.62803  0.15990  1.0000 1.8991289368
C   C1        1.0  0.98660  0.41270  0.04830  1.0000 0.5579982033
C   C2        1.0  0.01340  0.58730  0.95170  1.0000 0.5579982033
C   C3        1.0  0.42670  0.97690  0.98540  1.0000 0.5521103969
C   C4        1.0  0.57330  0.02310  0.01460  1.0000 0.5521103969
C   C5        1.0  0.55230  0.41320  0.51690  1.0000 0.5842515758
C   C6        1.0  0.44770  0.58680  0.48310  1.0000 0.5842515758
C   C7        1.0  0.55790  0.53770  0.92500  1.0000 0.5440758696
C   C8        1.0  0.44210  0.46230  0.07500  1.0000 0.5440758696
O   O1        1.0  0.08110  0.30420  0.01560  1.0000 -0.5081339448
O   O2        1.0  0.91890  0.69580  0.98440  1.0000 -0.5081339448
O   O3        1.0  0.31730  0.09200  0.92180  1.0000 -0.501026384
O   O4        1.0  0.68270  0.90800  0.07820  1.0000 -0.501026384
O   O5        1.0  0.52770  0.30660  0.64980  1.0000 -0.5619990894
O   O6        1.0  0.47230  0.69340  0.35020  1.0000 -0.5619990894
O   O7        1.0  0.53740  0.51990  0.81500  1.0000 -0.5164244542
O   O8        1.0  0.46260  0.48010  0.18500  1.0000 -0.5164244542
O   O9        1.0  0.43280  0.82900  0.03190  1.0000 -0.5081339448
O   O10       1.0  0.56720  0.17100  0.96810  1.0000 -0.5081339448
O   O11       1.0  0.86690  0.39210  0.15270  1.0000 -0.5326868364
O   O12       1.0  0.13310  0.60790  0.84730  1.0000 -0.5326868364
O   O13       1.0  0.65910  0.60900  0.92650  1.0000 -0.5081339448
O   O14       1.0  0.34090  0.39100  0.07350  1.0000 -0.5081339448
O   O15       1.0  0.65180  0.39620  0.41120  1.0000 -0.501026384
O   O16       1.0  0.34820  0.60380  0.58880  1.0000 -0.501026384
