# DDEC6 charges by PACMAN v1.1 (https://github.com/mtap-research/PACMAN-charge/)
data_2005[Er][nan]3[ASR]3
_chemical_formula_sum              "Er4 H48 C84 O24"
_cell_length_a       15.204
_cell_length_b       15.204
_cell_length_c       18.5354
_cell_angle_alpha    76.2724
_cell_angle_beta     103.728
_cell_angle_gamma    111.607

_symmetry_space_group_name_H-M    "P 1"
_symmetry_Int_Tables_number       1

loop_
  _symmetry_equiv_pos_as_xyz
  'x, y, z'

loop_
  _atom_site_type_symbol
  _atom_site_label
  _atom_site_symmetry_multiplicity
  _atom_site_fract_x
  _atom_site_fract_y
  _atom_site_fract_z
  _atom_site_occupancy
  _atom_site_charge
Er  Er1       1.0  0.96215  0.95657  0.89545  1.0000 2.1106813723
Er  Er2       1.0  0.95657  0.96215  0.60455  1.0000 2.1106813723
Er  Er3       1.0  0.03785  0.04343  0.10455  1.0000 2.1106813723
Er  Er4       1.0  0.04343  0.03785  0.39545  1.0000 2.1106813723
H   H1        1.0  0.65430  0.92250  0.90670  1.0000 0.1187199537
H   H2        1.0  0.92250  0.65430  0.59330  1.0000 0.1078985949
H   H3        1.0  0.34570  0.07750  0.09330  1.0000 0.1187199537
H   H4        1.0  0.07750  0.34570  0.40670  1.0000 0.1187199537
H   H5        1.0  0.50700  0.93140  0.90870  1.0000 0.1032429063
H   H6        1.0  0.93140  0.50700  0.59130  1.0000 0.1032429063
H   H7        1.0  0.49300  0.06860  0.09130  1.0000 0.1032429063
H   H8        1.0  0.06860  0.49300  0.40870  1.0000 0.1032429063
H   H9        1.0  0.61710  0.04670  0.09590  1.0000 0.1078985949
H   H10       1.0  0.04670  0.61710  0.40410  1.0000 0.1078985949
H   H11       1.0  0.38290  0.95330  0.90410  1.0000 0.1078985949
H   H12       1.0  0.95330  0.38290  0.59590  1.0000 0.1078985949
H   H13       1.0  0.76080  0.02640  0.09780  1.0000 0.1312477817
H   H14       1.0  0.02640  0.76080  0.40220  1.0000 0.1312477817
H   H15       1.0  0.23920  0.97360  0.90220  1.0000 0.1312477817
H   H16       1.0  0.97360  0.23920  0.59780  1.0000 0.1312477817
H   H17       1.0  0.97010  0.70710  0.99500  1.0000 0.1187199537
H   H18       1.0  0.70710  0.97010  0.50500  1.0000 0.1187199537
H   H19       1.0  0.02990  0.29290  0.00500  1.0000 0.1187199537
H   H20       1.0  0.29290  0.02990  0.49500  1.0000 0.1187199537
H   H21       1.0  0.95610  0.54590  0.02760  1.0000 0.1078985949
H   H22       1.0  0.54590  0.95610  0.47240  1.0000 0.1078985949
H   H23       1.0  0.04390  0.45410  0.97240  1.0000 0.1078985949
H   H24       1.0  0.45410  0.04390  0.52760  1.0000 0.1078985949
H   H25       1.0  0.97880  0.55940  0.24280  1.0000 0.1078985949
H   H26       1.0  0.55940  0.97880  0.25720  1.0000 0.1078985949
H   H27       1.0  0.02120  0.44060  0.75720  1.0000 0.1078985949
H   H28       1.0  0.44060  0.02120  0.74280  1.0000 0.1078985949
H   H29       1.0  0.98740  0.71740  0.21110  1.0000 0.1312477817
H   H30       1.0  0.71740  0.98740  0.28890  1.0000 0.1312477817
H   H31       1.0  0.01260  0.28260  0.78890  1.0000 0.1312477817
H   H32       1.0  0.28260  0.01260  0.71110  1.0000 0.1312477817
H   H33       1.0  0.89210  0.23410  0.09360  1.0000 0.1187199537
H   H34       1.0  0.23410  0.89210  0.40640  1.0000 0.1187199537
H   H35       1.0  0.10790  0.76590  0.90640  1.0000 0.1187199537
H   H36       1.0  0.76590  0.10790  0.59360  1.0000 0.1187199537
H   H37       1.0  0.88440  0.38700  0.06380  1.0000 0.1078985949
H   H38       1.0  0.38700  0.88440  0.43620  1.0000 0.1078985949
H   H39       1.0  0.11560  0.61300  0.93620  1.0000 0.1078985949
H   H40       1.0  0.61300  0.11560  0.56380  1.0000 0.1078985949
H   H41       1.0  0.04520  0.44500  0.26470  1.0000 0.1078985949
H   H42       1.0  0.44500  0.04520  0.23530  1.0000 0.1078985949
H   H43       1.0  0.95480  0.55500  0.73530  1.0000 0.1078985949
H   H44       1.0  0.55500  0.95480  0.76470  1.0000 0.1078985949
H   H45       1.0  0.04860  0.28900  0.29470  1.0000 0.1187199537
H   H46       1.0  0.28900  0.04860  0.20530  1.0000 0.1187199537
H   H47       1.0  0.95140  0.71100  0.70530  1.0000 0.1187199537
H   H48       1.0  0.71100  0.95140  0.79470  1.0000 0.1187199537
C   C1        1.0  0.82000  0.96900  0.00030  1.0000 0.6584335738
C   C2        1.0  0.96900  0.82000  0.49970  1.0000 0.6584335738
C   C3        1.0  0.18000  0.03100  0.99970  1.0000 0.6584335738
C   C4        1.0  0.03100  0.18000  0.50030  1.0000 0.6584335738
C   C5        1.0  0.72400  0.97500  0.00120  1.0000 -0.0310591361
C   C6        1.0  0.97500  0.72400  0.49880  1.0000 -0.0310591361
C   C7        1.0  0.27600  0.02500  0.99880  1.0000 -0.0310591361
C   C8        1.0  0.02500  0.27600  0.50120  1.0000 -0.0310591361
C   C9        1.0  0.64710  0.94690  0.94560  1.0000 -0.0997753744
C   C10       1.0  0.94690  0.64710  0.55440  1.0000 -0.0997753744
C   C11       1.0  0.35290  0.05310  0.05440  1.0000 -0.0997753744
C   C12       1.0  0.05310  0.35290  0.44560  1.0000 -0.0997753744
C   C13       1.0  0.55850  0.95390  0.94590  1.0000 -0.1586559838
C   C14       1.0  0.95390  0.55850  0.55410  1.0000 -0.1586559838
C   C15       1.0  0.44150  0.04610  0.05410  1.0000 -0.1586559838
C   C16       1.0  0.04610  0.44150  0.44590  1.0000 -0.1586559838
C   C17       1.0  0.54620  0.99400  0.00070  1.0000 0.0712391825
C   C18       1.0  0.99400  0.54620  0.49930  1.0000 0.0712391825
C   C19       1.0  0.45380  0.00600  0.99930  1.0000 0.0712391825
C   C20       1.0  0.00600  0.45380  0.50070  1.0000 0.0712391825
C   C21       1.0  0.62350  0.02090  0.05750  1.0000 -0.1586559838
C   C22       1.0  0.02090  0.62350  0.44250  1.0000 -0.1586559838
C   C23       1.0  0.37650  0.97910  0.94250  1.0000 -0.1586559838
C   C24       1.0  0.97910  0.37650  0.55750  1.0000 -0.1586559838
C   C25       1.0  0.71080  0.00980  0.05810  1.0000 -0.0897355047
C   C26       1.0  0.00980  0.71080  0.44190  1.0000 -0.0897355047
C   C27       1.0  0.28920  0.99020  0.94190  1.0000 -0.0897355047
C   C28       1.0  0.99020  0.28920  0.55810  1.0000 -0.0897355047
C   C29       1.0  0.99200  0.83300  0.07920  1.0000 0.6487531983
C   C30       1.0  0.83300  0.99200  0.42080  1.0000 0.6487531983
C   C31       1.0  0.00800  0.16700  0.92080  1.0000 0.6487531983
C   C32       1.0  0.16700  0.00800  0.57920  1.0000 0.6487531983
C   C33       1.0  0.98170  0.72970  0.09970  1.0000 -0.0400403035
C   C34       1.0  0.72970  0.98170  0.40030  1.0000 -0.0400403035
C   C35       1.0  0.01830  0.27030  0.90030  1.0000 -0.0400403035
C   C36       1.0  0.27030  0.01830  0.59970  1.0000 -0.0400403035
C   C37       1.0  0.97180  0.67780  0.04520  1.0000 -0.0897355047
C   C38       1.0  0.67780  0.97180  0.45480  1.0000 -0.0897355047
C   C39       1.0  0.02820  0.32220  0.95480  1.0000 -0.0897355047
C   C40       1.0  0.32220  0.02820  0.54520  1.0000 -0.0897355047
C   C41       1.0  0.96440  0.58060  0.06520  1.0000 -0.1547658922
C   C42       1.0  0.58060  0.96440  0.43480  1.0000 -0.1547658922
C   C43       1.0  0.03560  0.41940  0.93480  1.0000 -0.1547658922
C   C44       1.0  0.41940  0.03560  0.56520  1.0000 -0.1547658922
C   C45       1.0  0.96910  0.53530  0.13970  1.0000 0.0712391825
C   C46       1.0  0.53530  0.96910  0.36030  1.0000 0.0712391825
C   C47       1.0  0.03090  0.46470  0.86030  1.0000 0.0712391825
C   C48       1.0  0.46470  0.03090  0.63970  1.0000 0.0712391825
C   C49       1.0  0.97720  0.58840  0.19250  1.0000 -0.1586559838
C   C50       1.0  0.58840  0.97720  0.30750  1.0000 -0.1586559838
C   C51       1.0  0.02280  0.41160  0.80750  1.0000 -0.1586559838
C   C52       1.0  0.41160  0.02280  0.69250  1.0000 -0.1586559838
C   C53       1.0  0.98282  0.68382  0.17370  1.0000 -0.0897355047
C   C54       1.0  0.68382  0.98282  0.32630  1.0000 -0.0897355047
C   C55       1.0  0.01718  0.31618  0.82630  1.0000 -0.0897355047
C   C56       1.0  0.31618  0.01718  0.67370  1.0000 -0.0897355047
C   C57       1.0  0.98340  0.14860  0.21490  1.0000 0.6657963568
C   C58       1.0  0.14860  0.98340  0.28510  1.0000 0.6657963568
C   C59       1.0  0.01660  0.85140  0.78510  1.0000 0.6657963568
C   C60       1.0  0.85140  0.01660  0.71490  1.0000 0.6657963568
C   C61       1.0  0.97410  0.24630  0.19680  1.0000 -0.0497813984
C   C62       1.0  0.24630  0.97410  0.30320  1.0000 -0.0497813984
C   C63       1.0  0.02590  0.75370  0.80320  1.0000 -0.0497813984
C   C64       1.0  0.75370  0.02590  0.69680  1.0000 -0.0497813984
C   C65       1.0  0.92320  0.27640  0.12770  1.0000 -0.0997753744
C   C66       1.0  0.27640  0.92320  0.37230  1.0000 -0.0997753744
C   C67       1.0  0.07680  0.72360  0.87230  1.0000 -0.0997753744
C   C68       1.0  0.72360  0.07680  0.62770  1.0000 -0.0997753744
C   C69       1.0  0.91910  0.36850  0.10980  1.0000 -0.1547658922
C   C70       1.0  0.36850  0.91910  0.39020  1.0000 -0.1547658922
C   C71       1.0  0.08090  0.63150  0.89020  1.0000 -0.1547658922
C   C72       1.0  0.63150  0.08090  0.60980  1.0000 -0.1547658922
C   C73       1.0  0.96550  0.43370  0.15900  1.0000 0.0712391825
C   C74       1.0  0.43370  0.96550  0.34100  1.0000 0.0751512968
C   C75       1.0  0.03450  0.56630  0.84100  1.0000 0.0751512968
C   C76       1.0  0.56630  0.03450  0.65900  1.0000 0.0712391825
C   C77       1.0  0.01480  0.40320  0.23010  1.0000 -0.1586559838
C   C78       1.0  0.40320  0.01480  0.26990  1.0000 -0.1586559838
C   C79       1.0  0.98520  0.59680  0.76990  1.0000 -0.1586559838
C   C80       1.0  0.59680  0.98520  0.73010  1.0000 -0.1586559838
C   C81       1.0  0.01720  0.30940  0.24770  1.0000 -0.0897355047
C   C82       1.0  0.30940  0.01720  0.25230  1.0000 -0.0897355047
C   C83       1.0  0.98280  0.69060  0.75230  1.0000 -0.0897355047
C   C84       1.0  0.69060  0.98280  0.74770  1.0000 -0.0897355047
O   O1        1.0  0.83360  0.95720  0.93960  1.0000 -0.6807329929
O   O2        1.0  0.95720  0.83360  0.56040  1.0000 -0.6807329929
O   O3        1.0  0.16640  0.04280  0.06040  1.0000 -0.6807329929
O   O4        1.0  0.04280  0.16640  0.43960  1.0000 -0.6807329929
O   O5        1.0  0.12090  0.02410  0.94040  1.0000 -0.652787534
O   O6        1.0  0.02410  0.12090  0.55960  1.0000 -0.652787534
O   O7        1.0  0.87910  0.97590  0.05960  1.0000 -0.652787534
O   O8        1.0  0.97590  0.87910  0.44040  1.0000 -0.652787534
O   O9        1.0  0.98710  0.87090  0.01080  1.0000 -0.7316443748
O   O10       1.0  0.87090  0.98710  0.48920  1.0000 -0.7316443748
O   O11       1.0  0.01290  0.12910  0.98920  1.0000 -0.7316443748
O   O12       1.0  0.12910  0.01290  0.51080  1.0000 -0.7316443748
O   O13       1.0  0.00980  0.87860  0.13140  1.0000 -0.6164532727
O   O14       1.0  0.87860  0.00980  0.36860  1.0000 -0.6164532727
O   O15       1.0  0.99020  0.12140  0.86860  1.0000 -0.6164532727
O   O16       1.0  0.12140  0.99020  0.63140  1.0000 -0.6164532727
O   O17       1.0  0.95792  0.09968  0.16210  1.0000 -0.6908635325
O   O18       1.0  0.09968  0.95792  0.33790  1.0000 -0.6908635325
O   O19       1.0  0.04208  0.90032  0.83790  1.0000 -0.6908635325
O   O20       1.0  0.90032  0.04208  0.66210  1.0000 -0.6908635325
O   O21       1.0  0.01730  0.12150  0.28100  1.0000 -0.6807329929
O   O22       1.0  0.12150  0.01730  0.21900  1.0000 -0.6807329929
O   O23       1.0  0.98270  0.87850  0.71900  1.0000 -0.6807329929
O   O24       1.0  0.87850  0.98270  0.78100  1.0000 -0.6807329929
