# DDEC6 charges by PACMAN v1.1 (https://github.com/mtap-research/PACMAN-charge/)
data_2005[Nd][dia]3[ASR]1
_chemical_formula_sum              "Nd2 C8 O16"
_cell_length_a       8.417
_cell_length_b       9.716
_cell_length_c       10.117
_cell_angle_alpha    61.951
_cell_angle_beta     77.816
_cell_angle_gamma    74.279

_symmetry_space_group_name_H-M    "P 1"
_symmetry_Int_Tables_number       1

loop_
  _symmetry_equiv_pos_as_xyz
  'x, y, z'

loop_
  _atom_site_type_symbol
  _atom_site_label
  _atom_site_symmetry_multiplicity
  _atom_site_fract_x
  _atom_site_fract_y
  _atom_site_fract_z
  _atom_site_occupancy
  _atom_site_charge
Nd  Nd1       1.0  0.32863  0.36995  0.83849  1.0000 1.8987181485
Nd  Nd2       1.0  0.67137  0.63005  0.16151  1.0000 1.9229432642
C   C1        1.0  0.98570  0.41300  0.04900  1.0000 0.5591470301
C   C2        1.0  0.01430  0.58700  0.95100  1.0000 0.5591470301
C   C3        1.0  0.42540  0.97660  0.98860  1.0000 0.539252609
C   C4        1.0  0.57460  0.02340  0.01140  1.0000 0.539252609
C   C5        1.0  0.55350  0.41580  0.51740  1.0000 0.5720044076
C   C6        1.0  0.44650  0.58420  0.48260  1.0000 0.5720044076
C   C7        1.0  0.55720  0.53670  0.92660  1.0000 0.539252609
C   C8        1.0  0.44280  0.46330  0.07340  1.0000 0.539252609
O   O1        1.0  0.07400  0.30830  0.01370  1.0000 -0.4998533428
O   O2        1.0  0.92600  0.69170  0.98630  1.0000 -0.4998533428
O   O3        1.0  0.31190  0.09190  0.92240  1.0000 -0.5225991905
O   O4        1.0  0.68810  0.90810  0.07760  1.0000 -0.5297320386
O   O5        1.0  0.52670  0.30840  0.64720  1.0000 -0.5469806194
O   O6        1.0  0.47330  0.69160  0.35280  1.0000 -0.5469806194
O   O7        1.0  0.53830  0.51820  0.81660  1.0000 -0.5088705122
O   O8        1.0  0.46170  0.48180  0.18340  1.0000 -0.5088705122
O   O9        1.0  0.43000  0.83180  0.03310  1.0000 -0.5088705122
O   O10       1.0  0.57000  0.16820  0.96690  1.0000 -0.5088705122
O   O11       1.0  0.87370  0.39380  0.15760  1.0000 -0.5297320386
O   O12       1.0  0.12630  0.60620  0.84240  1.0000 -0.5297320386
O   O13       1.0  0.65600  0.60970  0.92750  1.0000 -0.4998533428
O   O14       1.0  0.34400  0.39030  0.07250  1.0000 -0.4914522469
O   O15       1.0  0.65980  0.40150  0.41550  1.0000 -0.5088705122
O   O16       1.0  0.34020  0.59850  0.58450  1.0000 -0.4998533428
