# DDEC6 charges by PACMAN v1.1 (https://github.com/mtap-research/PACMAN-charge/)
data_2005[Nd][nan]3[ASR]2
_chemical_formula_sum              "Nd2 H24 C18 O12"
_cell_length_a       9.182
_cell_length_b       9.687
_cell_length_c       10.639
_cell_angle_alpha    106.807
_cell_angle_beta     95.625
_cell_angle_gamma    118.06

_symmetry_space_group_name_H-M    "P 1"
_symmetry_Int_Tables_number       1

loop_
  _symmetry_equiv_pos_as_xyz
  'x, y, z'

loop_
  _atom_site_type_symbol
  _atom_site_label
  _atom_site_symmetry_multiplicity
  _atom_site_fract_x
  _atom_site_fract_y
  _atom_site_fract_z
  _atom_site_occupancy
  _atom_site_charge
Nd  Nd1       1.0  0.76502  0.54498  0.01820  1.0000 2.0882202188
Nd  Nd2       1.0  0.23498  0.45502  0.98180  1.0000 2.0882202188
H   H1        1.0  0.42350  0.59920  0.34860  1.0000 0.1377731561
H   H2        1.0  0.57650  0.40080  0.65140  1.0000 0.1377731561
H   H3        1.0  0.61590  0.73790  0.44320  1.0000 0.1377731561
H   H4        1.0  0.38410  0.26210  0.55680  1.0000 0.1377731561
H   H5        1.0  0.46770  0.37860  0.36950  1.0000 0.0988594367
H   H6        1.0  0.53230  0.62140  0.63050  1.0000 0.0988594367
H   H7        1.0  0.65560  0.52040  0.46970  1.0000 0.0988594367
H   H8        1.0  0.34440  0.47960  0.53030  1.0000 0.0988594367
H   H9        1.0  0.01860  0.37420  0.37130  1.0000 0.1304484109
H   H10       1.0  0.98140  0.62580  0.62870  1.0000 0.1304484109
H   H11       1.0  0.99700  0.53140  0.38240  1.0000 0.1304484109
H   H12       1.0  0.00300  0.46860  0.61760  1.0000 0.1304484109
H   H13       1.0  0.70520  0.34270  0.25190  1.0000 0.0929665068
H   H14       1.0  0.29480  0.65730  0.74810  1.0000 0.0929665068
H   H15       1.0  0.74030  0.31300  0.38910  1.0000 0.0734370822
H   H16       1.0  0.25970  0.68700  0.61090  1.0000 0.0734370822
H   H17       1.0  0.72050  0.10290  0.12700  1.0000 0.0988594367
H   H18       1.0  0.27950  0.89710  0.87300  1.0000 0.0988594367
H   H19       1.0  0.74540  0.07070  0.26500  1.0000 0.0929665068
H   H20       1.0  0.25460  0.92930  0.73500  1.0000 0.0929665068
H   H21       1.0  0.47870  0.05020  0.28320  1.0000 0.1197600016
H   H22       1.0  0.52130  0.94980  0.71680  1.0000 0.1197600016
H   H23       1.0  0.45330  0.05600  0.13710  1.0000 0.1377731561
H   H24       1.0  0.54670  0.94400  0.86290  1.0000 0.1377731561
C   C1        1.0  0.60710  0.59840  0.25210  1.0000 0.6800385812
C   C2        1.0  0.39290  0.40160  0.74790  1.0000 0.6800385812
C   C3        1.0  0.54080  0.62040  0.37550  1.0000 -0.3335639736
C   C4        1.0  0.45920  0.37960  0.62450  1.0000 -0.3335639736
C   C5        1.0  0.53720  0.49520  0.43960  1.0000 -0.133132053
C   C6        1.0  0.46280  0.50480  0.56040  1.0000 -0.133132053
C   C7        1.0  0.00930  0.41500  0.19240  1.0000 0.6937684813
C   C8        1.0  0.99070  0.58500  0.80760  1.0000 0.6937684813
C   C9        1.0  0.95850  0.41420  0.32280  1.0000 -0.3357068351
C   C10       1.0  0.04150  0.58580  0.67720  1.0000 -0.3357068351
C   C11       1.0  0.76490  0.30170  0.29930  1.0000 -0.1445203772
C   C12       1.0  0.23510  0.69830  0.70070  1.0000 -0.1454644999
C   C13       1.0  0.69240  0.11540  0.21550  1.0000 -0.133132053
C   C14       1.0  0.30760  0.88460  0.78450  1.0000 -0.133132053
C   C15       1.0  0.49750  0.01450  0.19040  1.0000 -0.3136227181
C   C16       1.0  0.50250  0.98550  0.80960  1.0000 -0.3136227181
C   C17       1.0  0.41680  0.82510  0.12230  1.0000 0.6246222058
C   C18       1.0  0.58320  0.17490  0.87770  1.0000 0.6246222058
O   O1        1.0  0.76260  0.63800  0.26620  1.0000 -0.6493596277
O   O2        1.0  0.23740  0.36200  0.73380  1.0000 -0.6493596277
O   O3        1.0  0.50840  0.53430  0.13290  1.0000 -0.719446679
O   O4        1.0  0.49160  0.46570  0.86710  1.0000 -0.719446679
O   O5        1.0  0.93790  0.45070  0.11050  1.0000 -0.7081665
O   O6        1.0  0.06210  0.54930  0.88950  1.0000 -0.7081665
O   O7        1.0  0.12460  0.38230  0.16960  1.0000 -0.6691160402
O   O8        1.0  0.87540  0.61770  0.83040  1.0000 -0.6691160402
O   O9        1.0  0.30820  0.72820  0.16990  1.0000 -0.6493596277
O   O10       1.0  0.69180  0.27180  0.83010  1.0000 -0.6493596277
O   O11       1.0  0.45440  0.76270  0.01790  1.0000 -0.6493596277
O   O12       1.0  0.54560  0.23730  0.98210  1.0000 -0.6445916495
