# DDEC6 charges by PACMAN v1.1 (https://github.com/mtap-research/PACMAN-charge/)
data_2005[Mn][lvt]2[ASR]8
_chemical_formula_sum              "Mn24 H312 C336 N64 O72"
_cell_length_a       30.2078
_cell_length_b       30.2078
_cell_length_c       30.2078
_cell_angle_alpha    94.6572
_cell_angle_beta     94.6572
_cell_angle_gamma    146.889

_symmetry_space_group_name_H-M    "P 1"
_symmetry_Int_Tables_number       1

loop_
  _symmetry_equiv_pos_as_xyz
  'x, y, z'

loop_
  _atom_site_type_symbol
  _atom_site_label
  _atom_site_symmetry_multiplicity
  _atom_site_fract_x
  _atom_site_fract_y
  _atom_site_fract_z
  _atom_site_occupancy
  _atom_site_charge
Mn  Mn1       1.0  0.87488  0.09613  0.37021  1.0000 0.9305643723
Mn  Mn2       1.0  0.75467  0.62488  0.27875  1.0000 0.9305643723
Mn  Mn3       1.0  0.34613  0.47592  0.72125  1.0000 0.9305643723
Mn  Mn4       1.0  0.72592  0.50467  0.62979  1.0000 0.9305643723
Mn  Mn5       1.0  0.37512  0.65387  0.12979  1.0000 0.9305643723
Mn  Mn6       1.0  0.49533  0.12512  0.22125  1.0000 0.9305643723
Mn  Mn7       1.0  0.90387  0.27408  0.77875  1.0000 0.9305643723
Mn  Mn8       1.0  0.52408  0.24533  0.87021  1.0000 0.9305643723
Mn  Mn9       1.0  0.83229  0.16172  0.24911  1.0000 0.893352537
Mn  Mn10      1.0  0.83318  0.58229  0.17057  1.0000 0.893352537
Mn  Mn11      1.0  0.41172  0.66261  0.82943  1.0000 0.893352537
Mn  Mn12      1.0  0.91261  0.58318  0.75089  1.0000 0.893352537
Mn  Mn13      1.0  0.41771  0.58828  0.25089  1.0000 0.893352537
Mn  Mn14      1.0  0.41682  0.16771  0.32943  1.0000 0.893352537
Mn  Mn15      1.0  0.83828  0.08739  0.67057  1.0000 0.893352537
Mn  Mn16      1.0  0.33739  0.16682  0.74911  1.0000 0.893352537
Mn  Mn17      1.0  0.71140  0.82005  0.33349  1.0000 0.881190834
Mn  Mn18      1.0  0.62791  0.46140  0.39135  1.0000 0.8740936578
Mn  Mn19      1.0  0.07005  0.23656  0.60865  1.0000 0.881190834
Mn  Mn20      1.0  0.48656  0.37791  0.66651  1.0000 0.881190834
Mn  Mn21      1.0  0.53860  0.92995  0.16651  1.0000 0.881190834
Mn  Mn22      1.0  0.62209  0.28860  0.10865  1.0000 0.881190834
Mn  Mn23      1.0  0.17995  0.51344  0.89135  1.0000 0.881190834
Mn  Mn24      1.0  0.76344  0.37209  0.83349  1.0000 0.881190834
H   H1        1.0  0.08850  0.19630  0.35800  1.0000 0.1299852616
H   H2        1.0  0.98050  0.83850  0.39220  1.0000 0.1299852616
H   H3        1.0  0.44630  0.58830  0.60780  1.0000 0.1299852616
H   H4        1.0  0.83830  0.73050  0.64200  1.0000 0.1299852616
H   H5        1.0  0.16150  0.55370  0.14200  1.0000 0.1299852616
H   H6        1.0  0.26950  0.91150  0.10780  1.0000 0.1299852616
H   H7        1.0  0.80370  0.16170  0.89220  1.0000 0.1299852616
H   H8        1.0  0.41170  0.01950  0.85800  1.0000 0.1299852616
H   H9        1.0  0.17970  0.27790  0.31340  1.0000 0.0994798702
H   H10       1.0  0.11630  0.92970  0.40180  1.0000 0.0994798702
H   H11       1.0  0.52790  0.71450  0.59820  1.0000 0.0994798702
H   H12       1.0  0.96450  0.86630  0.68660  1.0000 0.0994798702
H   H13       1.0  0.07030  0.47210  0.18660  1.0000 0.0994798702
H   H14       1.0  0.13370  0.82030  0.09820  1.0000 0.0994798702
H   H15       1.0  0.72210  0.03550  0.90180  1.0000 0.0994798702
H   H16       1.0  0.28550  0.88370  0.81340  1.0000 0.0994798702
H   H17       1.0  0.17370  0.33260  0.26710  1.0000 0.1192843066
H   H18       1.0  0.15660  0.92370  0.34110  1.0000 0.1192843066
H   H19       1.0  0.58260  0.81550  0.65890  1.0000 0.1192843066
H   H20       1.0  0.06550  0.90660  0.73290  1.0000 0.1192843066
H   H21       1.0  0.07630  0.41740  0.23290  1.0000 0.1192843066
H   H22       1.0  0.09340  0.82630  0.15890  1.0000 0.1192843066
H   H23       1.0  0.66740  0.93450  0.84110  1.0000 0.1192843066
H   H24       1.0  0.18450  0.84340  0.76710  1.0000 0.1192843066
H   H25       1.0  0.06700  0.29580  0.26400  1.0000 0.110525035
H   H26       1.0  0.05300  0.81700  0.27120  1.0000 0.110525035
H   H27       1.0  0.54580  0.78180  0.72880  1.0000 0.110525035
H   H28       1.0  0.03180  0.80300  0.73600  1.0000 0.110525035
H   H29       1.0  0.18300  0.45420  0.23600  1.0000 0.110525035
H   H30       1.0  0.19700  0.93300  0.22880  1.0000 0.110525035
H   H31       1.0  0.70420  0.96820  0.77120  1.0000 0.110525035
H   H32       1.0  0.21820  0.94700  0.76400  1.0000 0.110525035
H   H33       1.0  0.65060  0.99140  0.30080  1.0000 0.1380796934
H   H34       1.0  0.59980  0.40060  0.15920  1.0000 0.1380796934
H   H35       1.0  0.24140  0.44060  0.84080  1.0000 0.1380796934
H   H36       1.0  0.69060  0.34980  0.69920  1.0000 0.1380796934
H   H37       1.0  0.59940  0.75860  0.19920  1.0000 0.1380796934
H   H38       1.0  0.65020  0.34940  0.34080  1.0000 0.1380796934
H   H39       1.0  0.00860  0.30940  0.65920  1.0000 0.1380796934
H   H40       1.0  0.55940  0.40020  0.80080  1.0000 0.1380796934
H   H41       1.0  0.71130  0.08370  0.32400  1.0000 0.1299852616
H   H42       1.0  0.63730  0.46130  0.12760  1.0000 0.1299852616
H   H43       1.0  0.33370  0.50970  0.87240  1.0000 0.1299852616
H   H44       1.0  0.75970  0.38730  0.67600  1.0000 0.1299852616
H   H45       1.0  0.53870  0.66630  0.17600  1.0000 0.1299852616
H   H46       1.0  0.61270  0.28870  0.37240  1.0000 0.1299852616
H   H47       1.0  0.91630  0.24030  0.62760  1.0000 0.1299852616
H   H48       1.0  0.49030  0.36270  0.82400  1.0000 0.1299852616
H   H49       1.0  0.68780  0.05760  0.39220  1.0000 0.1192843066
H   H50       1.0  0.54560  0.43780  0.13020  1.0000 0.1192843066
H   H51       1.0  0.30760  0.41540  0.86980  1.0000 0.1192843066
H   H52       1.0  0.66540  0.29560  0.60780  1.0000 0.1192843066
H   H53       1.0  0.56220  0.69240  0.10780  1.0000 0.1192843066
H   H54       1.0  0.70440  0.31220  0.36980  1.0000 0.1192843066
H   H55       1.0  0.94240  0.33460  0.63020  1.0000 0.1192843066
H   H56       1.0  0.58460  0.45440  0.89220  1.0000 0.1192843066
H   H57       1.0  0.59780  0.97880  0.35460  1.0000 0.110525035
H   H58       1.0  0.49320  0.34780  0.11900  1.0000 0.110525035
H   H59       1.0  0.22880  0.37420  0.88100  1.0000 0.110525035
H   H60       1.0  0.62420  0.24320  0.64540  1.0000 0.110525035
H   H61       1.0  0.65220  0.77120  0.14540  1.0000 0.110525035
H   H62       1.0  0.75680  0.40220  0.38100  1.0000 0.1192843066
H   H63       1.0  0.02120  0.37580  0.61900  1.0000 0.110525035
H   H64       1.0  0.62580  0.50680  0.85460  1.0000 0.110525035
H   H65       1.0  0.64150  0.97140  0.37530  1.0000 0.110525035
H   H66       1.0  0.51620  0.39150  0.17010  1.0000 0.110525035
H   H67       1.0  0.22140  0.34610  0.82990  1.0000 0.110525035
H   H68       1.0  0.59610  0.26620  0.62470  1.0000 0.110525035
H   H69       1.0  0.60850  0.77860  0.12470  1.0000 0.110525035
H   H70       1.0  0.73380  0.35850  0.32990  1.0000 0.110525035
H   H71       1.0  0.02860  0.40390  0.67010  1.0000 0.110525035
H   H72       1.0  0.65390  0.48380  0.87530  1.0000 0.110525035
H   H73       1.0  0.91950  0.36370  0.32080  1.0000 0.1299852616
H   H74       1.0  0.84870  0.66950  0.05580  1.0000 0.1299852616
H   H75       1.0  0.61370  0.79290  0.94420  1.0000 0.1299852616
H   H76       1.0  0.04290  0.59870  0.67920  1.0000 0.1299852616
H   H77       1.0  0.33050  0.38630  0.17920  1.0000 0.1299852616
H   H78       1.0  0.40130  0.08050  0.44420  1.0000 0.1299852616
H   H79       1.0  0.63630  0.95710  0.55580  1.0000 0.1299852616
H   H80       1.0  0.20710  0.15130  0.82080  1.0000 0.1299852616
H   H81       1.0  0.85540  0.37690  0.32130  1.0000 0.110525035
H   H82       1.0  0.78410  0.60540  0.97850  1.0000 0.110525035
H   H83       1.0  0.62690  0.80560  0.02150  1.0000 0.110525035
H   H84       1.0  0.05560  0.53410  0.67870  1.0000 0.110525035
H   H85       1.0  0.39460  0.37310  0.17870  1.0000 0.110525035
H   H86       1.0  0.46590  0.14460  0.52150  1.0000 0.110525035
H   H87       1.0  0.62310  0.94440  0.47850  1.0000 0.110525035
H   H88       1.0  0.19440  0.21590  0.82130  1.0000 0.110525035
H   H89       1.0  0.71350  0.26520  0.27830  1.0000 0.1299852616
H   H90       1.0  0.68520  0.46350  0.94830  1.0000 0.1299852616
H   H91       1.0  0.51520  0.73690  0.05170  1.0000 0.1299852616
H   H92       1.0  0.98690  0.43520  0.72170  1.0000 0.1299852616
H   H93       1.0  0.53650  0.48480  0.22170  1.0000 0.1299852616
H   H94       1.0  0.56480  0.28650  0.55170  1.0000 0.1299852616
H   H95       1.0  0.73480  0.01310  0.44830  1.0000 0.1299852616
H   H96       1.0  0.26310  0.31480  0.77830  1.0000 0.1299852616
H   H97       1.0  0.64100  0.14160  0.23760  1.0000 0.1192843066
H   H98       1.0  0.65340  0.39100  0.99940  1.0000 0.1192843066
H   H99       1.0  0.39160  0.65400  0.00060  1.0000 0.1192843066
H   H100      1.0  0.90400  0.40340  0.76240  1.0000 0.1192843066
H   H101      1.0  0.60900  0.60840  0.26240  1.0000 0.1192843066
H   H102      1.0  0.59660  0.35900  0.50060  1.0000 0.1192843066
H   H103      1.0  0.85840  0.09600  0.49940  1.0000 0.1192843066
H   H104      1.0  0.34600  0.34660  0.73760  1.0000 0.1192843066
H   H105      1.0  0.61410  0.90490  0.13140  1.0000 0.1299852616
H   H106      1.0  0.73270  0.36410  0.20920  1.0000 0.1299852616
H   H107      1.0  0.15490  0.52350  0.79080  1.0000 0.1299852616
H   H108      1.0  0.77350  0.48270  0.86860  1.0000 0.1299852616
H   H109      1.0  0.63590  0.84510  0.36860  1.0000 0.1299852616
H   H110      1.0  0.51730  0.38590  0.29080  1.0000 0.1299852616
H   H111      1.0  0.09510  0.22650  0.70920  1.0000 0.1299852616
H   H112      1.0  0.47650  0.26730  0.63140  1.0000 0.1299852616
H   H113      1.0  0.65620  0.90480  0.16680  1.0000 0.1299852616
H   H114      1.0  0.73940  0.40620  0.25140  1.0000 0.1299852616
H   H115      1.0  0.15480  0.48800  0.74860  1.0000 0.1299852616
H   H116      1.0  0.73800  0.48940  0.83320  1.0000 0.1299852616
H   H117      1.0  0.59380  0.84520  0.33320  1.0000 0.1299852616
H   H118      1.0  0.51060  0.34380  0.24860  1.0000 0.1299852616
H   H119      1.0  0.09520  0.26200  0.75140  1.0000 0.1299852616
H   H120      1.0  0.51200  0.26060  0.66680  1.0000 0.1299852616
H   H121      1.0  0.77610  0.02200  0.13270  1.0000 0.1192843066
H   H122      1.0  0.89340  0.52610  0.25410  1.0000 0.1192843066
H   H123      1.0  0.27200  0.63930  0.74590  1.0000 0.1192843066
H   H124      1.0  0.88930  0.64340  0.86730  1.0000 0.1192843066
H   H125      1.0  0.47390  0.72800  0.36730  1.0000 0.1192843066
H   H126      1.0  0.35660  0.22390  0.24590  1.0000 0.1192843066
H   H127      1.0  0.97800  0.11070  0.75410  1.0000 0.1192843066
H   H128      1.0  0.36070  0.10660  0.63270  1.0000 0.1192843066
H   H129      1.0  0.71060  0.92620  0.11480  1.0000 0.1192843066
H   H130      1.0  0.84580  0.46060  0.28440  1.0000 0.1192843066
H   H131      1.0  0.17620  0.56140  0.71560  1.0000 0.1192843066
H   H132      1.0  0.81140  0.59580  0.88520  1.0000 0.1192843066
H   H133      1.0  0.53940  0.82380  0.38520  1.0000 0.1192843066
H   H134      1.0  0.40420  0.28940  0.21560  1.0000 0.1192843066
H   H135      1.0  0.07380  0.18860  0.78440  1.0000 0.1192843066
H   H136      1.0  0.43860  0.15420  0.61480  1.0000 0.1192843066
H   H137      1.0  0.69560  0.95870  0.08950  1.0000 0.1192843066
H   H138      1.0  0.85610  0.44560  0.23690  1.0000 0.1192843066
H   H139      1.0  0.20870  0.61920  0.76310  1.0000 0.1192843066
H   H140      1.0  0.86920  0.60610  0.91050  1.0000 0.1192843066
H   H141      1.0  0.55440  0.79130  0.41050  1.0000 0.1192843066
H   H142      1.0  0.39390  0.30440  0.26310  1.0000 0.1192843066
H   H143      1.0  0.04130  0.13080  0.73690  1.0000 0.1192843066
H   H144      1.0  0.38080  0.14390  0.58950  1.0000 0.1192843066
H   H145      1.0  0.92760  0.19640  0.18360  1.0000 0.110525035
H   H146      1.0  0.99400  0.67760  0.23120  1.0000 0.110525035
H   H147      1.0  0.44640  0.76280  0.76880  1.0000 0.110525035
H   H148      1.0  0.01280  0.74400  0.81640  1.0000 0.110525035
H   H149      1.0  0.32240  0.55360  0.31640  1.0000 0.110525035
H   H150      1.0  0.25600  0.07240  0.26880  1.0000 0.110525035
H   H151      1.0  0.80360  0.98720  0.73120  1.0000 0.110525035
H   H152      1.0  0.23720  0.00600  0.68360  1.0000 0.110525035
H   H153      1.0  0.97290  0.24250  0.11720  1.0000 0.1380796934
H   H154      1.0  0.10570  0.72290  0.23040  1.0000 0.1380796934
H   H155      1.0  0.49250  0.87530  0.76960  1.0000 0.1380796934
H   H156      1.0  0.12530  0.85570  0.88280  1.0000 0.1380796934
H   H157      1.0  0.27710  0.50750  0.38280  1.0000 0.1380796934
H   H158      1.0  0.14430  0.02710  0.26960  1.0000 0.1380796934
H   H159      1.0  0.75750  0.87470  0.73040  1.0000 0.1380796934
H   H160      1.0  0.12470  0.89430  0.61720  1.0000 0.1380796934
H   H161      1.0  0.87940  0.28500  0.11460  1.0000 0.1380796934
H   H162      1.0  0.01480  0.62940  0.09440  1.0000 0.1380796934
H   H163      1.0  0.53500  0.92040  0.90560  1.0000 0.1380796934
H   H164      1.0  0.17040  0.76480  0.88540  1.0000 0.1380796934
H   H165      1.0  0.37060  0.46500  0.38540  1.0000 0.1380796934
H   H166      1.0  0.23520  0.12060  0.40560  1.0000 0.1380796934
H   H167      1.0  0.71500  0.82960  0.59440  1.0000 0.1380796934
H   H168      1.0  0.07960  0.98520  0.61460  1.0000 0.1380796934
H   H169      1.0  0.84060  0.24280  0.18040  1.0000 0.110525035
H   H170      1.0  0.91020  0.59060  0.09780  1.0000 0.110525035
H   H171      1.0  0.49280  0.81240  0.90220  1.0000 0.110525035
H   H172      1.0  0.06240  0.66020  0.81960  1.0000 0.110525035
H   H173      1.0  0.40940  0.50720  0.31960  1.0000 0.110525035
H   H174      1.0  0.33980  0.15940  0.40220  1.0000 0.110525035
H   H175      1.0  0.75720  0.93760  0.59780  1.0000 0.110525035
H   H176      1.0  0.18760  0.08980  0.68040  1.0000 0.110525035
H   H177      1.0  0.98070  0.35470  0.07120  1.0000 0.1299852616
H   H178      1.0  0.15950  0.73070  0.12600  1.0000 0.1299852616
H   H179      1.0  0.60470  0.03350  0.87400  1.0000 0.1299852616
H   H180      1.0  0.28350  0.90950  0.92880  1.0000 0.1299852616
H   H181      1.0  0.26930  0.39530  0.42880  1.0000 0.1299852616
H   H182      1.0  0.09050  0.01930  0.37400  1.0000 0.1299852616
H   H183      1.0  0.64530  0.71650  0.62600  1.0000 0.1299852616
H   H184      1.0  0.96650  0.84050  0.57120  1.0000 0.1299852616
H   H185      1.0  0.91740  0.26390  0.04090  1.0000 0.1299852616
H   H186      1.0  0.12650  0.66740  0.15350  1.0000 0.1299852616
H   H187      1.0  0.51390  0.97300  0.84650  1.0000 0.1299852616
H   H188      1.0  0.22300  0.87650  0.95910  1.0000 0.1299852616
H   H189      1.0  0.33260  0.48610  0.45910  1.0000 0.1299852616
H   H190      1.0  0.12350  0.08260  0.34650  1.0000 0.1299852616
H   H191      1.0  0.73610  0.77700  0.65350  1.0000 0.1299852616
H   H192      1.0  0.02700  0.87350  0.54090  1.0000 0.1299852616
H   H193      1.0  0.71690  0.77400  0.46410  1.0000 0.1299852616
H   H194      1.0  0.50280  0.46690  0.44290  1.0000 0.1299852616
H   H195      1.0  0.02400  0.05990  0.55710  1.0000 0.1299852616
H   H196      1.0  0.30990  0.25280  0.53590  1.0000 0.1299852616
H   H197      1.0  0.53310  0.97600  0.03590  1.0000 0.1299852616
H   H198      1.0  0.74720  0.28310  0.05710  1.0000 0.1299852616
H   H199      1.0  0.22600  0.69010  0.94290  1.0000 0.1299852616
H   H200      1.0  0.94010  0.49720  0.96410  1.0000 0.1299852616
H   H201      1.0  0.79330  0.85900  0.53730  1.0000 0.0994798702
H   H202      1.0  0.50600  0.54330  0.43430  1.0000 0.0994798702
H   H203      1.0  0.10900  0.07170  0.56570  1.0000 0.0994798702
H   H204      1.0  0.32170  0.25600  0.46270  1.0000 0.0994798702
H   H205      1.0  0.45670  0.89100  0.96270  1.0000 0.0994798702
H   H206      1.0  0.74400  0.20670  0.06570  1.0000 0.0994798702
H   H207      1.0  0.14100  0.67830  0.93430  1.0000 0.0994798702
H   H208      1.0  0.92830  0.49400  0.03730  1.0000 0.0994798702
H   H209      1.0  0.88040  0.99560  0.55420  1.0000 0.1192843066
H   H210      1.0  0.57620  0.63040  0.38480  1.0000 0.1192843066
H   H211      1.0  0.24560  0.19140  0.61520  1.0000 0.1192843066
H   H212      1.0  0.44140  0.32620  0.44580  1.0000 0.1192843066
H   H213      1.0  0.36960  0.75440  0.94580  1.0000 0.1192843066
H   H214      1.0  0.67380  0.11960  0.11520  1.0000 0.1192843066
H   H215      1.0  0.00440  0.55860  0.88480  1.0000 0.1192843066
H   H216      1.0  0.80860  0.42380  0.05420  1.0000 0.1192843066
H   H217      1.0  0.88740  0.04310  0.49390  1.0000 0.1192843066
H   H218      1.0  0.64350  0.63740  0.34430  1.0000 0.1192843066
H   H219      1.0  0.29310  0.29920  0.65570  1.0000 0.1192843066
H   H220      1.0  0.54920  0.39350  0.50610  1.0000 0.1192843066
H   H221      1.0  0.36260  0.70690  0.00610  1.0000 0.1192843066
H   H222      1.0  0.60650  0.11260  0.15570  1.0000 0.1192843066
H   H223      1.0  0.95690  0.45080  0.84430  1.0000 0.1192843066
H   H224      1.0  0.70080  0.35650  0.99390  1.0000 0.1192843066
H   H225      1.0  0.79340  0.00680  0.25940  1.0000 0.1299852616
H   H226      1.0  0.78400  0.54340  0.28660  1.0000 0.1299852616
H   H227      1.0  0.25680  0.49740  0.71340  1.0000 0.1299852616
H   H228      1.0  0.74740  0.53400  0.74060  1.0000 0.1299852616
H   H229      1.0  0.45660  0.74320  0.24060  1.0000 0.1299852616
H   H230      1.0  0.46600  0.20660  0.21340  1.0000 0.1299852616
H   H231      1.0  0.99320  0.25260  0.78660  1.0000 0.1299852616
H   H232      1.0  0.50260  0.21600  0.75940  1.0000 0.1299852616
H   H233      1.0  0.72350  0.91600  0.22410  1.0000 0.1380796934
H   H234      1.0  0.74940  0.47350  0.30750  1.0000 0.1380796934
H   H235      1.0  0.16600  0.44190  0.69250  1.0000 0.1380796934
H   H236      1.0  0.69190  0.49940  0.77590  1.0000 0.1380796934
H   H237      1.0  0.52650  0.83400  0.27590  1.0000 0.1380796934
H   H238      1.0  0.50060  0.27650  0.19250  1.0000 0.1380796934
H   H239      1.0  0.08400  0.30810  0.80750  1.0000 0.1380796934
H   H240      1.0  0.55810  0.25060  0.72410  1.0000 0.1380796934
H   H241      1.0  0.90360  0.04240  0.25520  1.0000 0.1192843066
H   H242      1.0  0.89840  0.65360  0.36120  1.0000 0.1192843066
H   H243      1.0  0.29240  0.53720  0.63880  1.0000 0.1192843066
H   H244      1.0  0.78720  0.64840  0.74480  1.0000 0.1192843066
H   H245      1.0  0.34640  0.70760  0.24480  1.0000 0.1192843066
H   H246      1.0  0.35160  0.09640  0.13880  1.0000 0.1192843066
H   H247      1.0  0.95760  0.21280  0.86120  1.0000 0.1192843066
H   H248      1.0  0.46280  0.10160  0.75520  1.0000 0.1192843066
H   H249      1.0  0.86200  0.02350  0.20490  1.0000 0.1299852616
H   H250      1.0  0.90710  0.61200  0.33850  1.0000 0.1299852616
H   H251      1.0  0.27350  0.56860  0.66150  1.0000 0.1299852616
H   H252      1.0  0.81860  0.65710  0.79510  1.0000 0.1299852616
H   H253      1.0  0.38800  0.72650  0.29510  1.0000 0.1299852616
H   H254      1.0  0.34290  0.13800  0.16150  1.0000 0.1299852616
H   H255      1.0  0.97650  0.18140  0.83850  1.0000 0.1299852616
H   H256      1.0  0.43140  0.09290  0.70490  1.0000 0.1299852616
H   H257      1.0  0.83340  0.95310  0.21830  1.0000 0.1299852616
H   H258      1.0  0.86510  0.58340  0.38030  1.0000 0.1299852616
H   H259      1.0  0.20310  0.48480  0.61970  1.0000 0.1299852616
H   H260      1.0  0.73480  0.61510  0.78170  1.0000 0.1299852616
H   H261      1.0  0.41660  0.79690  0.28170  1.0000 0.1299852616
H   H262      1.0  0.38490  0.16660  0.11970  1.0000 0.1299852616
H   H263      1.0  0.04690  0.26520  0.88030  1.0000 0.1299852616
H   H264      1.0  0.51520  0.13490  0.71830  1.0000 0.1299852616
H   H265      1.0  0.21970  0.56250  0.00020  1.0000 0.1192843066
H   H266      1.0  0.46950  0.96970  0.15720  1.0000 0.1192843066
H   H267      1.0  0.81250  0.31230  0.84280  1.0000 0.1192843066
H   H268      1.0  0.56230  0.21950  0.99980  1.0000 0.1192843066
H   H269      1.0  0.03030  0.18750  0.49980  1.0000 0.1192843066
H   H270      1.0  0.78050  0.78030  0.34280  1.0000 0.1192843066
H   H271      1.0  0.43750  0.43770  0.65720  1.0000 0.1192843066
H   H272      1.0  0.68770  0.53050  0.50020  1.0000 0.1192843066
H   H273      1.0  0.17350  0.50600  0.06210  1.0000 0.1380796934
H   H274      1.0  0.36140  0.92350  0.16750  1.0000 0.1380796934
H   H275      1.0  0.75600  0.19390  0.83250  1.0000 0.1380796934
H   H276      1.0  0.44390  0.11140  0.93790  1.0000 0.1380796934
H   H277      1.0  0.07650  0.24400  0.43790  1.0000 0.1380796934
H   H278      1.0  0.88860  0.82650  0.33250  1.0000 0.1380796934
H   H279      1.0  0.49400  0.55610  0.66750  1.0000 0.1380796934
H   H280      1.0  0.80610  0.63860  0.56210  1.0000 0.1380796934
H   H281      1.0  0.96330  0.27640  0.97030  1.0000 0.1380796934
H   H282      1.0  0.24300  0.71330  0.18690  1.0000 0.1380796934
H   H283      1.0  0.52640  0.05610  0.81310  1.0000 0.1380796934
H   H284      1.0  0.30610  0.99300  0.02970  1.0000 0.1380796934
H   H285      1.0  0.28670  0.47360  0.52970  1.0000 0.1380796934
H   H286      1.0  0.00700  0.03670  0.31310  1.0000 0.1380796934
H   H287      1.0  0.72360  0.69390  0.68690  1.0000 0.1380796934
H   H288      1.0  0.94390  0.75700  0.47030  1.0000 0.1380796934
H   H289      1.0  0.01620  0.34280  0.91200  1.0000 0.110525035
H   H290      1.0  0.35420  0.76620  0.17340  1.0000 0.110525035
H   H291      1.0  0.59280  0.18080  0.82660  1.0000 0.110525035
H   H292      1.0  0.43080  0.10420  0.08800  1.0000 0.110525035
H   H293      1.0  0.23380  0.40720  0.58800  1.0000 0.110525035
H   H294      1.0  0.89580  0.98380  0.32660  1.0000 0.110525035
H   H295      1.0  0.65720  0.56920  0.67340  1.0000 0.110525035
H   H296      1.0  0.81920  0.64580  0.41200  1.0000 0.110525035
H   H297      1.0  0.07620  0.38190  0.09190  1.0000 0.1299852616
H   H298      1.0  0.23430  0.82620  0.19430  1.0000 0.1299852616
H   H299      1.0  0.63190  0.04000  0.80570  1.0000 0.1299852616
H   H300      1.0  0.29000  0.98430  0.90810  1.0000 0.1299852616
H   H301      1.0  0.17380  0.36810  0.40810  1.0000 0.1299852616
H   H302      1.0  0.01570  0.92380  0.30570  1.0000 0.1299852616
H   H303      1.0  0.61810  0.71000  0.69430  1.0000 0.1299852616
H   H304      1.0  0.96000  0.76570  0.59190  1.0000 0.1299852616
H   H305      1.0  0.01280  0.29470  0.05530  1.0000 0.1192843066
H   H306      1.0  0.20750  0.76280  0.21810  1.0000 0.1192843066
H   H307      1.0  0.54470  0.98940  0.78190  1.0000 0.1192843066
H   H308      1.0  0.23940  0.95750  0.94470  1.0000 0.1192843066
H   H309      1.0  0.23720  0.45530  0.44470  1.0000 0.1192843066
H   H310      1.0  0.04250  0.98720  0.28190  1.0000 0.1192843066
H   H311      1.0  0.70530  0.76060  0.71810  1.0000 0.1192843066
H   H312      1.0  0.01060  0.79250  0.55530  1.0000 0.1192843066
C   C1        1.0  0.01927  0.19316  0.33723  1.0000 0.2806527768
C   C2        1.0  0.93204  0.76927  0.32611  1.0000 0.2806527768
C   C3        1.0  0.44316  0.60593  0.67389  1.0000 0.2806527768
C   C4        1.0  0.85593  0.68204  0.66277  1.0000 0.2806527768
C   C5        1.0  0.23073  0.55684  0.16277  1.0000 0.2806527768
C   C6        1.0  0.31796  0.98073  0.17389  1.0000 0.2806527768
C   C7        1.0  0.80684  0.14407  0.82611  1.0000 0.2806527768
C   C8        1.0  0.39407  0.06796  0.83723  1.0000 0.2806527768
C   C9        1.0  0.08347  0.21575  0.33862  1.0000 -0.2302752002
C   C10       1.0  0.99485  0.83347  0.36772  1.0000 -0.2302752002
C   C11       1.0  0.46575  0.62713  0.63228  1.0000 -0.2302752002
C   C12       1.0  0.87713  0.74485  0.66138  1.0000 -0.2302752002
C   C13       1.0  0.16653  0.53425  0.16138  1.0000 -0.2302752002
C   C14       1.0  0.25515  0.91653  0.13228  1.0000 -0.2302752002
C   C15       1.0  0.78425  0.12287  0.86772  1.0000 -0.2302752002
C   C16       1.0  0.37287  0.00515  0.83862  1.0000 -0.2302752002
C   C17       1.0  0.13795  0.26482  0.31257  1.0000 -0.0615010196
C   C18       1.0  0.07538  0.88795  0.37313  1.0000 -0.0615010196
C   C19       1.0  0.51482  0.70225  0.62687  1.0000 -0.0615010196
C   C20       1.0  0.95225  0.82538  0.68743  1.0000 -0.0615010196
C   C21       1.0  0.11205  0.48518  0.18743  1.0000 -0.0615010196
C   C22       1.0  0.17462  0.86205  0.12687  1.0000 -0.0615010196
C   C23       1.0  0.73518  0.04775  0.87313  1.0000 -0.0615010196
C   C24       1.0  0.29775  0.92462  0.81257  1.0000 -0.0615010196
C   C25       1.0  0.13410  0.29677  0.28447  1.0000 -0.153830932
C   C26       1.0  0.09963  0.88410  0.33733  1.0000 -0.153830932
C   C27       1.0  0.54677  0.76230  0.66267  1.0000 -0.153830932
C   C28       1.0  0.01230  0.84963  0.71553  1.0000 -0.153830932
C   C29       1.0  0.11590  0.45323  0.21553  1.0000 -0.153830932
C   C30       1.0  0.15037  0.86590  0.16267  1.0000 -0.153830932
C   C31       1.0  0.70323  0.98770  0.83733  1.0000 -0.153830932
C   C32       1.0  0.23770  0.90037  0.78447  1.0000 -0.153830932
C   C33       1.0  0.07032  0.27445  0.28257  1.0000 -0.0909931227
C   C34       1.0  0.03775  0.82032  0.29587  1.0000 -0.0951421275
C   C35       1.0  0.52445  0.74188  0.70413  1.0000 -0.0951421275
C   C36       1.0  0.99188  0.78775  0.71743  1.0000 -0.0951421275
C   C37       1.0  0.17968  0.47555  0.21743  1.0000 -0.0909931227
C   C38       1.0  0.21225  0.92968  0.20413  1.0000 -0.0951421275
C   C39       1.0  0.72555  0.00812  0.79587  1.0000 -0.0909931227
C   C40       1.0  0.25812  0.96225  0.78257  1.0000 -0.0909931227
C   C41       1.0  0.01173  0.22106  0.30779  1.0000 -0.1575098732
C   C42       1.0  0.95394  0.76173  0.29067  1.0000 -0.1575098732
C   C43       1.0  0.47106  0.66327  0.70933  1.0000 -0.1575098732
C   C44       1.0  0.91327  0.70394  0.69221  1.0000 -0.1575098732
C   C45       1.0  0.23827  0.52894  0.19221  1.0000 -0.1575098732
C   C46       1.0  0.29606  0.98827  0.20933  1.0000 -0.1575098732
C   C47       1.0  0.77894  0.08673  0.79067  1.0000 -0.1575098732
C   C48       1.0  0.33673  0.04606  0.80779  1.0000 -0.1575098732
C   C49       1.0  0.94344  0.19508  0.30152  1.0000 0.4321810477
C   C50       1.0  0.89192  0.69344  0.24836  1.0000 0.4321810477
C   C51       1.0  0.44508  0.64356  0.75164  1.0000 0.4321810477
C   C52       1.0  0.89356  0.64192  0.69848  1.0000 0.4321810477
C   C53       1.0  0.30656  0.55492  0.19848  1.0000 0.4321810477
C   C54       1.0  0.35808  0.05656  0.25164  1.0000 0.4321810477
C   C55       1.0  0.80492  0.10644  0.74836  1.0000 0.4321810477
C   C56       1.0  0.35644  0.10808  0.80152  1.0000 0.4321810477
C   C57       1.0  0.76772  0.07153  0.33625  1.0000 0.4491905071
C   C58       1.0  0.68147  0.51772  0.19619  1.0000 0.4491905071
C   C59       1.0  0.32153  0.48528  0.80381  1.0000 0.4491905071
C   C60       1.0  0.73528  0.43147  0.66375  1.0000 0.4491905071
C   C61       1.0  0.48228  0.67847  0.16375  1.0000 0.4491905071
C   C62       1.0  0.56853  0.23228  0.30381  1.0000 0.4491905071
C   C63       1.0  0.92847  0.26472  0.69619  1.0000 0.4491905071
C   C64       1.0  0.51472  0.31853  0.83625  1.0000 0.4491905071
C   C65       1.0  0.69298  0.03852  0.32930  1.0000 -0.2427469748
C   C66       1.0  0.61368  0.44298  0.15446  1.0000 -0.2427469748
C   C67       1.0  0.28852  0.45922  0.84554  1.0000 -0.2427469748
C   C68       1.0  0.70922  0.36368  0.67070  1.0000 -0.2427469748
C   C69       1.0  0.55702  0.71148  0.17070  1.0000 -0.2427469748
C   C70       1.0  0.63632  0.30702  0.34554  1.0000 -0.2427469748
C   C71       1.0  0.96148  0.29078  0.65446  1.0000 -0.2427469748
C   C72       1.0  0.54078  0.38632  0.82930  1.0000 -0.2427469748
C   C73       1.0  0.65175  0.00926  0.36581  1.0000 -0.3226972907
C   C74       1.0  0.53594  0.40175  0.14249  1.0000 -0.3226972907
C   C75       1.0  0.25926  0.39345  0.85751  1.0000 -0.3226972907
C   C76       1.0  0.64345  0.28594  0.63419  1.0000 -0.3226972907
C   C77       1.0  0.59825  0.74074  0.13419  1.0000 -0.3226972907
C   C78       1.0  0.71406  0.34825  0.35751  1.0000 -0.3226972907
C   C79       1.0  0.99074  0.35655  0.64249  1.0000 -0.3226972907
C   C80       1.0  0.60655  0.46406  0.86581  1.0000 -0.3226972907
C   C81       1.0  0.82103  0.24504  0.27847  1.0000 0.3018529103
C   C82       1.0  0.79256  0.57103  0.07599  1.0000 0.3018529103
C   C83       1.0  0.49504  0.71657  0.92401  1.0000 0.3018529103
C   C84       1.0  0.96657  0.54256  0.72153  1.0000 0.3018529103
C   C85       1.0  0.42897  0.50496  0.22153  1.0000 0.3018529103
C   C86       1.0  0.45744  0.17897  0.42401  1.0000 0.3018529103
C   C87       1.0  0.75496  0.03343  0.57599  1.0000 0.3018529103
C   C88       1.0  0.28343  0.20744  0.77847  1.0000 0.3018529103
C   C89       1.0  0.86235  0.31780  0.30335  1.0000 -0.2125223006
C   C90       1.0  0.80900  0.61235  0.04455  1.0000 -0.2125223006
C   C91       1.0  0.56780  0.76445  0.95545  1.0000 -0.2125223006
C   C92       1.0  0.01445  0.55900  0.69665  1.0000 -0.2125223006
C   C93       1.0  0.38765  0.43220  0.19665  1.0000 -0.2125223006
C   C94       1.0  0.44100  0.13765  0.45545  1.0000 -0.2125223006
C   C95       1.0  0.68220  0.98555  0.54455  1.0000 -0.2125223006
C   C96       1.0  0.23555  0.19100  0.80335  1.0000 -0.2125223006
C   C97       1.0  0.82459  0.32601  0.30380  1.0000 -0.0615010196
C   C98       1.0  0.77079  0.57459  0.99858  1.0000 -0.0615010196
C   C99       1.0  0.57601  0.77221  0.00142  1.0000 -0.0615010196
C   C100      1.0  0.02221  0.52079  0.69620  1.0000 -0.0615010196
C   C101      1.0  0.42541  0.42399  0.19620  1.0000 -0.0615010196
C   C102      1.0  0.47921  0.17541  0.50142  1.0000 -0.0615010196
C   C103      1.0  0.67399  0.97779  0.49858  1.0000 -0.0615010196
C   C104      1.0  0.22779  0.22921  0.80380  1.0000 -0.0615010196
C   C105      1.0  0.74042  0.25996  0.27858  1.0000 -0.1301127078
C   C106      1.0  0.71184  0.49042  0.98046  1.0000 -0.1301127078
C   C107      1.0  0.50996  0.73138  0.01954  1.0000 -0.1301127078
C   C108      1.0  0.98138  0.46184  0.72142  1.0000 -0.1301127078
C   C109      1.0  0.50958  0.49004  0.22142  1.0000 -0.1301127078
C   C110      1.0  0.53816  0.25958  0.51954  1.0000 -0.1301127078
C   C111      1.0  0.74004  0.01862  0.48046  1.0000 -0.1301127078
C   C112      1.0  0.26862  0.28816  0.77858  1.0000 -0.1301127078
C   C113      1.0  0.69855  0.18745  0.25440  1.0000 -0.0799966561
C   C114      1.0  0.69415  0.44855  0.01110  1.0000 -0.0799966561
C   C115      1.0  0.43745  0.68305  0.98890  1.0000 -0.0799966561
C   C116      1.0  0.93305  0.44415  0.74560  1.0000 -0.0799966561
C   C117      1.0  0.55145  0.56255  0.24560  1.0000 -0.0799966561
C   C118      1.0  0.55585  0.30145  0.48890  1.0000 -0.0799966561
C   C119      1.0  0.81255  0.06695  0.51110  1.0000 -0.0799966561
C   C120      1.0  0.31695  0.30585  0.75440  1.0000 -0.0799966561
C   C121      1.0  0.73526  0.17744  0.25310  1.0000 -0.1575098732
C   C122      1.0  0.73216  0.48526  0.05782  1.0000 -0.1575098732
C   C123      1.0  0.42744  0.67434  0.94218  1.0000 -0.1575098732
C   C124      1.0  0.92434  0.48216  0.74690  1.0000 -0.1575098732
C   C125      1.0  0.51474  0.57256  0.24690  1.0000 -0.1575098732
C   C126      1.0  0.51784  0.26474  0.44218  1.0000 -0.1575098732
C   C127      1.0  0.82256  0.07566  0.55782  1.0000 -0.1575098732
C   C128      1.0  0.32566  0.26784  0.75310  1.0000 -0.1575098732
C   C129      1.0  0.68530  0.09826  0.22416  1.0000 0.4378846087
C   C130      1.0  0.71114  0.43530  0.08704  1.0000 0.4378846087
C   C131      1.0  0.34826  0.62410  0.91296  1.0000 0.4378846087
C   C132      1.0  0.87410  0.46114  0.77584  1.0000 0.4378846087
C   C133      1.0  0.56470  0.65174  0.27584  1.0000 0.4378846087
C   C134      1.0  0.53886  0.31470  0.41296  1.0000 0.4378846087
C   C135      1.0  0.90174  0.12590  0.58704  1.0000 0.4378846087
C   C136      1.0  0.37590  0.28886  0.72416  1.0000 0.4378846087
C   C137      1.0  0.70941  0.01155  0.18516  1.0000 0.4491905071
C   C138      1.0  0.77425  0.45941  0.19786  1.0000 0.4491905071
C   C139      1.0  0.26155  0.57639  0.80214  1.0000 0.4491905071
C   C140      1.0  0.82639  0.52425  0.81484  1.0000 0.4491905071
C   C141      1.0  0.54059  0.73845  0.31484  1.0000 0.4491905071
C   C142      1.0  0.47575  0.29059  0.30214  1.0000 0.4491905071
C   C143      1.0  0.98845  0.17361  0.69786  1.0000 0.4491905071
C   C144      1.0  0.42361  0.22575  0.68516  1.0000 0.4491905071
C   C145      1.0  0.66857  0.94017  0.15014  1.0000 -0.2427469748
C   C146      1.0  0.76843  0.41857  0.22840  1.0000 -0.2427469748
C   C147      1.0  0.19017  0.54003  0.77160  1.0000 -0.2427469748
C   C148      1.0  0.79003  0.51843  0.84986  1.0000 -0.2427469748
C   C149      1.0  0.58143  0.80983  0.34986  1.0000 -0.2427469748
C   C150      1.0  0.48157  0.33143  0.27160  1.0000 -0.2427469748
C   C151      1.0  0.05983  0.20997  0.72840  1.0000 -0.2427469748
C   C152      1.0  0.45997  0.23157  0.65014  1.0000 -0.2427469748
C   C153      1.0  0.71650  0.96364  0.11934  1.0000 -0.3306959102
C   C154      1.0  0.84716  0.46650  0.25286  1.0000 -0.3306959102
C   C155      1.0  0.21364  0.59430  0.74714  1.0000 -0.3306959102
C   C156      1.0  0.84430  0.59716  0.88066  1.0000 -0.3306959102
C   C157      1.0  0.53350  0.78636  0.38066  1.0000 -0.3306959102
C   C158      1.0  0.40284  0.28350  0.24714  1.0000 -0.3306959102
C   C159      1.0  0.03636  0.15570  0.75286  1.0000 -0.3306959102
C   C160      1.0  0.40570  0.15284  0.61934  1.0000 -0.3306959102
C   C161      1.0  0.91976  0.21735  0.17011  1.0000 0.0994798702
C   C162      1.0  0.99965  0.66976  0.20241  1.0000 0.0994798702
C   C163      1.0  0.46735  0.79724  0.79759  1.0000 0.0994798702
C   C164      1.0  0.04724  0.74965  0.82989  1.0000 0.0994798702
C   C165      1.0  0.33024  0.53265  0.32989  1.0000 0.0994798702
C   C166      1.0  0.25035  0.08024  0.29759  1.0000 0.0994798702
C   C167      1.0  0.78265  0.95276  0.70241  1.0000 0.0914129017
C   C168      1.0  0.20276  0.00035  0.67011  1.0000 0.0994798702
C   C169      1.0  0.94728  0.24494  0.13042  1.0000 -0.2196474127
C   C170      1.0  0.06686  0.69728  0.20234  1.0000 -0.2196474127
C   C171      1.0  0.49494  0.86452  0.79766  1.0000 -0.2196474127
C   C172      1.0  0.11452  0.81686  0.86958  1.0000 -0.2196474127
C   C173      1.0  0.30272  0.50506  0.36958  1.0000 -0.2196474127
C   C174      1.0  0.18314  0.05272  0.29766  1.0000 -0.2196474127
C   C175      1.0  0.75506  0.88548  0.70234  1.0000 -0.2196474127
C   C176      1.0  0.13548  0.93314  0.63042  1.0000 -0.2196474127
C   C177      1.0  0.93580  0.27584  0.11124  1.0000 0.1547237695
C   C178      1.0  0.07456  0.68580  0.15996  1.0000 0.1550968946
C   C179      1.0  0.52584  0.91460  0.84004  1.0000 0.1547237695
C   C180      1.0  0.16460  0.82456  0.88876  1.0000 0.1547237695
C   C181      1.0  0.31420  0.47416  0.38876  1.0000 0.1550968946
C   C182      1.0  0.17544  0.06420  0.34004  1.0000 0.1550968946
C   C183      1.0  0.72416  0.83540  0.65996  1.0000 0.1547237695
C   C184      1.0  0.08540  0.92544  0.61124  1.0000 0.1550968946
C   C185      1.0  0.89368  0.27021  0.12909  1.0000 -0.2125223006
C   C186      1.0  0.01459  0.64368  0.12347  1.0000 -0.2125223006
C   C187      1.0  0.52021  0.89112  0.87653  1.0000 -0.2125223006
C   C188      1.0  0.14112  0.76459  0.87091  1.0000 -0.2125223006
C   C189      1.0  0.35632  0.47979  0.37091  1.0000 -0.2125223006
C   C190      1.0  0.23541  0.10632  0.37653  1.0000 -0.2125223006
C   C191      1.0  0.72979  0.85888  0.62347  1.0000 -0.2125223006
C   C192      1.0  0.10888  0.98541  0.62909  1.0000 -0.2125223006
C   C193      1.0  0.86918  0.24347  0.16825  1.0000 0.0914129017
C   C194      1.0  0.95093  0.61918  0.12571  1.0000 0.0914129017
C   C195      1.0  0.49347  0.82522  0.87429  1.0000 0.0914129017
C   C196      1.0  0.07522  0.70093  0.83175  1.0000 0.0914129017
C   C197      1.0  0.38082  0.50653  0.33175  1.0000 0.0914129017
C   C198      1.0  0.29907  0.13082  0.37429  1.0000 0.0914129017
C   C199      1.0  0.75653  0.92478  0.62571  1.0000 0.0914129017
C   C200      1.0  0.17478  0.04907  0.66825  1.0000 0.0914129017
C   C201      1.0  0.96543  0.30997  0.06880  1.0000 -0.2125223006
C   C202      1.0  0.14663  0.71543  0.15546  1.0000 -0.2125223006
C   C203      1.0  0.55997  0.99117  0.84454  1.0000 -0.2125223006
C   C204      1.0  0.24117  0.89663  0.93120  1.0000 -0.2125223006
C   C205      1.0  0.28457  0.44003  0.43120  1.0000 -0.2125223006
C   C206      1.0  0.10337  0.03457  0.34454  1.0000 -0.2125223006
C   C207      1.0  0.69003  0.75883  0.65546  1.0000 -0.2125223006
C   C208      1.0  0.00883  0.85337  0.56880  1.0000 -0.2125223006
C   C209      1.0  0.75585  0.85652  0.43277  1.0000 0.2806527768
C   C210      1.0  0.57308  0.50585  0.39933  1.0000 0.2806527768
C   C211      1.0  0.10652  0.17375  0.60067  1.0000 0.2806527768
C   C212      1.0  0.42375  0.32308  0.56723  1.0000 0.2806527768
C   C213      1.0  0.49415  0.89348  0.06723  1.0000 0.2806527768
C   C214      1.0  0.67692  0.24415  0.10067  1.0000 0.2806527768
C   C215      1.0  0.14348  0.57625  0.89933  1.0000 0.2806527768
C   C216      1.0  0.82625  0.42692  0.93277  1.0000 0.2806527768
C   C217      1.0  0.75217  0.82938  0.46975  1.0000 -0.2008677651
C   C218      1.0  0.53242  0.50217  0.42279  1.0000 -0.2008677651
C   C219      1.0  0.07938  0.10963  0.57721  1.0000 -0.2008677651
C   C220      1.0  0.35963  0.28242  0.53025  1.0000 -0.2008677651
C   C221      1.0  0.49783  0.92062  0.03025  1.0000 -0.2008677651
C   C222      1.0  0.71758  0.24783  0.07721  1.0000 -0.2008677651
C   C223      1.0  0.17062  0.64037  0.92279  1.0000 -0.2008677651
C   C224      1.0  0.89037  0.46758  0.96975  1.0000 -0.2008677651
C   C225      1.0  0.79698  0.87946  0.51304  1.0000 -0.0799966561
C   C226      1.0  0.53394  0.54698  0.41752  1.0000 -0.0799966561
C   C227      1.0  0.12946  0.11642  0.58248  1.0000 -0.0799966561
C   C228      1.0  0.36642  0.28394  0.48696  1.0000 -0.0799966561
C   C229      1.0  0.45302  0.87054  0.98696  1.0000 -0.0799966561
C   C230      1.0  0.71606  0.20302  0.08248  1.0000 -0.0799966561
C   C231      1.0  0.12054  0.63358  0.91752  1.0000 -0.0799966561
C   C232      1.0  0.88358  0.46606  0.01304  1.0000 -0.0799966561
C   C233      1.0  0.84863  0.96038  0.52341  1.0000 -0.1301127078
C   C234      1.0  0.57522  0.59863  0.38825  1.0000 -0.1301127078
C   C235      1.0  0.21038  0.18697  0.61175  1.0000 -0.1301127078
C   C236      1.0  0.43697  0.32522  0.47659  1.0000 -0.1301127078
C   C237      1.0  0.40137  0.78962  0.97659  1.0000 -0.1301127078
C   C238      1.0  0.67478  0.15137  0.11175  1.0000 -0.1301127078
C   C239      1.0  0.03962  0.56303  0.88825  1.0000 -0.1301127078
C   C240      1.0  0.81303  0.42478  0.02341  1.0000 -0.1301127078
C   C241      1.0  0.85221  0.98772  0.48753  1.0000 -0.0909931227
C   C242      1.0  0.61468  0.60221  0.36449  1.0000 -0.0909931227
C   C243      1.0  0.23772  0.25019  0.63551  1.0000 -0.0909931227
C   C244      1.0  0.50019  0.36468  0.51247  1.0000 -0.0909931227
C   C245      1.0  0.39779  0.76228  0.01247  1.0000 -0.0909931227
C   C246      1.0  0.63532  0.14779  0.13551  1.0000 -0.0909931227
C   C247      1.0  0.01228  0.49981  0.86449  1.0000 -0.0909931227
C   C248      1.0  0.74981  0.38532  0.98753  1.0000 -0.0909931227
C   C249      1.0  0.80648  0.93761  0.44249  1.0000 -0.1301127078
C   C250      1.0  0.61399  0.55648  0.36887  1.0000 -0.1301127078
C   C251      1.0  0.18761  0.24512  0.63113  1.0000 -0.1301127078
C   C252      1.0  0.49512  0.36399  0.55751  1.0000 -0.1301127078
C   C253      1.0  0.44352  0.81239  0.05751  1.0000 -0.1301127078
C   C254      1.0  0.63601  0.19352  0.13113  1.0000 -0.1301127078
C   C255      1.0  0.06239  0.50488  0.86887  1.0000 -0.1301127078
C   C256      1.0  0.75488  0.38601  0.94249  1.0000 -0.1301127078
C   C257      1.0  0.81367  0.97149  0.40536  1.0000 0.4378846087
C   C258      1.0  0.65831  0.56367  0.34218  1.0000 0.4378846087
C   C259      1.0  0.22149  0.31613  0.65782  1.0000 0.4378846087
C   C260      1.0  0.56613  0.40831  0.59464  1.0000 0.4378846087
C   C261      1.0  0.43633  0.77851  0.09464  1.0000 0.4378846087
C   C262      1.0  0.59169  0.18633  0.15782  1.0000 0.4378846087
C   C263      1.0  0.02851  0.43387  0.84218  1.0000 0.4378846087
C   C264      1.0  0.68387  0.34169  0.90536  1.0000 0.4378846087
C   C265      1.0  0.76413  0.92778  0.28851  1.0000 0.4491905071
C   C266      1.0  0.72562  0.51413  0.33635  1.0000 0.4491905071
C   C267      1.0  0.17778  0.38927  0.66365  1.0000 0.4491905071
C   C268      1.0  0.63927  0.47562  0.71149  1.0000 0.4491905071
C   C269      1.0  0.48587  0.82222  0.21149  1.0000 0.4491905071
C   C270      1.0  0.52438  0.23587  0.16365  1.0000 0.4491905071
C   C271      1.0  0.07222  0.36073  0.83635  1.0000 0.4491905071
C   C272      1.0  0.61073  0.27438  0.78851  1.0000 0.4491905071
C   C273      1.0  0.77677  0.96144  0.24921  1.0000 -0.2793153762
C   C274      1.0  0.77756  0.52677  0.31533  1.0000 -0.2793153762
C   C275      1.0  0.21144  0.46223  0.68467  1.0000 -0.2793153762
C   C276      1.0  0.71223  0.52756  0.75079  1.0000 -0.2793153762
C   C277      1.0  0.47323  0.78856  0.25079  1.0000 -0.2793153762
C   C278      1.0  0.47244  0.22323  0.18467  1.0000 -0.2793153762
C   C279      1.0  0.03856  0.28777  0.81533  1.0000 -0.2793153762
C   C280      1.0  0.53777  0.22244  0.74921  1.0000 -0.2793153762
C   C281      1.0  0.85161  0.99893  0.22994  1.0000 -0.3453354775
C   C282      1.0  0.87167  0.60161  0.35268  1.0000 -0.3453354775
C   C283      1.0  0.24893  0.51899  0.64732  1.0000 -0.3453354775
C   C284      1.0  0.76899  0.62167  0.77006  1.0000 -0.3453354775
C   C285      1.0  0.39839  0.75107  0.27006  1.0000 -0.3453354775
C   C286      1.0  0.37833  0.14839  0.14732  1.0000 -0.3453354775
C   C287      1.0  0.00107  0.23101  0.85268  1.0000 -0.3406482552
C   C288      1.0  0.48101  0.12833  0.72994  1.0000 -0.3406482552
C   C289      1.0  0.16681  0.50308  0.99429  1.0000 0.0914129017
C   C290      1.0  0.42252  0.91681  0.16373  1.0000 0.0914129017
C   C291      1.0  0.75308  0.25879  0.83627  1.0000 0.0914129017
C   C292      1.0  0.50879  0.17252  0.00571  1.0000 0.0914129017
C   C293      1.0  0.08319  0.24692  0.50571  1.0000 0.0914129017
C   C294      1.0  0.82748  0.83319  0.33627  1.0000 0.0914129017
C   C295      1.0  0.49692  0.49121  0.66373  1.0000 0.0914129017
C   C296      1.0  0.74121  0.57748  0.49429  1.0000 0.0914129017
C   C297      1.0  0.13989  0.47029  0.03138  1.0000 -0.2008677651
C   C298      1.0  0.35851  0.88989  0.16960  1.0000 -0.2008677651
C   C299      1.0  0.72029  0.18891  0.83040  1.0000 -0.2008677651
C   C300      1.0  0.43891  0.10851  0.96862  1.0000 -0.2008677651
C   C301      1.0  0.11011  0.27971  0.46862  1.0000 -0.2008677651
C   C302      1.0  0.89149  0.86011  0.33040  1.0000 -0.2008677651
C   C303      1.0  0.52971  0.56109  0.66960  1.0000 -0.2008677651
C   C304      1.0  0.81109  0.64149  0.53138  1.0000 -0.2008677651
C   C305      1.0  0.06382  0.38535  0.02337  1.0000 0.1687717256
C   C306      1.0  0.29045  0.81382  0.17847  1.0000 0.1687717256
C   C307      1.0  0.63535  0.11198  0.82153  1.0000 0.1687717256
C   C308      1.0  0.36198  0.04045  0.97663  1.0000 0.1687717256
C   C309      1.0  0.18618  0.36465  0.47663  1.0000 0.1687717256
C   C310      1.0  0.95955  0.93618  0.32153  1.0000 0.1687717256
C   C311      1.0  0.61465  0.63802  0.67847  1.0000 0.1687717256
C   C312      1.0  0.88802  0.70955  0.52337  1.0000 0.1687717256
C   C313      1.0  0.01651  0.33590  0.97741  1.0000 -0.2196474127
C   C314      1.0  0.28910  0.76651  0.18061  1.0000 -0.2196474127
C   C315      1.0  0.58590  0.10849  0.81939  1.0000 -0.2196474127
C   C316      1.0  0.35849  0.03910  0.02259  1.0000 -0.2196474127
C   C317      1.0  0.23349  0.41410  0.52259  1.0000 -0.2196474127
C   C318      1.0  0.96090  0.98349  0.31939  1.0000 -0.2196474127
C   C319      1.0  0.66410  0.64151  0.68061  1.0000 -0.2196474127
C   C320      1.0  0.89151  0.71090  0.47741  1.0000 -0.2196474127
C   C321      1.0  0.04934  0.37592  0.94306  1.0000 0.0914129017
C   C322      1.0  0.35628  0.79934  0.17342  1.0000 0.0914129017
C   C323      1.0  0.62592  0.18286  0.82658  1.0000 0.0914129017
C   C324      1.0  0.43286  0.10628  0.05694  1.0000 0.0914129017
C   C325      1.0  0.20066  0.37408  0.55694  1.0000 0.0914129017
C   C326      1.0  0.89372  0.95066  0.32658  1.0000 0.0914129017
C   C327      1.0  0.62408  0.56714  0.67342  1.0000 0.0914129017
C   C328      1.0  0.81714  0.64372  0.44306  1.0000 0.0914129017
C   C329      1.0  0.03019  0.34095  0.06274  1.0000 -0.2196474127
C   C330      1.0  0.21745  0.78019  0.18924  1.0000 -0.2196474127
C   C331      1.0  0.59095  0.02821  0.81076  1.0000 -0.2196474127
C   C332      1.0  0.27821  0.96745  0.93726  1.0000 -0.2196474127
C   C333      1.0  0.21981  0.40905  0.43726  1.0000 -0.2196474127
C   C334      1.0  0.03255  0.96981  0.31076  1.0000 -0.2196474127
C   C335      1.0  0.65905  0.72179  0.68924  1.0000 -0.2196474127
C   C336      1.0  0.97179  0.78255  0.56274  1.0000 -0.2196474127
N   N1        1.0  0.88534  0.14297  0.32361  1.0000 -0.3406482552
N   N2        1.0  0.81173  0.63534  0.24237  1.0000 -0.3406482552
N   N3        1.0  0.39297  0.56936  0.75763  1.0000 -0.3406482552
N   N4        1.0  0.81936  0.56173  0.67639  1.0000 -0.3406482552
N   N5        1.0  0.36466  0.60703  0.17639  1.0000 -0.3406482552
N   N6        1.0  0.43827  0.11466  0.25763  1.0000 -0.3406482552
N   N7        1.0  0.85703  0.18064  0.74237  1.0000 -0.3406482552
N   N8        1.0  0.43064  0.18827  0.82361  1.0000 -0.3406482552
N   N9        1.0  0.82064  0.12044  0.31222  1.0000 -0.3226972907
N   N10       1.0  0.75842  0.57064  0.20020  1.0000 -0.3226972907
N   N11       1.0  0.37044  0.55822  0.79980  1.0000 -0.3226972907
N   N12       1.0  0.80822  0.50842  0.68778  1.0000 -0.3226972907
N   N13       1.0  0.42936  0.62956  0.18778  1.0000 -0.3226972907
N   N14       1.0  0.49158  0.17936  0.29980  1.0000 -0.3226972907
N   N15       1.0  0.87956  0.19178  0.70020  1.0000 -0.3226972907
N   N16       1.0  0.44178  0.24158  0.81222  1.0000 -0.3226972907
N   N17       1.0  0.72186  0.09018  0.21942  1.0000 -0.3306959102
N   N18       1.0  0.75244  0.47186  0.13168  1.0000 -0.3306959102
N   N19       1.0  0.34018  0.62076  0.86832  1.0000 -0.3306959102
N   N20       1.0  0.87076  0.50244  0.78058  1.0000 -0.3406482552
N   N21       1.0  0.52814  0.65982  0.28058  1.0000 -0.3406482552
N   N22       1.0  0.49756  0.27814  0.36832  1.0000 -0.3306959102
N   N23       1.0  0.90982  0.12924  0.63168  1.0000 -0.3306959102
N   N24       1.0  0.37924  0.24756  0.71942  1.0000 -0.3306959102
N   N25       1.0  0.67054  0.01583  0.18689  1.0000 -0.3030932784
N   N26       1.0  0.73365  0.42054  0.15471  1.0000 -0.3030932784
N   N27       1.0  0.26583  0.57894  0.84529  1.0000 -0.3030932784
N   N28       1.0  0.82894  0.48365  0.81311  1.0000 -0.3030932784
N   N29       1.0  0.57946  0.73417  0.31311  1.0000 -0.3030932784
N   N30       1.0  0.51635  0.32946  0.34529  1.0000 -0.3030932784
N   N31       1.0  0.98417  0.17106  0.65471  1.0000 -0.3030932784
N   N32       1.0  0.42106  0.26635  0.68689  1.0000 -0.3030932784
N   N33       1.0  0.88341  0.21923  0.18944  1.0000 -0.2125223006
N   N34       1.0  0.94397  0.63341  0.16418  1.0000 -0.2125223006
N   N35       1.0  0.46923  0.77979  0.83582  1.0000 -0.2125223006
N   N36       1.0  0.02979  0.69397  0.81056  1.0000 -0.2125223006
N   N37       1.0  0.36659  0.53077  0.31056  1.0000 -0.2125223006
N   N38       1.0  0.30603  0.11659  0.33582  1.0000 -0.2125223006
N   N39       1.0  0.78077  0.97021  0.66418  1.0000 -0.2125223006
N   N40       1.0  0.22021  0.05603  0.68944  1.0000 -0.2125223006
N   N41       1.0  0.77795  0.92867  0.36190  1.0000 -0.3306959102
N   N42       1.0  0.66605  0.52795  0.34928  1.0000 -0.3306959102
N   N43       1.0  0.17867  0.31677  0.65072  1.0000 -0.3306959102
N   N44       1.0  0.56677  0.41605  0.63810  1.0000 -0.3306959102
N   N45       1.0  0.47205  0.82133  0.13810  1.0000 -0.3306959102
N   N46       1.0  0.58395  0.22205  0.15072  1.0000 -0.3306959102
N   N47       1.0  0.07133  0.43323  0.84928  1.0000 -0.3306959102
N   N48       1.0  0.68323  0.33395  0.86190  1.0000 -0.3306959102
N   N49       1.0  0.79268  0.96991  0.33059  1.0000 -0.3306959102
N   N50       1.0  0.71209  0.54268  0.32277  1.0000 -0.3306959102
N   N51       1.0  0.21991  0.38932  0.67723  1.0000 -0.3306959102
N   N52       1.0  0.63932  0.46209  0.66941  1.0000 -0.3306959102
N   N53       1.0  0.45732  0.78009  0.16941  1.0000 -0.3306959102
N   N54       1.0  0.53791  0.20732  0.17723  1.0000 -0.3306959102
N   N55       1.0  0.03009  0.36068  0.82277  1.0000 -0.3306959102
N   N56       1.0  0.61068  0.28791  0.83059  1.0000 -0.3306959102
N   N57       1.0  0.12371  0.45706  0.95077  1.0000 -0.2125223006
N   N58       1.0  0.42294  0.87371  0.16665  1.0000 -0.2125223006
N   N59       1.0  0.70706  0.25629  0.83335  1.0000 -0.2125223006
N   N60       1.0  0.50629  0.17294  0.04923  1.0000 -0.2125223006
N   N61       1.0  0.12629  0.29294  0.54923  1.0000 -0.2125223006
N   N62       1.0  0.82706  0.87629  0.33333  1.0000 -0.2125223006
N   N63       1.0  0.54294  0.49371  0.66667  1.0000 -0.2125223006
N   N64       1.0  0.74371  0.57706  0.45077  1.0000 -0.2125223006
O   O1        1.0  0.97154  0.14822  0.36574  1.0000 -0.4975193026
O   O2        1.0  0.85580  0.72154  0.32332  1.0000 -0.4975193026
O   O3        1.0  0.39822  0.53248  0.67668  1.0000 -0.4975193026
O   O4        1.0  0.78248  0.60580  0.63426  1.0000 -0.4975193026
O   O5        1.0  0.27846  0.60178  0.13426  1.0000 -0.4975193026
O   O6        1.0  0.39420  0.02846  0.17668  1.0000 -0.4975193026
O   O7        1.0  0.85178  0.21752  0.82332  1.0000 -0.4975193026
O   O8        1.0  0.46752  0.14420  0.86574  1.0000 -0.4975193026
O   O9        1.0  0.94059  0.22281  0.27318  1.0000 -0.4738137587
O   O10       1.0  0.91741  0.69059  0.21778  1.0000 -0.4738137587
O   O11       1.0  0.47281  0.69963  0.78222  1.0000 -0.4738137587
O   O12       1.0  0.94963  0.66741  0.72682  1.0000 -0.4738137587
O   O13       1.0  0.30941  0.52719  0.22682  1.0000 -0.4738137587
O   O14       1.0  0.33259  0.05941  0.28222  1.0000 -0.4738137587
O   O15       1.0  0.77719  0.05037  0.71778  1.0000 -0.4738137587
O   O16       1.0  0.30037  0.08259  0.77318  1.0000 -0.4738137587
O   O17       1.0  0.77706  0.05076  0.36706  1.0000 -0.4975193026
O   O18       1.0  0.66000  0.52706  0.22630  1.0000 -0.4975193026
O   O19       1.0  0.30076  0.43370  0.77370  1.0000 -0.4975193026
O   O20       1.0  0.68370  0.41000  0.63294  1.0000 -0.4975193026
O   O21       1.0  0.47294  0.69924  0.13294  1.0000 -0.4975193026
O   O22       1.0  0.59000  0.22294  0.27370  1.0000 -0.4975193026
O   O23       1.0  0.94924  0.31630  0.72630  1.0000 -0.4975193026
O   O24       1.0  0.56630  0.34000  0.86706  1.0000 -0.4975193026
O   O25       1.0  0.86349  0.24369  0.27932  1.0000 -0.4612859502
O   O26       1.0  0.83417  0.61349  0.11980  1.0000 -0.4612859502
O   O27       1.0  0.49369  0.71437  0.88020  1.0000 -0.4612859502
O   O28       1.0  0.96437  0.58417  0.72068  1.0000 -0.4612859502
O   O29       1.0  0.38651  0.50631  0.22068  1.0000 -0.4612859502
O   O30       1.0  0.41583  0.13651  0.38020  1.0000 -0.4612859502
O   O31       1.0  0.75631  0.03563  0.61980  1.0000 -0.4612859502
O   O32       1.0  0.28563  0.16583  0.77932  1.0000 -0.4612859502
O   O33       1.0  0.60814  0.03947  0.20209  1.0000 -0.4612859502
O   O34       1.0  0.65605  0.35814  0.06867  1.0000 -0.4612859502
O   O35       1.0  0.28947  0.58738  0.93133  1.0000 -0.4612859502
O   O36       1.0  0.83738  0.40605  0.79791  1.0000 -0.4612859502
O   O37       1.0  0.64186  0.71053  0.29791  1.0000 -0.4612859502
O   O38       1.0  0.59395  0.39186  0.43133  1.0000 -0.4612859502
O   O39       1.0  0.96053  0.16262  0.56867  1.0000 -0.4612859502
O   O40       1.0  0.41262  0.34395  0.70209  1.0000 -0.4612859502
O   O41       1.0  0.78447  0.06874  0.21211  1.0000 -0.486181383
O   O42       1.0  0.82236  0.53447  0.21573  1.0000 -0.486181383
O   O43       1.0  0.31874  0.60663  0.78427  1.0000 -0.486181383
O   O44       1.0  0.85663  0.57236  0.78789  1.0000 -0.486181383
O   O45       1.0  0.46553  0.68126  0.28789  1.0000 -0.486181383
O   O46       1.0  0.42764  0.21553  0.28427  1.0000 -0.486181383
O   O47       1.0  0.93126  0.14337  0.71573  1.0000 -0.486181383
O   O48       1.0  0.39337  0.17764  0.71211  1.0000 -0.486181383
O   O49       1.0  0.70833  0.80123  0.39046  1.0000 -0.4791133509
O   O50       1.0  0.56787  0.45833  0.40710  1.0000 -0.4791133509
O   O51       1.0  0.05123  0.16077  0.59290  1.0000 -0.4791133509
O   O52       1.0  0.41077  0.31787  0.60954  1.0000 -0.4791133509
O   O53       1.0  0.54167  0.94877  0.10954  1.0000 -0.4791133509
O   O54       1.0  0.68213  0.29167  0.09290  1.0000 -0.4791133509
O   O55       1.0  0.19877  0.58923  0.90710  1.0000 -0.4791133509
O   O56       1.0  0.83923  0.43213  0.89046  1.0000 -0.4791133509
O   O57       1.0  0.85752  0.04497  0.41765  1.0000 -0.486181383
O   O58       1.0  0.68987  0.60752  0.31255  1.0000 -0.486181383
O   O59       1.0  0.29497  0.37732  0.68745  1.0000 -0.4791133509
O   O60       1.0  0.62732  0.43987  0.58235  1.0000 -0.4791133509
O   O61       1.0  0.39248  0.70503  0.08235  1.0000 -0.486181383
O   O62       1.0  0.56013  0.14248  0.18745  1.0000 -0.486181383
O   O63       1.0  0.95503  0.37268  0.81255  1.0000 -0.486181383
O   O64       1.0  0.62268  0.31013  0.91765  1.0000 -0.486181383
O   O65       1.0  0.72479  0.85637  0.27904  1.0000 -0.4791133509
O   O66       1.0  0.69575  0.47479  0.36842  1.0000 -0.4791133509
O   O67       1.0  0.10637  0.32733  0.63158  1.0000 -0.4791133509
O   O68       1.0  0.57733  0.44575  0.72096  1.0000 -0.4791133509
O   O69       1.0  0.52521  0.89363  0.22096  1.0000 -0.4791133509
O   O70       1.0  0.55425  0.27521  0.13158  1.0000 -0.4791133509
O   O71       1.0  0.14363  0.42267  0.86842  1.0000 -0.4791133509
O   O72       1.0  0.67267  0.30425  0.77904  1.0000 -0.4791133509
