# DDEC6 charges by PACMAN v1.1 (https://github.com/mtap-research/PACMAN-charge/)
data_2005[Zn][dia]3[ASR]2
_chemical_formula_sum              "Zn2 H60 C72 N12"
_cell_length_a       9.84501
_cell_length_b       9.84501
_cell_length_c       18.549
_cell_angle_alpha    85.782
_cell_angle_beta     94.218
_cell_angle_gamma    79.5866

_symmetry_space_group_name_H-M    "P 1"
_symmetry_Int_Tables_number       1

loop_
  _symmetry_equiv_pos_as_xyz
  'x, y, z'

loop_
  _atom_site_type_symbol
  _atom_site_label
  _atom_site_symmetry_multiplicity
  _atom_site_fract_x
  _atom_site_fract_y
  _atom_site_fract_z
  _atom_site_occupancy
  _atom_site_charge
Zn  Zn1       1.0  0.96255  0.96255  0.25000  1.0000 0.485761599
Zn  Zn2       1.0  0.03745  0.03745  0.75000  1.0000 0.485761599
H   H1        1.0  0.87890  0.69590  0.21440  1.0000 0.0898557079
H   H2        1.0  0.69590  0.87890  0.28560  1.0000 0.0898557079
H   H3        1.0  0.12110  0.30410  0.78560  1.0000 0.0898557079
H   H4        1.0  0.30410  0.12110  0.71440  1.0000 0.0898557079
H   H5        1.0  0.89290  0.54790  0.12420  1.0000 0.1192542721
H   H6        1.0  0.54790  0.89290  0.37580  1.0000 0.1192542721
H   H7        1.0  0.10710  0.45210  0.87580  1.0000 0.1192542721
H   H8        1.0  0.45210  0.10710  0.62420  1.0000 0.1192542721
H   H9        1.0  0.08970  0.80210  0.01250  1.0000 0.1192542721
H   H10       1.0  0.80210  0.08970  0.48750  1.0000 0.1192542721
H   H11       1.0  0.91030  0.19790  0.98750  1.0000 0.1192542721
H   H12       1.0  0.19790  0.91030  0.51250  1.0000 0.1192542721
H   H13       1.0  0.07010  0.94310  0.10450  1.0000 0.0898557079
H   H14       1.0  0.94310  0.07010  0.39550  1.0000 0.0898557079
H   H15       1.0  0.92990  0.05690  0.89550  1.0000 0.0898557079
H   H16       1.0  0.05690  0.92990  0.60450  1.0000 0.0898557079
H   H17       1.0  0.05590  0.59230  0.95890  1.0000 0.1060255108
H   H18       1.0  0.59230  0.05590  0.54110  1.0000 0.1060255108
H   H19       1.0  0.94410  0.40770  0.04110  1.0000 0.1060255108
H   H20       1.0  0.40770  0.94410  0.45890  1.0000 0.1060255108
H   H21       1.0  0.02280  0.75500  0.40100  1.0000 0.0898557079
H   H22       1.0  0.75500  0.02280  0.09900  1.0000 0.0898557079
H   H23       1.0  0.97720  0.24500  0.59900  1.0000 0.0898557079
H   H24       1.0  0.24500  0.97720  0.90100  1.0000 0.0898557079
H   H25       1.0  0.20660  0.63340  0.47590  1.0000 0.1192542721
H   H26       1.0  0.63340  0.20660  0.02410  1.0000 0.1192542721
H   H27       1.0  0.79340  0.36660  0.52410  1.0000 0.1192542721
H   H28       1.0  0.36660  0.79340  0.97590  1.0000 0.1192542721
H   H29       1.0  0.45260  0.69400  0.31920  1.0000 0.1192542721
H   H30       1.0  0.69400  0.45260  0.18080  1.0000 0.1192542721
H   H31       1.0  0.54740  0.30600  0.68080  1.0000 0.1192542721
H   H32       1.0  0.30600  0.54740  0.81920  1.0000 0.1192542721
H   H33       1.0  0.26370  0.82210  0.25130  1.0000 0.0898557079
H   H34       1.0  0.82210  0.26370  0.24870  1.0000 0.0898557079
H   H35       1.0  0.73630  0.17790  0.74870  1.0000 0.0898557079
H   H36       1.0  0.17790  0.73630  0.75130  1.0000 0.0898557079
H   H37       1.0  0.56250  0.61910  0.43870  1.0000 0.0817580186
H   H38       1.0  0.61910  0.56250  0.06130  1.0000 0.0817580186
H   H39       1.0  0.43750  0.38090  0.56130  1.0000 0.0817580186
H   H40       1.0  0.38090  0.43750  0.93870  1.0000 0.0817580186
H   H41       1.0  0.61250  0.38770  0.44870  1.0000 0.0817580186
H   H42       1.0  0.38770  0.61250  0.05130  1.0000 0.0817580186
H   H43       1.0  0.38750  0.61230  0.55130  1.0000 0.0817580186
H   H44       1.0  0.61230  0.38750  0.94870  1.0000 0.0817580186
H   H45       1.0  0.26100  0.36960  0.48570  1.0000 0.1192542721
H   H46       1.0  0.36960  0.26100  0.01430  1.0000 0.1192542721
H   H47       1.0  0.73900  0.63040  0.51430  1.0000 0.1192542721
H   H48       1.0  0.63040  0.73900  0.98570  1.0000 0.1192542721
H   H49       1.0  0.12490  0.24450  0.42170  1.0000 0.0817580186
H   H50       1.0  0.24450  0.12490  0.07830  1.0000 0.0817580186
H   H51       1.0  0.87510  0.75550  0.57830  1.0000 0.0817580186
H   H52       1.0  0.75550  0.87510  0.92170  1.0000 0.0817580186
H   H53       1.0  0.39940  0.16360  0.28450  1.0000 0.0898557079
H   H54       1.0  0.16360  0.39940  0.21550  1.0000 0.0898557079
H   H55       1.0  0.60060  0.83640  0.71550  1.0000 0.0898557079
H   H56       1.0  0.83640  0.60060  0.78450  1.0000 0.0898557079
H   H57       1.0  0.54120  0.29360  0.34100  1.0000 0.1192542721
H   H58       1.0  0.29360  0.54120  0.15900  1.0000 0.1192542721
H   H59       1.0  0.45880  0.70640  0.65900  1.0000 0.1192542721
H   H60       1.0  0.70640  0.45880  0.84100  1.0000 0.1192542721
C   C1        1.0  0.92213  0.71753  0.17330  1.0000 0.0379722904
C   C2        1.0  0.71753  0.92213  0.32670  1.0000 0.0379722904
C   C3        1.0  0.07787  0.28247  0.82670  1.0000 0.0379722904
C   C4        1.0  0.28247  0.07787  0.67330  1.0000 0.0379722904
C   C5        1.0  0.93096  0.62756  0.11915  1.0000 -0.2189962653
C   C6        1.0  0.62756  0.93096  0.38085  1.0000 -0.2189962653
C   C7        1.0  0.06904  0.37244  0.88085  1.0000 -0.2189962653
C   C8        1.0  0.37244  0.06904  0.61915  1.0000 -0.2189962653
C   C9        1.0  0.99586  0.65554  0.05768  1.0000 0.1477347029
C   C10       1.0  0.65554  0.99586  0.44232  1.0000 0.1477347029
C   C11       1.0  0.00414  0.34446  0.94232  1.0000 0.1477347029
C   C12       1.0  0.34446  0.00414  0.55768  1.0000 0.1477347029
C   C13       1.0  0.04687  0.77747  0.05321  1.0000 -0.2132085363
C   C14       1.0  0.77747  0.04687  0.44679  1.0000 -0.2132085363
C   C15       1.0  0.95313  0.22253  0.94679  1.0000 -0.2132085363
C   C16       1.0  0.22253  0.95313  0.55321  1.0000 -0.2132085363
C   C17       1.0  0.03434  0.86194  0.10870  1.0000 0.0153413074
C   C18       1.0  0.86194  0.03434  0.39130  1.0000 0.0153413074
C   C19       1.0  0.96566  0.13806  0.89130  1.0000 0.0153413074
C   C20       1.0  0.13806  0.96566  0.60870  1.0000 0.0153413074
C   C21       1.0  0.01635  0.56155  0.99960  1.0000 -0.15060602
C   C22       1.0  0.56155  0.01635  0.50040  1.0000 -0.15060602
C   C23       1.0  0.98365  0.43845  0.00040  1.0000 -0.15060602
C   C24       1.0  0.43845  0.98365  0.49960  1.0000 -0.15060602
C   C25       1.0  0.11111  0.74671  0.38520  1.0000 0.0379722904
C   C26       1.0  0.74671  0.11111  0.11480  1.0000 0.0379722904
C   C27       1.0  0.88889  0.25329  0.61480  1.0000 0.0379722904
C   C28       1.0  0.25329  0.88889  0.88520  1.0000 0.0379722904
C   C29       1.0  0.22157  0.67197  0.43058  1.0000 -0.2189962653
C   C30       1.0  0.67197  0.22157  0.06942  1.0000 -0.2189962653
C   C31       1.0  0.77843  0.32803  0.56942  1.0000 -0.2189962653
C   C32       1.0  0.32803  0.77843  0.93058  1.0000 -0.2189962653
C   C33       1.0  0.35398  0.65460  0.40840  1.0000 0.1278975469
C   C34       1.0  0.65460  0.35398  0.09160  1.0000 0.1278975469
C   C35       1.0  0.64602  0.34540  0.59160  1.0000 0.1278975469
C   C36       1.0  0.34540  0.64602  0.90840  1.0000 0.1278975469
C   C37       1.0  0.36700  0.70880  0.33825  1.0000 -0.2189962653
C   C38       1.0  0.70880  0.36700  0.16175  1.0000 -0.2189962653
C   C39       1.0  0.63300  0.29120  0.66175  1.0000 -0.2189962653
C   C40       1.0  0.29120  0.63300  0.83825  1.0000 -0.2189962653
C   C41       1.0  0.25190  0.78470  0.29738  1.0000 0.0379722904
C   C42       1.0  0.78470  0.25190  0.20262  1.0000 0.0379722904
C   C43       1.0  0.74810  0.21530  0.70262  1.0000 0.0379722904
C   C44       1.0  0.21530  0.74810  0.79738  1.0000 0.0379722904
C   C45       1.0  0.48227  0.58229  0.45428  1.0000 -0.1053342658
C   C46       1.0  0.58229  0.48227  0.04572  1.0000 -0.1053342658
C   C47       1.0  0.51773  0.41771  0.54572  1.0000 -0.1053342658
C   C48       1.0  0.41771  0.51773  0.95428  1.0000 -0.1053342658
C   C49       1.0  0.51785  0.41899  0.46164  1.0000 -0.0987256045
C   C50       1.0  0.41899  0.51785  0.03836  1.0000 -0.0987256045
C   C51       1.0  0.48215  0.58101  0.53836  1.0000 -0.0987256045
C   C52       1.0  0.58101  0.48215  0.96164  1.0000 -0.0987256045
C   C53       1.0  0.41990  0.34212  0.42221  1.0000 0.1192542721
C   C54       1.0  0.34212  0.41990  0.07779  1.0000 0.1192542721
C   C55       1.0  0.58010  0.65788  0.57779  1.0000 0.1192542721
C   C56       1.0  0.65788  0.58010  0.92221  1.0000 0.1192542721
C   C57       1.0  0.29236  0.32816  0.44503  1.0000 -0.2189962653
C   C58       1.0  0.32816  0.29236  0.05497  1.0000 -0.2189962653
C   C59       1.0  0.70764  0.67184  0.55497  1.0000 -0.2189962653
C   C60       1.0  0.67184  0.70764  0.94503  1.0000 -0.2189962653
C   C61       1.0  0.21131  0.25151  0.40627  1.0000 0.0609499918
C   C62       1.0  0.25151  0.21131  0.09373  1.0000 0.0609499918
C   C63       1.0  0.78869  0.74849  0.59373  1.0000 0.0609499918
C   C64       1.0  0.74849  0.78869  0.90627  1.0000 0.0609499918
C   C65       1.0  0.37140  0.20540  0.32571  1.0000 0.0609499918
C   C66       1.0  0.20540  0.37140  0.17429  1.0000 0.0609499918
C   C67       1.0  0.62860  0.79460  0.67429  1.0000 0.0609499918
C   C68       1.0  0.79460  0.62860  0.82571  1.0000 0.0609499918
C   C69       1.0  0.45855  0.28235  0.35983  1.0000 -0.2189962653
C   C70       1.0  0.28235  0.45855  0.14017  1.0000 -0.2189962653
C   C71       1.0  0.54145  0.71765  0.64017  1.0000 -0.2189962653
C   C72       1.0  0.71765  0.54145  0.85983  1.0000 -0.2189962653
N   N1        1.0  0.97327  0.83359  0.16874  1.0000 -0.2189962653
N   N2        1.0  0.83359  0.97327  0.33126  1.0000 -0.2189962653
N   N3        1.0  0.02673  0.16641  0.83126  1.0000 -0.2189962653
N   N4        1.0  0.16641  0.02673  0.66874  1.0000 -0.2189962653
N   N5        1.0  0.12437  0.80781  0.31981  1.0000 -0.2412486809
N   N6        1.0  0.80781  0.12437  0.18019  1.0000 -0.2412486809
N   N7        1.0  0.87563  0.19219  0.68019  1.0000 -0.2412486809
N   N8        1.0  0.19219  0.87563  0.81981  1.0000 -0.2412486809
N   N9        1.0  0.25006  0.18826  0.34894  1.0000 -0.2819285231
N   N10       1.0  0.18826  0.25006  0.15106  1.0000 -0.2819285231
N   N11       1.0  0.74994  0.81174  0.65106  1.0000 -0.2819285231
N   N12       1.0  0.81174  0.74994  0.84894  1.0000 -0.2819285231
