# DDEC6 charges by PACMAN v1.1 (https://github.com/mtap-research/PACMAN-charge/)
data_2005[Pr][noy]3[ASR]1
_chemical_formula_sum              "Pr4 H8 C32 N4 O24"
_cell_length_a       6.754
_cell_length_b       11.937
_cell_length_c       13.456
_cell_angle_alpha    90
_cell_angle_beta     100.381
_cell_angle_gamma    90

_symmetry_space_group_name_H-M    "P 1"
_symmetry_Int_Tables_number       1

loop_
  _symmetry_equiv_pos_as_xyz
  'x, y, z'

loop_
  _atom_site_type_symbol
  _atom_site_label
  _atom_site_symmetry_multiplicity
  _atom_site_fract_x
  _atom_site_fract_y
  _atom_site_fract_z
  _atom_site_occupancy
  _atom_site_charge
Pr  Pr1       1.0  0.05196  0.83113  0.75493  1.0000 2.0478806299
Pr  Pr2       1.0  0.94804  0.33113  0.74507  1.0000 2.0478806299
Pr  Pr3       1.0  0.94804  0.16887  0.24507  1.0000 2.0478806299
Pr  Pr4       1.0  0.05196  0.66887  0.25493  1.0000 2.0478806299
H   H1        1.0  0.80030  0.93850  0.95890  1.0000 0.1475904313
H   H2        1.0  0.19970  0.43850  0.54110  1.0000 0.1475904313
H   H3        1.0  0.19970  0.06150  0.04110  1.0000 0.1475904313
H   H4        1.0  0.80030  0.56150  0.45890  1.0000 0.1475904313
H   H5        1.0  0.45900  0.80400  0.14510  1.0000 0.1475904313
H   H6        1.0  0.54100  0.30400  0.35490  1.0000 0.1475904313
H   H7        1.0  0.54100  0.19600  0.85490  1.0000 0.1475904313
H   H8        1.0  0.45900  0.69600  0.64510  1.0000 0.1475904313
C   C1        1.0  0.54200  0.89770  0.78070  1.0000 0.6003913832
C   C2        1.0  0.45800  0.39770  0.71930  1.0000 0.6003913832
C   C3        1.0  0.45800  0.10230  0.21930  1.0000 0.6003913832
C   C4        1.0  0.54200  0.60230  0.28070  1.0000 0.6003913832
C   C5        1.0  0.52720  0.88000  0.89020  1.0000 0.1231618774
C   C6        1.0  0.47280  0.38000  0.60980  1.0000 0.1231618774
C   C7        1.0  0.47280  0.12000  0.10980  1.0000 0.1231618774
C   C8        1.0  0.52720  0.62000  0.39020  1.0000 0.1231618774
C   C9        1.0  0.68210  0.90480  0.97010  1.0000 -0.1301100153
C   C10       1.0  0.31790  0.40480  0.52990  1.0000 -0.1301100153
C   C11       1.0  0.31790  0.09520  0.02990  1.0000 -0.1301100153
C   C12       1.0  0.68210  0.59520  0.47010  1.0000 -0.1301100153
C   C13       1.0  0.65490  0.87770  0.06680  1.0000 0.0210710679
C   C14       1.0  0.34510  0.37770  0.43320  1.0000 0.0210710679
C   C15       1.0  0.34510  0.12230  0.93320  1.0000 0.0210710679
C   C16       1.0  0.65490  0.62230  0.56680  1.0000 0.0210710679
C   C17       1.0  0.81930  0.90070  0.15710  1.0000 0.6218329471
C   C18       1.0  0.18070  0.40070  0.34290  1.0000 0.6218329471
C   C19       1.0  0.18070  0.09930  0.84290  1.0000 0.6218329471
C   C20       1.0  0.81930  0.59930  0.65710  1.0000 0.6218329471
C   C21       1.0  0.47630  0.82720  0.08130  1.0000 -0.1462057876
C   C22       1.0  0.52370  0.32720  0.41870  1.0000 -0.1462057876
C   C23       1.0  0.52370  0.17280  0.91870  1.0000 -0.1462057876
C   C24       1.0  0.47630  0.67280  0.58130  1.0000 -0.1462057876
C   C25       1.0  0.32490  0.81270  0.99760  1.0000 0.137528668
C   C26       1.0  0.67510  0.31270  0.50240  1.0000 0.137528668
C   C27       1.0  0.67510  0.18730  0.00240  1.0000 0.137528668
C   C28       1.0  0.32490  0.68730  0.49760  1.0000 0.137528668
C   C29       1.0  0.11750  0.76700  0.00400  1.0000 0.6003913832
C   C30       1.0  0.88250  0.26700  0.49600  1.0000 0.6003913832
C   C31       1.0  0.88250  0.23300  0.99600  1.0000 0.6003913832
C   C32       1.0  0.11750  0.73300  0.50400  1.0000 0.6003913832
N   N1        1.0  0.34960  0.83850  0.90430  1.0000 -0.4074300426
N   N2        1.0  0.65040  0.33850  0.59570  1.0000 -0.4074300426
N   N3        1.0  0.65040  0.16150  0.09570  1.0000 -0.4074300426
N   N4        1.0  0.34960  0.66150  0.40430  1.0000 -0.4074300426
O   O1        1.0  0.37680  0.90110  0.71920  1.0000 -0.6406279999
O   O2        1.0  0.62320  0.40110  0.78080  1.0000 -0.6406279999
O   O3        1.0  0.62320  0.09890  0.28080  1.0000 -0.6406279999
O   O4        1.0  0.37680  0.59890  0.21920  1.0000 -0.6406279999
O   O5        1.0  0.71230  0.90720  0.75810  1.0000 -0.6048300463
O   O6        1.0  0.28770  0.40720  0.74190  1.0000 -0.6048300463
O   O7        1.0  0.28770  0.09280  0.24190  1.0000 -0.6048300463
O   O8        1.0  0.71230  0.59280  0.25810  1.0000 -0.6048300463
O   O9        1.0  0.83390  0.83210  0.22910  1.0000 -0.6287113922
O   O10       1.0  0.16610  0.33210  0.27090  1.0000 -0.6287113922
O   O11       1.0  0.16610  0.16790  0.77090  1.0000 -0.6287113922
O   O12       1.0  0.83390  0.66790  0.72910  1.0000 -0.6287113922
O   O13       1.0  0.92590  0.98590  0.15470  1.0000 -0.6287113922
O   O14       1.0  0.07410  0.48590  0.34530  1.0000 -0.6287113922
O   O15       1.0  0.07410  0.01410  0.84530  1.0000 -0.6287113922
O   O16       1.0  0.92590  0.51410  0.65470  1.0000 -0.6287113922
O   O17       1.0  0.07720  0.74270  0.08840  1.0000 -0.6458935338
O   O18       1.0  0.92280  0.24270  0.41160  1.0000 -0.6458935338
O   O19       1.0  0.92280  0.25730  0.91160  1.0000 -0.6458935338
O   O20       1.0  0.07720  0.75730  0.58840  1.0000 -0.6458935338
O   O21       1.0  0.99760  0.75720  0.92050  1.0000 -0.6149186093
O   O22       1.0  0.00240  0.25720  0.57950  1.0000 -0.6149186093
O   O23       1.0  0.00240  0.24280  0.07950  1.0000 -0.6149186093
O   O24       1.0  0.99760  0.74280  0.42050  1.0000 -0.6149186093
