# DDEC6 charges by PACMAN v1.1 (https://github.com/mtap-research/PACMAN-charge/)
data_2005[Mn][lvt]3[ASR]3
_chemical_formula_sum              "Mn24 H312 C336 N64 O72"
_cell_length_a       30.0058
_cell_length_b       30.0058
_cell_length_c       30.0058
_cell_angle_alpha    94.8297
_cell_angle_beta     94.8297
_cell_angle_gamma    146.265

_symmetry_space_group_name_H-M    "P 1"
_symmetry_Int_Tables_number       1

loop_
  _symmetry_equiv_pos_as_xyz
  'x, y, z'

loop_
  _atom_site_type_symbol
  _atom_site_label
  _atom_site_symmetry_multiplicity
  _atom_site_fract_x
  _atom_site_fract_y
  _atom_site_fract_z
  _atom_site_occupancy
  _atom_site_charge
Mn  Mn1       1.0  0.37240  0.59346  0.37052  1.0000 0.9312390493
Mn  Mn2       1.0  0.25188  0.12240  0.27894  1.0000 0.9312390493
Mn  Mn3       1.0  0.84346  0.97294  0.72106  1.0000 0.9312390493
Mn  Mn4       1.0  0.22294  0.00188  0.62948  1.0000 0.9312390493
Mn  Mn5       1.0  0.87760  0.15654  0.12948  1.0000 0.9312390493
Mn  Mn6       1.0  0.99812  0.62760  0.22106  1.0000 0.9312390493
Mn  Mn7       1.0  0.40654  0.77706  0.77894  1.0000 0.9312390493
Mn  Mn8       1.0  0.02706  0.74812  0.87052  1.0000 0.9312390493
Mn  Mn9       1.0  0.32994  0.65917  0.24819  1.0000 0.8809292825
Mn  Mn10      1.0  0.33175  0.07994  0.17077  1.0000 0.8809292825
Mn  Mn11      1.0  0.90917  0.16098  0.82923  1.0000 0.8809292825
Mn  Mn12      1.0  0.41098  0.08175  0.75181  1.0000 0.8809292825
Mn  Mn13      1.0  0.92006  0.09083  0.25181  1.0000 0.8809292825
Mn  Mn14      1.0  0.91825  0.67006  0.32923  1.0000 0.8809292825
Mn  Mn15      1.0  0.34083  0.58902  0.67077  1.0000 0.8809292825
Mn  Mn16      1.0  0.83902  0.66825  0.74819  1.0000 0.8809292825
Mn  Mn17      1.0  0.21229  0.31951  0.33404  1.0000 0.8892058961
Mn  Mn18      1.0  0.12825  0.96229  0.39278  1.0000 0.8809292825
Mn  Mn19      1.0  0.56951  0.73547  0.60722  1.0000 0.8892058961
Mn  Mn20      1.0  0.98547  0.87825  0.66596  1.0000 0.8892058961
Mn  Mn21      1.0  0.03771  0.43049  0.16596  1.0000 0.8809292825
Mn  Mn22      1.0  0.12175  0.78771  0.10722  1.0000 0.8892058961
Mn  Mn23      1.0  0.68049  0.01453  0.89278  1.0000 0.8892058961
Mn  Mn24      1.0  0.26453  0.87175  0.83404  1.0000 0.8892058961
H   H1        1.0  0.58790  0.69490  0.35920  1.0000 0.129380077
H   H2        1.0  0.47870  0.33790  0.39300  1.0000 0.129380077
H   H3        1.0  0.94490  0.08570  0.60700  1.0000 0.129380077
H   H4        1.0  0.33570  0.22870  0.64080  1.0000 0.129380077
H   H5        1.0  0.66210  0.05510  0.14080  1.0000 0.129380077
H   H6        1.0  0.77130  0.41210  0.10700  1.0000 0.129380077
H   H7        1.0  0.30510  0.66430  0.89300  1.0000 0.129380077
H   H8        1.0  0.91430  0.52130  0.85920  1.0000 0.129380077
H   H9        1.0  0.67760  0.77660  0.31580  1.0000 0.10220655
H   H10       1.0  0.61180  0.42760  0.40100  1.0000 0.10220655
H   H11       1.0  0.02660  0.21080  0.59900  1.0000 0.10220655
H   H12       1.0  0.46080  0.36180  0.68420  1.0000 0.10220655
H   H13       1.0  0.57240  0.97340  0.18420  1.0000 0.10220655
H   H14       1.0  0.63820  0.32240  0.09900  1.0000 0.10220655
H   H15       1.0  0.22340  0.53920  0.90100  1.0000 0.10220655
H   H16       1.0  0.78920  0.38820  0.81580  1.0000 0.10220655
H   H17       1.0  0.67370  0.83230  0.27140  1.0000 0.1203543559
H   H18       1.0  0.65230  0.42370  0.34140  1.0000 0.1203543559
H   H19       1.0  0.08230  0.31090  0.65860  1.0000 0.1203543559
H   H20       1.0  0.56090  0.40230  0.72860  1.0000 0.1203543559
H   H21       1.0  0.57630  0.91770  0.22860  1.0000 0.1203543559
H   H22       1.0  0.59770  0.32630  0.15860  1.0000 0.1203543559
H   H23       1.0  0.16770  0.43910  0.84140  1.0000 0.1203543559
H   H24       1.0  0.68910  0.34770  0.77140  1.0000 0.1203543559
H   H25       1.0  0.56370  0.79330  0.26680  1.0000 0.1111724425
H   H26       1.0  0.54690  0.31370  0.27040  1.0000 0.1111724425
H   H27       1.0  0.04330  0.27650  0.72960  1.0000 0.1111724425
H   H28       1.0  0.52650  0.29690  0.73320  1.0000 0.1111724425
H   H29       1.0  0.68630  0.95670  0.23320  1.0000 0.1111724425
H   H30       1.0  0.70310  0.43630  0.22960  1.0000 0.1111724425
H   H31       1.0  0.20670  0.47350  0.77040  1.0000 0.1111724425
H   H32       1.0  0.72350  0.45310  0.76680  1.0000 0.1111724425
H   H33       1.0  0.15030  0.49320  0.29830  1.0000 0.1387359252
H   H34       1.0  0.10200  0.90030  0.15710  1.0000 0.1387359252
H   H35       1.0  0.74320  0.94490  0.84290  1.0000 0.1387359252
H   H36       1.0  0.19490  0.85200  0.70170  1.0000 0.1387359252
H   H37       1.0  0.09970  0.25680  0.20170  1.0000 0.1387359252
H   H38       1.0  0.14800  0.84970  0.34290  1.0000 0.1387359252
H   H39       1.0  0.50680  0.80510  0.65710  1.0000 0.1387359252
H   H40       1.0  0.05510  0.89800  0.79830  1.0000 0.1387359252
H   H41       1.0  0.21110  0.58510  0.32320  1.0000 0.129380077
H   H42       1.0  0.13790  0.96110  0.12600  1.0000 0.129380077
H   H43       1.0  0.83510  0.01190  0.87400  1.0000 0.129380077
H   H44       1.0  0.26190  0.88790  0.67680  1.0000 0.129380077
H   H45       1.0  0.03890  0.16490  0.17680  1.0000 0.129380077
H   H46       1.0  0.11210  0.78890  0.37400  1.0000 0.129380077
H   H47       1.0  0.41490  0.73810  0.62600  1.0000 0.129380077
H   H48       1.0  0.98810  0.86210  0.82320  1.0000 0.129380077
H   H49       1.0  0.18270  0.55640  0.39030  1.0000 0.1203543559
H   H50       1.0  0.04240  0.93270  0.12630  1.0000 0.1203543559
H   H51       1.0  0.80640  0.91610  0.87370  1.0000 0.1203543559
H   H52       1.0  0.16610  0.79240  0.60970  1.0000 0.1203543559
H   H53       1.0  0.06730  0.19360  0.10970  1.0000 0.1203543559
H   H54       1.0  0.20760  0.81730  0.37370  1.0000 0.1203543559
H   H55       1.0  0.44360  0.83390  0.62630  1.0000 0.1203543559
H   H56       1.0  0.08390  0.95760  0.89030  1.0000 0.1203543559
H   H57       1.0  0.09420  0.47400  0.35240  1.0000 0.1203543559
H   H58       1.0  0.99180  0.84420  0.12020  1.0000 0.1203543559
H   H59       1.0  0.72400  0.87160  0.87980  1.0000 0.1203543559
H   H60       1.0  0.12160  0.74180  0.64760  1.0000 0.1203543559
H   H61       1.0  0.15580  0.27600  0.14760  1.0000 0.1203543559
H   H62       1.0  0.25820  0.90580  0.37980  1.0000 0.1203543559
H   H63       1.0  0.52600  0.87840  0.62020  1.0000 0.1203543559
H   H64       1.0  0.12840  0.00820  0.85240  1.0000 0.1203543559
H   H65       1.0  0.14550  0.47550  0.37580  1.0000 0.1111724425
H   H66       1.0  0.01970  0.89550  0.17000  1.0000 0.1111724425
H   H67       1.0  0.72550  0.84970  0.83000  1.0000 0.1111724425
H   H68       1.0  0.09970  0.76970  0.62420  1.0000 0.1111724425
H   H69       1.0  0.10450  0.27450  0.12420  1.0000 0.1111724425
H   H70       1.0  0.23030  0.85450  0.33000  1.0000 0.1111724425
H   H71       1.0  0.52450  0.90030  0.67000  1.0000 0.1111724425
H   H72       1.0  0.15030  0.98030  0.87580  1.0000 0.1111724425
H   H73       1.0  0.41600  0.86000  0.32220  1.0000 0.1387359252
H   H74       1.0  0.34380  0.16600  0.05600  1.0000 0.1387359252
H   H75       1.0  0.11000  0.28780  0.94400  1.0000 0.1387359252
H   H76       1.0  0.53780  0.09380  0.67780  1.0000 0.1387359252
H   H77       1.0  0.83400  0.89000  0.17780  1.0000 0.1387359252
H   H78       1.0  0.90620  0.58400  0.44400  1.0000 0.1387359252
H   H79       1.0  0.14000  0.46220  0.55600  1.0000 0.1387359252
H   H80       1.0  0.71220  0.65620  0.82220  1.0000 0.1387359252
H   H81       1.0  0.35310  0.87570  0.32240  1.0000 0.1111724425
H   H82       1.0  0.28070  0.10310  0.97740  1.0000 0.1111724425
H   H83       1.0  0.12570  0.30330  0.02260  1.0000 0.1111724425
H   H84       1.0  0.55330  0.03070  0.67760  1.0000 0.1111724425
H   H85       1.0  0.89690  0.87430  0.17760  1.0000 0.1111724425
H   H86       1.0  0.96930  0.64690  0.52260  1.0000 0.1111724425
H   H87       1.0  0.12430  0.44670  0.47740  1.0000 0.1111724425
H   H88       1.0  0.69670  0.71930  0.82240  1.0000 0.1111724425
H   H89       1.0  0.21320  0.76590  0.27890  1.0000 0.129380077
H   H90       1.0  0.18430  0.96320  0.94730  1.0000 0.129380077
H   H91       1.0  0.01590  0.23700  0.05270  1.0000 0.129380077
H   H92       1.0  0.48700  0.93430  0.72110  1.0000 0.129380077
H   H93       1.0  0.03680  0.98410  0.22110  1.0000 0.129380077
H   H94       1.0  0.06570  0.78680  0.55270  1.0000 0.129380077
H   H95       1.0  0.23410  0.51300  0.44730  1.0000 0.129380077
H   H96       1.0  0.76300  0.81570  0.77890  1.0000 0.129380077
H   H97       1.0  0.13960  0.64150  0.23930  1.0000 0.1203543559
H   H98       1.0  0.15030  0.88960  0.99810  1.0000 0.1203543559
H   H99       1.0  0.89150  0.15220  0.00190  1.0000 0.1203543559
H   H100      1.0  0.40220  0.90030  0.76070  1.0000 0.1203543559
H   H101      1.0  0.11040  0.10850  0.26070  1.0000 0.1203543559
H   H102      1.0  0.09970  0.86040  0.50190  1.0000 0.1203543559
H   H103      1.0  0.35850  0.59780  0.49810  1.0000 0.1203543559
H   H104      1.0  0.84780  0.84970  0.73930  1.0000 0.1203543559
H   H105      1.0  0.11850  0.41010  0.12440  1.0000 0.129380077
H   H106      1.0  0.24410  0.86850  0.20840  1.0000 0.129380077
H   H107      1.0  0.66010  0.03570  0.79160  1.0000 0.129380077
H   H108      1.0  0.28570  0.99410  0.87560  1.0000 0.129380077
H   H109      1.0  0.13150  0.33990  0.37560  1.0000 0.129380077
H   H110      1.0  0.00590  0.88150  0.29160  1.0000 0.129380077
H   H111      1.0  0.58990  0.71430  0.70840  1.0000 0.129380077
H   H112      1.0  0.96430  0.75590  0.62440  1.0000 0.1203543559
H   H113      1.0  0.14350  0.39630  0.16340  1.0000 0.1387359252
H   H114      1.0  0.23010  0.89350  0.24720  1.0000 0.1387359252
H   H115      1.0  0.64630  0.98290  0.75280  1.0000 0.1387359252
H   H116      1.0  0.23290  0.98010  0.83660  1.0000 0.1387359252
H   H117      1.0  0.10650  0.35370  0.33660  1.0000 0.1387359252
H   H118      1.0  0.01990  0.85650  0.25280  1.0000 0.1387359252
H   H119      1.0  0.60370  0.76710  0.74720  1.0000 0.1387359252
H   H120      1.0  0.01710  0.76990  0.66340  1.0000 0.1387359252
H   H121      1.0  0.27590  0.50040  0.14490  1.0000 0.129380077
H   H122      1.0  0.38100  0.02590  0.27550  1.0000 0.129380077
H   H123      1.0  0.75040  0.10550  0.72450  1.0000 0.129380077
H   H124      1.0  0.35550  0.13100  0.85510  1.0000 0.129380077
H   H125      1.0  0.97410  0.24960  0.35510  1.0000 0.129380077
H   H126      1.0  0.86900  0.72410  0.22450  1.0000 0.129380077
H   H127      1.0  0.49960  0.64450  0.77550  1.0000 0.129380077
H   H128      1.0  0.89450  0.61900  0.64490  1.0000 0.129380077
H   H129      1.0  0.19640  0.41170  0.10650  1.0000 0.1111724425
H   H130      1.0  0.33990  0.94640  0.28470  1.0000 0.1111724425
H   H131      1.0  0.66170  0.05520  0.71530  1.0000 0.1111724425
H   H132      1.0  0.30520  0.08990  0.89350  1.0000 0.1111724425
H   H133      1.0  0.05360  0.33830  0.39350  1.0000 0.1111724425
H   H134      1.0  0.91010  0.80360  0.21530  1.0000 0.1203543559
H   H135      1.0  0.58830  0.69480  0.78470  1.0000 0.1111724425
H   H136      1.0  0.94480  0.66010  0.60650  1.0000 0.1111724425
H   H137      1.0  0.23230  0.48920  0.09950  1.0000 0.1203543559
H   H138      1.0  0.38280  0.98230  0.24310  1.0000 0.1203543559
H   H139      1.0  0.73920  0.13970  0.75690  1.0000 0.1203543559
H   H140      1.0  0.38970  0.13280  0.90050  1.0000 0.1203543559
H   H141      1.0  0.01770  0.26080  0.40050  1.0000 0.1203543559
H   H142      1.0  0.86720  0.76770  0.25690  1.0000 0.1203543559
H   H143      1.0  0.51080  0.61030  0.74310  1.0000 0.1203543559
H   H144      1.0  0.86030  0.61720  0.59950  1.0000 0.1203543559
H   H145      1.0  0.42280  0.69240  0.18120  1.0000 0.1111724425
H   H146      1.0  0.49160  0.17280  0.23040  1.0000 0.1111724425
H   H147      1.0  0.94240  0.26120  0.76960  1.0000 0.1111724425
H   H148      1.0  0.51120  0.24160  0.81880  1.0000 0.1111724425
H   H149      1.0  0.82720  0.05760  0.31880  1.0000 0.1111724425
H   H150      1.0  0.75840  0.57720  0.26960  1.0000 0.1111724425
H   H151      1.0  0.30760  0.48880  0.73040  1.0000 0.1111724425
H   H152      1.0  0.73880  0.50840  0.68120  1.0000 0.1111724425
H   H153      1.0  0.46020  0.73230  0.11210  1.0000 0.1387359252
H   H154      1.0  0.59810  0.21020  0.22790  1.0000 0.1387359252
H   H155      1.0  0.98230  0.37020  0.77210  1.0000 0.1387359252
H   H156      1.0  0.62020  0.34810  0.88790  1.0000 0.1387359252
H   H157      1.0  0.78980  0.01770  0.38790  1.0000 0.1387359252
H   H158      1.0  0.65190  0.53980  0.27210  1.0000 0.1387359252
H   H159      1.0  0.26770  0.37980  0.72790  1.0000 0.1387359252
H   H160      1.0  0.62980  0.40190  0.61210  1.0000 0.1387359252
H   H161      1.0  0.38190  0.78980  0.11690  1.0000 0.1387359252
H   H162      1.0  0.51500  0.13190  0.09210  1.0000 0.1387359252
H   H163      1.0  0.03980  0.42290  0.90790  1.0000 0.1387359252
H   H164      1.0  0.67290  0.26500  0.88310  1.0000 0.1387359252
H   H165      1.0  0.86810  0.96020  0.38310  1.0000 0.1387359252
H   H166      1.0  0.73500  0.61810  0.40790  1.0000 0.1387359252
H   H167      1.0  0.21020  0.32710  0.59210  1.0000 0.1387359252
H   H168      1.0  0.57710  0.48500  0.61690  1.0000 0.1387359252
H   H169      1.0  0.34530  0.74640  0.18290  1.0000 0.1111724425
H   H170      1.0  0.41240  0.09530  0.09890  1.0000 0.1111724425
H   H171      1.0  0.99640  0.31350  0.90110  1.0000 0.1111724425
H   H172      1.0  0.56350  0.16240  0.81710  1.0000 0.1111724425
H   H173      1.0  0.90470  0.00360  0.31710  1.0000 0.1111724425
H   H174      1.0  0.83760  0.65470  0.40110  1.0000 0.1111724425
H   H175      1.0  0.25360  0.43650  0.59890  1.0000 0.1111724425
H   H176      1.0  0.68650  0.58760  0.68290  1.0000 0.1111724425
H   H177      1.0  0.48370  0.86330  0.07520  1.0000 0.129380077
H   H178      1.0  0.65850  0.23370  0.12040  1.0000 0.129380077
H   H179      1.0  0.11330  0.53810  0.87960  1.0000 0.129380077
H   H180      1.0  0.78810  0.40850  0.92480  1.0000 0.129380077
H   H181      1.0  0.76630  0.88670  0.42480  1.0000 0.129380077
H   H182      1.0  0.59150  0.51630  0.37960  1.0000 0.129380077
H   H183      1.0  0.13670  0.21190  0.62040  1.0000 0.129380077
H   H184      1.0  0.46190  0.34150  0.57520  1.0000 0.129380077
H   H185      1.0  0.41720  0.77270  0.04210  1.0000 0.129380077
H   H186      1.0  0.62510  0.16720  0.14450  1.0000 0.1203543559
H   H187      1.0  0.02270  0.48060  0.85550  1.0000 0.1203543559
H   H188      1.0  0.73060  0.37510  0.95790  1.0000 0.1203543559
H   H189      1.0  0.83280  0.97730  0.45790  1.0000 0.129380077
H   H190      1.0  0.62490  0.58280  0.35550  1.0000 0.1203543559
H   H191      1.0  0.22730  0.26940  0.64450  1.0000 0.129380077
H   H192      1.0  0.51940  0.37490  0.54210  1.0000 0.1203543559
H   H193      1.0  0.22420  0.27730  0.46570  1.0000 0.129380077
H   H194      1.0  0.00850  0.97420  0.44690  1.0000 0.129380077
H   H195      1.0  0.52730  0.56160  0.55310  1.0000 0.129380077
H   H196      1.0  0.81160  0.75850  0.53430  1.0000 0.129380077
H   H197      1.0  0.02580  0.47270  0.03430  1.0000 0.129380077
H   H198      1.0  0.24150  0.77580  0.05310  1.0000 0.129380077
H   H199      1.0  0.72270  0.18840  0.94690  1.0000 0.129380077
H   H200      1.0  0.43840  0.99150  0.96570  1.0000 0.129380077
H   H201      1.0  0.30260  0.36420  0.54020  1.0000 0.10220655
H   H202      1.0  0.01240  0.05260  0.43840  1.0000 0.10220655
H   H203      1.0  0.61420  0.57400  0.56160  1.0000 0.10220655
H   H204      1.0  0.82400  0.76240  0.45980  1.0000 0.10220655
H   H205      1.0  0.94740  0.38580  0.95980  1.0000 0.10220655
H   H206      1.0  0.23760  0.69740  0.06160  1.0000 0.10220655
H   H207      1.0  0.63580  0.17600  0.93840  1.0000 0.10220655
H   H208      1.0  0.42600  0.98760  0.04020  1.0000 0.10220655
H   H209      1.0  0.38610  0.49980  0.55610  1.0000 0.1203543559
H   H210      1.0  0.08000  0.13610  0.38630  1.0000 0.1203543559
H   H211      1.0  0.74980  0.69370  0.61370  1.0000 0.1203543559
H   H212      1.0  0.94370  0.83000  0.44390  1.0000 0.1203543559
H   H213      1.0  0.86390  0.25020  0.94390  1.0000 0.1203543559
H   H214      1.0  0.17000  0.61390  0.11370  1.0000 0.1203543559
H   H215      1.0  0.50020  0.05630  0.88630  1.0000 0.1203543559
H   H216      1.0  0.30630  0.92000  0.05610  1.0000 0.1203543559
H   H217      1.0  0.38700  0.54240  0.49580  1.0000 0.1203543559
H   H218      1.0  0.14120  0.13700  0.34460  1.0000 0.1203543559
H   H219      1.0  0.79240  0.79660  0.65540  1.0000 0.1203543559
H   H220      1.0  0.04660  0.89120  0.50420  1.0000 0.1203543559
H   H221      1.0  0.86300  0.20760  0.00420  1.0000 0.1203543559
H   H222      1.0  0.10880  0.61300  0.15540  1.0000 0.1203543559
H   H223      1.0  0.45760  0.95340  0.84460  1.0000 0.1203543559
H   H224      1.0  0.20340  0.85880  0.99580  1.0000 0.1203543559
H   H225      1.0  0.28780  0.50200  0.25840  1.0000 0.129380077
H   H226      1.0  0.27940  0.03780  0.28580  1.0000 0.129380077
H   H227      1.0  0.75200  0.99360  0.71420  1.0000 0.129380077
H   H228      1.0  0.24360  0.02940  0.74160  1.0000 0.129380077
H   H229      1.0  0.96220  0.24800  0.24160  1.0000 0.129380077
H   H230      1.0  0.97060  0.71220  0.21420  1.0000 0.129380077
H   H231      1.0  0.49800  0.75640  0.78580  1.0000 0.129380077
H   H232      1.0  0.00640  0.72060  0.75840  1.0000 0.129380077
H   H233      1.0  0.21970  0.41200  0.22290  1.0000 0.1387359252
H   H234      1.0  0.24680  0.96970  0.30770  1.0000 0.1387359252
H   H235      1.0  0.66200  0.93910  0.69230  1.0000 0.1387359252
H   H236      1.0  0.18910  0.99680  0.77710  1.0000 0.1387359252
H   H237      1.0  0.03030  0.33800  0.27710  1.0000 0.1387359252
H   H238      1.0  0.00320  0.78030  0.19230  1.0000 0.1387359252
H   H239      1.0  0.58800  0.81090  0.80770  1.0000 0.1387359252
H   H240      1.0  0.06090  0.75320  0.72290  1.0000 0.1387359252
H   H241      1.0  0.39160  0.52200  0.25700  1.0000 0.1203543559
H   H242      1.0  0.38460  0.14160  0.36960  1.0000 0.1203543559
H   H243      1.0  0.77200  0.01500  0.63040  1.0000 0.1203543559
H   H244      1.0  0.26500  0.13460  0.74300  1.0000 0.1203543559
H   H245      1.0  0.85840  0.22800  0.24300  1.0000 0.1203543559
H   H246      1.0  0.86540  0.60840  0.13040  1.0000 0.1203543559
H   H247      1.0  0.47800  0.73500  0.86960  1.0000 0.1203543559
H   H248      1.0  0.98500  0.61540  0.75700  1.0000 0.1203543559
H   H249      1.0  0.37260  0.53610  0.21370  1.0000 0.129380077
H   H250      1.0  0.40890  0.12260  0.33650  1.0000 0.129380077
H   H251      1.0  0.78610  0.07240  0.66350  1.0000 0.129380077
H   H252      1.0  0.32240  0.15890  0.78630  1.0000 0.129380077
H   H253      1.0  0.87740  0.21390  0.28630  1.0000 0.129380077
H   H254      1.0  0.84110  0.62740  0.16350  1.0000 0.129380077
H   H255      1.0  0.46390  0.67760  0.83650  1.0000 0.129380077
H   H256      1.0  0.92760  0.59110  0.71370  1.0000 0.129380077
H   H257      1.0  0.32490  0.44920  0.20910  1.0000 0.129380077
H   H258      1.0  0.36580  0.07490  0.37570  1.0000 0.129380077
H   H259      1.0  0.69920  0.99010  0.62430  1.0000 0.129380077
H   H260      1.0  0.24010  0.11580  0.79090  1.0000 0.129380077
H   H261      1.0  0.92510  0.30080  0.29090  1.0000 0.129380077
H   H262      1.0  0.88420  0.67510  0.12430  1.0000 0.129380077
H   H263      1.0  0.55080  0.75990  0.87570  1.0000 0.129380077
H   H264      1.0  0.00990  0.63420  0.70910  1.0000 0.129380077
H   H265      1.0  0.72020  0.05960  0.00200  1.0000 0.1203543559
H   H266      1.0  0.96820  0.47020  0.16060  1.0000 0.1203543559
H   H267      1.0  0.30960  0.80760  0.83940  1.0000 0.1203543559
H   H268      1.0  0.05760  0.71820  0.99800  1.0000 0.1203543559
H   H269      1.0  0.52980  0.69040  0.49800  1.0000 0.1203543559
H   H270      1.0  0.28180  0.27980  0.33940  1.0000 0.1203543559
H   H271      1.0  0.94040  0.94240  0.66060  1.0000 0.1203543559
H   H272      1.0  0.19240  0.03180  0.50200  1.0000 0.1203543559
H   H273      1.0  0.67270  0.00190  0.06360  1.0000 0.1387359252
H   H274      1.0  0.85910  0.42270  0.17080  1.0000 0.1387359252
H   H275      1.0  0.25190  0.68830  0.82920  1.0000 0.1387359252
H   H276      1.0  0.93830  0.60910  0.93640  1.0000 0.1387359252
H   H277      1.0  0.57730  0.74810  0.43640  1.0000 0.1387359252
H   H278      1.0  0.39090  0.32730  0.32920  1.0000 0.1387359252
H   H279      1.0  0.99810  0.06170  0.67080  1.0000 0.1387359252
H   H280      1.0  0.31170  0.14090  0.56360  1.0000 0.1387359252
H   H281      1.0  0.46050  0.77990  0.96980  1.0000 0.1387359252
H   H282      1.0  0.74070  0.21050  0.18060  1.0000 0.1387359252
H   H283      1.0  0.02990  0.56010  0.81940  1.0000 0.1387359252
H   H284      1.0  0.81010  0.49070  0.03020  1.0000 0.1387359252
H   H285      1.0  0.78950  0.97010  0.53020  1.0000 0.1387359252
H   H286      1.0  0.50930  0.53950  0.31940  1.0000 0.1387359252
H   H287      1.0  0.22010  0.18990  0.68060  1.0000 0.1387359252
H   H288      1.0  0.43990  0.25930  0.46980  1.0000 0.1387359252
H   H289      1.0  0.51480  0.84240  0.91220  1.0000 0.1111724425
H   H290      1.0  0.85260  0.26480  0.17240  1.0000 0.1111724425
H   H291      1.0  0.09240  0.68020  0.82760  1.0000 0.1111724425
H   H292      1.0  0.93020  0.60260  0.08780  1.0000 0.1111724425
H   H293      1.0  0.73520  0.90760  0.58780  1.0000 0.1111724425
H   H294      1.0  0.39740  0.48520  0.32760  1.0000 0.1111724425
H   H295      1.0  0.15760  0.06980  0.67240  1.0000 0.1111724425
H   H296      1.0  0.31980  0.14740  0.41220  1.0000 0.1111724425
H   H297      1.0  0.57490  0.88490  0.09160  1.0000 0.129380077
H   H298      1.0  0.73330  0.32490  0.19000  1.0000 0.129380077
H   H299      1.0  0.13490  0.54330  0.81000  1.0000 0.129380077
H   H300      1.0  0.79330  0.48330  0.90840  1.0000 0.129380077
H   H301      1.0  0.67510  0.86510  0.40840  1.0000 0.129380077
H   H302      1.0  0.51670  0.42510  0.31000  1.0000 0.129380077
H   H303      1.0  0.11510  0.20670  0.69000  1.0000 0.129380077
H   H304      1.0  0.45670  0.26670  0.59160  1.0000 0.129380077
H   H305      1.0  0.50850  0.79550  0.05680  1.0000 0.1203543559
H   H306      1.0  0.70170  0.25850  0.21300  1.0000 0.1203543559
H   H307      1.0  0.04550  0.48870  0.78700  1.0000 0.1203543559
H   H308      1.0  0.73870  0.45170  0.94320  1.0000 0.1203543559
H   H309      1.0  0.74150  0.95450  0.44320  1.0000 0.1203543559
H   H310      1.0  0.54830  0.49150  0.28700  1.0000 0.1203543559
H   H311      1.0  0.20450  0.26130  0.71300  1.0000 0.1203543559
H   H312      1.0  0.51130  0.29830  0.55680  1.0000 0.1203543559
C   C1        1.0  0.51619  0.68869  0.33868  1.0000 0.2916557523
C   C2        1.0  0.42751  0.26619  0.32750  1.0000 0.2916557523
C   C3        1.0  0.93869  0.10001  0.67250  1.0000 0.2916557523
C   C4        1.0  0.35001  0.17751  0.66132  1.0000 0.2916557523
C   C5        1.0  0.73381  0.06131  0.16132  1.0000 0.2916557523
C   C6        1.0  0.82249  0.48381  0.17250  1.0000 0.2916557523
C   C7        1.0  0.31131  0.64999  0.82750  1.0000 0.2916557523
C   C8        1.0  0.89999  0.57249  0.83868  1.0000 0.2916557523
C   C9        1.0  0.58150  0.71360  0.33990  1.0000 -0.2206224258
C   C10       1.0  0.49160  0.33150  0.36790  1.0000 -0.2206224258
C   C11       1.0  0.96360  0.12370  0.63210  1.0000 -0.2206224258
C   C12       1.0  0.37370  0.24160  0.66010  1.0000 -0.2206224258
C   C13       1.0  0.66850  0.03640  0.16010  1.0000 -0.2206224258
C   C14       1.0  0.75840  0.41850  0.13210  1.0000 -0.2206224258
C   C15       1.0  0.28640  0.62630  0.86790  1.0000 -0.2206224258
C   C16       1.0  0.87630  0.50840  0.83990  1.0000 -0.2206224258
C   C17       1.0  0.63570  0.76340  0.31470  1.0000 -0.0609827443
C   C18       1.0  0.57100  0.38570  0.37230  1.0000 -0.0609827443
C   C19       1.0  0.01340  0.19870  0.62770  1.0000 -0.0609827443
C   C20       1.0  0.44870  0.32100  0.68530  1.0000 -0.0609827443
C   C21       1.0  0.61430  0.98660  0.18530  1.0000 -0.0609827443
C   C22       1.0  0.67900  0.36430  0.12770  1.0000 -0.0609827443
C   C23       1.0  0.23660  0.55130  0.87230  1.0000 -0.0609827443
C   C24       1.0  0.80130  0.42900  0.81470  1.0000 -0.0609827443
C   C25       1.0  0.63310  0.79530  0.28780  1.0000 -0.1584152473
C   C26       1.0  0.59530  0.38310  0.33780  1.0000 -0.1584152473
C   C27       1.0  0.04530  0.25750  0.66220  1.0000 -0.1584152473
C   C28       1.0  0.50750  0.34530  0.71220  1.0000 -0.1584152473
C   C29       1.0  0.61690  0.95470  0.21220  1.0000 -0.1584152473
C   C30       1.0  0.65470  0.36690  0.16220  1.0000 -0.1584152473
C   C31       1.0  0.20470  0.49250  0.83780  1.0000 -0.1584152473
C   C32       1.0  0.74250  0.40470  0.78780  1.0000 -0.1584152473
C   C33       1.0  0.56710  0.77130  0.28500  1.0000 -0.0904577957
C   C34       1.0  0.53210  0.31710  0.29580  1.0000 -0.0904577957
C   C35       1.0  0.02130  0.23630  0.70420  1.0000 -0.0904577957
C   C36       1.0  0.48630  0.28210  0.71500  1.0000 -0.0904577957
C   C37       1.0  0.68290  0.97870  0.21500  1.0000 -0.0904577957
C   C38       1.0  0.71790  0.43290  0.20420  1.0000 -0.0904577957
C   C39       1.0  0.22870  0.51370  0.79580  1.0000 -0.0904577957
C   C40       1.0  0.76370  0.46790  0.78500  1.0000 -0.0904577957
C   C41       1.0  0.50800  0.71607  0.30847  1.0000 -0.1495775828
C   C42       1.0  0.44953  0.25800  0.29193  1.0000 -0.1495775828
C   C43       1.0  0.96607  0.15760  0.70807  1.0000 -0.1495775828
C   C44       1.0  0.40760  0.19953  0.69153  1.0000 -0.1495775828
C   C45       1.0  0.74200  0.03393  0.19153  1.0000 -0.1495775828
C   C46       1.0  0.80047  0.49200  0.20807  1.0000 -0.1495775828
C   C47       1.0  0.28393  0.59240  0.79193  1.0000 -0.1495775828
C   C48       1.0  0.84240  0.55047  0.80847  1.0000 -0.1495775828
C   C49       1.0  0.44041  0.69164  0.30065  1.0000 0.4398207172
C   C50       1.0  0.38976  0.19041  0.24877  1.0000 0.4398207172
C   C51       1.0  0.94164  0.14099  0.75123  1.0000 0.4398207172
C   C52       1.0  0.39099  0.13976  0.69935  1.0000 0.4398207172
C   C53       1.0  0.80959  0.05836  0.19935  1.0000 0.4398207172
C   C54       1.0  0.86024  0.55959  0.25123  1.0000 0.4398207172
C   C55       1.0  0.30836  0.60901  0.74877  1.0000 0.4398207172
C   C56       1.0  0.85901  0.61024  0.80065  1.0000 0.4398207172
C   C57       1.0  0.26554  0.56972  0.33566  1.0000 0.4570496188
C   C58       1.0  0.17988  0.01554  0.19582  1.0000 0.4570496188
C   C59       1.0  0.81972  0.98406  0.80418  1.0000 0.4570496188
C   C60       1.0  0.23406  0.92988  0.66434  1.0000 0.4570496188
C   C61       1.0  0.98446  0.18028  0.16434  1.0000 0.4570496188
C   C62       1.0  0.07012  0.73446  0.30418  1.0000 0.4570496188
C   C63       1.0  0.43028  0.76594  0.69582  1.0000 0.4570496188
C   C64       1.0  0.01594  0.82012  0.83566  1.0000 0.4570496188
C   C65       1.0  0.19183  0.53894  0.32757  1.0000 -0.2487803204
C   C66       1.0  0.11426  0.94183  0.15289  1.0000 -0.2487803204
C   C67       1.0  0.78894  0.96137  0.84711  1.0000 -0.2410560452
C   C68       1.0  0.21137  0.86426  0.67243  1.0000 -0.2410560452
C   C69       1.0  0.05817  0.21106  0.17243  1.0000 -0.2410560452
C   C70       1.0  0.13574  0.80817  0.34711  1.0000 -0.2410560452
C   C71       1.0  0.46106  0.78863  0.65289  1.0000 -0.2410560452
C   C72       1.0  0.03863  0.88574  0.82757  1.0000 -0.2410560452
C   C73       1.0  0.15010  0.50870  0.36460  1.0000 -0.3288678423
C   C74       1.0  0.03550  0.90010  0.14140  1.0000 -0.3288678423
C   C75       1.0  0.75870  0.89410  0.85860  1.0000 -0.3288678423
C   C76       1.0  0.14410  0.78550  0.63540  1.0000 -0.3288678423
C   C77       1.0  0.09990  0.24130  0.13540  1.0000 -0.3288678423
C   C78       1.0  0.21450  0.84990  0.35860  1.0000 -0.3288678423
C   C79       1.0  0.49130  0.85590  0.64140  1.0000 -0.3288678423
C   C80       1.0  0.10590  0.96450  0.86460  1.0000 -0.3288678423
C   C81       1.0  0.31891  0.74297  0.27888  1.0000 0.3096081907
C   C82       1.0  0.29003  0.06891  0.07594  1.0000 0.3096081907
C   C83       1.0  0.99297  0.21409  0.92406  1.0000 0.3096081907
C   C84       1.0  0.46409  0.04003  0.72112  1.0000 0.3096081907
C   C85       1.0  0.93109  0.00703  0.22112  1.0000 0.3096081907
C   C86       1.0  0.95997  0.68109  0.42406  1.0000 0.3096081907
C   C87       1.0  0.25703  0.53591  0.57594  1.0000 0.3096081907
C   C88       1.0  0.78591  0.70997  0.77888  1.0000 0.3096081907
C   C89       1.0  0.35958  0.81510  0.30428  1.0000 -0.2206224258
C   C90       1.0  0.30530  0.10958  0.04448  1.0000 -0.2206224258
C   C91       1.0  0.06510  0.26082  0.95552  1.0000 -0.2206224258
C   C92       1.0  0.51082  0.05530  0.69572  1.0000 -0.2206224258
C   C93       1.0  0.89042  0.93490  0.19572  1.0000 -0.2206224258
C   C94       1.0  0.94470  0.64042  0.45552  1.0000 -0.2206224258
C   C95       1.0  0.18490  0.48918  0.54448  1.0000 -0.2206224258
C   C96       1.0  0.73918  0.69470  0.80428  1.0000 -0.2206224258
C   C97       1.0  0.32249  0.82491  0.30480  1.0000 -0.0609827443
C   C98       1.0  0.26769  0.07249  0.99758  1.0000 -0.0609827443
C   C99       1.0  0.07491  0.27011  0.00242  1.0000 -0.0609827443
C   C100      1.0  0.52011  0.01769  0.69520  1.0000 -0.0609827443
C   C101      1.0  0.92751  0.92509  0.19520  1.0000 -0.0609827443
C   C102      1.0  0.98231  0.67751  0.50242  1.0000 -0.0609827443
C   C103      1.0  0.17509  0.47989  0.49758  1.0000 -0.0609827443
C   C104      1.0  0.72989  0.73231  0.80480  1.0000 -0.0609827443
C   C105      1.0  0.23971  0.75994  0.27945  1.0000 -0.1277665166
C   C106      1.0  0.21026  0.98971  0.97977  1.0000 -0.1277665166
C   C107      1.0  0.00994  0.23049  0.02023  1.0000 -0.1277665166
C   C108      1.0  0.48049  0.96026  0.72055  1.0000 -0.1277665166
C   C109      1.0  0.01029  0.99006  0.22055  1.0000 -0.1277665166
C   C110      1.0  0.03974  0.76029  0.52023  1.0000 -0.1277665166
C   C111      1.0  0.24006  0.51951  0.47977  1.0000 -0.1277665166
C   C112      1.0  0.76951  0.78974  0.77945  1.0000 -0.1277665166
C   C113      1.0  0.19719  0.68699  0.25518  1.0000 -0.0708653187
C   C114      1.0  0.19201  0.94719  0.01020  1.0000 -0.0708653187
C   C115      1.0  0.93699  0.18181  0.98980  1.0000 -0.0708653187
C   C116      1.0  0.43181  0.94201  0.74482  1.0000 -0.0708653187
C   C117      1.0  0.05281  0.06301  0.24482  1.0000 -0.0708653187
C   C118      1.0  0.05799  0.80281  0.48980  1.0000 -0.0708653187
C   C119      1.0  0.31301  0.56819  0.51020  1.0000 -0.0708653187
C   C120      1.0  0.81819  0.80799  0.75518  1.0000 -0.0708653187
C   C121      1.0  0.23281  0.67645  0.25266  1.0000 -0.1439701399
C   C122      1.0  0.23015  0.98281  0.05636  1.0000 -0.1439701399
C   C123      1.0  0.92645  0.17379  0.94364  1.0000 -0.1439701399
C   C124      1.0  0.42379  0.98015  0.74734  1.0000 -0.1439701399
C   C125      1.0  0.01719  0.07355  0.24734  1.0000 -0.1439701399
C   C126      1.0  0.01985  0.76719  0.44364  1.0000 -0.1439701399
C   C127      1.0  0.32355  0.57621  0.55636  1.0000 -0.1439701399
C   C128      1.0  0.82621  0.76985  0.75266  1.0000 -0.1439701399
C   C129      1.0  0.18455  0.59844  0.22339  1.0000 0.4398207172
C   C130      1.0  0.21116  0.93455  0.08611  1.0000 0.4398207172
C   C131      1.0  0.84844  0.12505  0.91389  1.0000 0.4398207172
C   C132      1.0  0.37505  0.96116  0.77661  1.0000 0.4398207172
C   C133      1.0  0.06545  0.15156  0.27661  1.0000 0.4398207172
C   C134      1.0  0.03884  0.81545  0.41389  1.0000 0.4398207172
C   C135      1.0  0.40156  0.62495  0.58611  1.0000 0.4398207172
C   C136      1.0  0.87495  0.78884  0.72339  1.0000 0.4398207172
C   C137      1.0  0.20721  0.51010  0.18371  1.0000 0.4340984853
C   C138      1.0  0.27350  0.95721  0.19711  1.0000 0.4398207172
C   C139      1.0  0.76010  0.07639  0.80289  1.0000 0.4340984853
C   C140      1.0  0.32639  0.02350  0.81629  1.0000 0.4340984853
C   C141      1.0  0.04279  0.23990  0.31629  1.0000 0.4340984853
C   C142      1.0  0.97650  0.79279  0.30289  1.0000 0.4340984853
C   C143      1.0  0.48990  0.67361  0.69711  1.0000 0.4340984853
C   C144      1.0  0.92361  0.72650  0.68371  1.0000 0.4340984853
C   C145      1.0  0.16609  0.43769  0.14758  1.0000 -0.2410560452
C   C146      1.0  0.26851  0.91609  0.22840  1.0000 -0.2410560452
C   C147      1.0  0.68769  0.04011  0.77160  1.0000 -0.2410560452
C   C148      1.0  0.29011  0.01851  0.85242  1.0000 -0.2410560452
C   C149      1.0  0.08391  0.31231  0.35242  1.0000 -0.2410560452
C   C150      1.0  0.98149  0.83391  0.27160  1.0000 -0.2410560452
C   C151      1.0  0.56231  0.70989  0.72840  1.0000 -0.2410560452
C   C152      1.0  0.95989  0.73149  0.64758  1.0000 -0.2410560452
C   C153      1.0  0.22250  0.46180  0.12250  1.0000 -0.3288678423
C   C154      1.0  0.35000  0.97250  0.26070  1.0000 -0.3288678423
C   C155      1.0  0.71180  0.08930  0.73930  1.0000 -0.3288678423
C   C156      1.0  0.33930  0.10000  0.87750  1.0000 -0.3288678423
C   C157      1.0  0.02750  0.28820  0.37750  1.0000 -0.3288678423
C   C158      1.0  0.90000  0.77750  0.23930  1.0000 -0.3288678423
C   C159      1.0  0.53820  0.66070  0.76070  1.0000 -0.3288678423
C   C160      1.0  0.91070  0.65000  0.62250  1.0000 -0.3288678423
C   C161      1.0  0.41530  0.71430  0.16840  1.0000 0.10220655
C   C162      1.0  0.49690  0.16530  0.20100  1.0000 0.10220655
C   C163      1.0  0.96430  0.29590  0.79900  1.0000 0.10220655
C   C164      1.0  0.54590  0.24690  0.83160  1.0000 0.10220655
C   C165      1.0  0.83470  0.03570  0.33160  1.0000 0.10220655
C   C166      1.0  0.75310  0.58470  0.29900  1.0000 0.10220655
C   C167      1.0  0.28570  0.45410  0.70100  1.0000 0.10220655
C   C168      1.0  0.70410  0.50310  0.66840  1.0000 0.10220655
C   C169      1.0  0.44050  0.74010  0.12820  1.0000 -0.2487803204
C   C170      1.0  0.56230  0.19050  0.20040  1.0000 -0.2487803204
C   C171      1.0  0.99010  0.36190  0.79960  1.0000 -0.2487803204
C   C172      1.0  0.61190  0.31230  0.87180  1.0000 -0.2487803204
C   C173      1.0  0.80950  0.00990  0.37180  1.0000 -0.2487803204
C   C174      1.0  0.68770  0.55950  0.29960  1.0000 -0.2487803204
C   C175      1.0  0.25990  0.38810  0.70040  1.0000 -0.2487803204
C   C176      1.0  0.63810  0.43770  0.62820  1.0000 -0.2487803204
C   C177      1.0  0.43430  0.77870  0.11340  1.0000 0.1387359252
C   C178      1.0  0.57090  0.18430  0.15560  1.0000 0.1387359252
C   C179      1.0  0.02870  0.41530  0.84440  1.0000 0.1387359252
C   C180      1.0  0.66530  0.32090  0.88660  1.0000 0.1387359252
C   C181      1.0  0.81570  0.97130  0.38660  1.0000 0.1387359252
C   C182      1.0  0.67910  0.56570  0.34440  1.0000 0.1387359252
C   C183      1.0  0.22130  0.33470  0.65560  1.0000 0.1387359252
C   C184      1.0  0.58470  0.42910  0.61340  1.0000 0.1387359252
C   C185      1.0  0.39600  0.77400  0.13040  1.0000 -0.1932139928
C   C186      1.0  0.51560  0.14600  0.12200  1.0000 -0.1932139928
C   C187      1.0  0.02400  0.39360  0.87800  1.0000 -0.1932139928
C   C188      1.0  0.64360  0.26560  0.86960  1.0000 -0.1932139928
C   C189      1.0  0.85400  0.97600  0.36960  1.0000 -0.1932139928
C   C190      1.0  0.73440  0.60400  0.37800  1.0000 -0.1932139928
C   C191      1.0  0.22600  0.35640  0.62200  1.0000 -0.1932139928
C   C192      1.0  0.60640  0.48440  0.63040  1.0000 -0.1932139928
C   C193      1.0  0.37220  0.74550  0.16950  1.0000 0.0743870208
C   C194      1.0  0.45270  0.12220  0.12670  1.0000 0.0743870208
C   C195      1.0  0.99550  0.32600  0.87330  1.0000 0.0743870208
C   C196      1.0  0.57600  0.20270  0.83050  1.0000 0.0743870208
C   C197      1.0  0.87780  0.00450  0.33050  1.0000 0.0743870208
C   C198      1.0  0.79730  0.62780  0.37330  1.0000 0.0743870208
C   C199      1.0  0.25450  0.42400  0.62670  1.0000 0.0743870208
C   C200      1.0  0.67400  0.54730  0.66950  1.0000 0.0743870208
C   C201      1.0  0.46520  0.81610  0.07030  1.0000 -0.2092551087
C   C202      1.0  0.64490  0.21520  0.14910  1.0000 -0.2092551087
C   C203      1.0  0.06610  0.49580  0.85090  1.0000 -0.2092551087
C   C204      1.0  0.74580  0.39490  0.92970  1.0000 -0.2092551087
C   C205      1.0  0.78480  0.93390  0.42970  1.0000 -0.2092551087
C   C206      1.0  0.60510  0.53480  0.35090  1.0000 -0.2092551087
C   C207      1.0  0.18390  0.25420  0.64910  1.0000 -0.2092551087
C   C208      1.0  0.50420  0.35510  0.57030  1.0000 -0.2092551087
C   C209      1.0  0.25928  0.35680  0.43428  1.0000 0.2916557523
C   C210      1.0  0.07500  0.00928  0.40248  1.0000 0.2916557523
C   C211      1.0  0.60680  0.67252  0.59752  1.0000 0.2916557523
C   C212      1.0  0.92252  0.82500  0.56572  1.0000 0.2916557523
C   C213      1.0  0.99072  0.39320  0.06572  1.0000 0.2916557523
C   C214      1.0  0.17500  0.74072  0.09752  1.0000 0.2916557523
C   C215      1.0  0.64320  0.07748  0.90248  1.0000 0.2916557523
C   C216      1.0  0.32748  0.92500  0.93428  1.0000 0.2916557523
C   C217      1.0  0.25819  0.33204  0.47123  1.0000 -0.2092551087
C   C218      1.0  0.03696  0.00819  0.42615  1.0000 -0.2092551087
C   C219      1.0  0.58204  0.61081  0.57385  1.0000 -0.2092551087
C   C220      1.0  0.86081  0.78696  0.52877  1.0000 -0.2092551087
C   C221      1.0  0.99181  0.41796  0.02877  1.0000 -0.2092551087
C   C222      1.0  0.21304  0.74181  0.07385  1.0000 -0.2092551087
C   C223      1.0  0.66796  0.13919  0.92615  1.0000 -0.2092551087
C   C224      1.0  0.38919  0.96304  0.97123  1.0000 -0.2092551087
C   C225      1.0  0.30417  0.38324  0.51561  1.0000 -0.0812782427
C   C226      1.0  0.03856  0.05417  0.42093  1.0000 -0.0812782427
C   C227      1.0  0.63324  0.61763  0.57907  1.0000 -0.0812782427
C   C228      1.0  0.86763  0.78856  0.48439  1.0000 -0.0812782427
C   C229      1.0  0.94583  0.36676  0.98439  1.0000 -0.0812782427
C   C230      1.0  0.21144  0.69583  0.07907  1.0000 -0.0812782427
C   C231      1.0  0.61676  0.13237  0.92093  1.0000 -0.0812782427
C   C232      1.0  0.38237  0.96144  0.01561  1.0000 -0.0812782427
C   C233      1.0  0.35371  0.46357  0.52528  1.0000 -0.1277665166
C   C234      1.0  0.07843  0.10371  0.39014  1.0000 -0.1277665166
C   C235      1.0  0.71357  0.68829  0.60986  1.0000 -0.1277665166
C   C236      1.0  0.93829  0.82843  0.47472  1.0000 -0.1277665166
C   C237      1.0  0.89629  0.28643  0.97472  1.0000 -0.1277665166
C   C238      1.0  0.17157  0.64629  0.10986  1.0000 -0.1277665166
C   C239      1.0  0.53643  0.06171  0.89014  1.0000 -0.1277665166
C   C240      1.0  0.31171  0.92157  0.02528  1.0000 -0.1277665166
C   C241      1.0  0.35404  0.48809  0.48933  1.0000 -0.0904577957
C   C242      1.0  0.11471  0.10404  0.36595  1.0000 -0.0904577957
C   C243      1.0  0.73809  0.74876  0.63405  1.0000 -0.0904577957
C   C244      1.0  0.99876  0.86471  0.51067  1.0000 -0.0904577957
C   C245      1.0  0.89596  0.26191  0.01067  1.0000 -0.0904577957
C   C246      1.0  0.13529  0.64596  0.13405  1.0000 -0.0904577957
C   C247      1.0  0.51191  0.00124  0.86595  1.0000 -0.0904577957
C   C248      1.0  0.25124  0.88529  0.98933  1.0000 -0.0904577957
C   C249      1.0  0.30868  0.43823  0.44311  1.0000 -0.1495775828
C   C250      1.0  0.11557  0.05868  0.37045  1.0000 -0.1495775828
C   C251      1.0  0.68823  0.74512  0.62955  1.0000 -0.1495775828
C   C252      1.0  0.99512  0.86557  0.55689  1.0000 -0.1495775828
C   C253      1.0  0.94132  0.31177  0.05689  1.0000 -0.1495775828
C   C254      1.0  0.13443  0.69132  0.12955  1.0000 -0.1495775828
C   C255      1.0  0.56177  0.00488  0.87045  1.0000 -0.1495775828
C   C256      1.0  0.25488  0.88443  0.94311  1.0000 -0.1495775828
C   C257      1.0  0.31456  0.47086  0.40702  1.0000 0.424387935
C   C258      1.0  0.15754  0.06456  0.34370  1.0000 0.424387935
C   C259      1.0  0.72086  0.81384  0.65630  1.0000 0.424387935
C   C260      1.0  0.06384  0.90754  0.59298  1.0000 0.424387935
C   C261      1.0  0.93544  0.27914  0.09298  1.0000 0.424387935
C   C262      1.0  0.09246  0.68544  0.15630  1.0000 0.424387935
C   C263      1.0  0.52914  0.93616  0.84370  1.0000 0.424387935
C   C264      1.0  0.18616  0.84246  0.90702  1.0000 0.424387935
C   C265      1.0  0.26043  0.42435  0.28858  1.0000 0.4398207172
C   C266      1.0  0.22185  0.01043  0.33608  1.0000 0.4398207172
C   C267      1.0  0.67435  0.88577  0.66392  1.0000 0.4398207172
C   C268      1.0  0.13577  0.97185  0.71142  1.0000 0.4398207172
C   C269      1.0  0.98957  0.32565  0.21142  1.0000 0.4398207172
C   C270      1.0  0.02815  0.73957  0.16392  1.0000 0.4398207172
C   C271      1.0  0.57565  0.86423  0.83608  1.0000 0.4398207172
C   C272      1.0  0.11423  0.77815  0.78858  1.0000 0.4398207172
C   C273      1.0  0.27228  0.45720  0.24848  1.0000 -0.2830132736
C   C274      1.0  0.27380  0.02228  0.31508  1.0000 -0.2830132736
C   C275      1.0  0.70720  0.95872  0.68492  1.0000 -0.2830132736
C   C276      1.0  0.20872  0.02380  0.75152  1.0000 -0.2830132736
C   C277      1.0  0.97772  0.29280  0.25152  1.0000 -0.2830132736
C   C278      1.0  0.97620  0.72772  0.18492  1.0000 -0.2830132736
C   C279      1.0  0.54280  0.79128  0.81508  1.0000 -0.2830132736
C   C280      1.0  0.04128  0.72620  0.74848  1.0000 -0.2830132736
C   C281      1.0  0.34820  0.49500  0.23020  1.0000 -0.3487221734
C   C282      1.0  0.36800  0.09820  0.35320  1.0000 -0.3487221734
C   C283      1.0  0.74500  0.01480  0.64680  1.0000 -0.3487221734
C   C284      1.0  0.26480  0.11800  0.76980  1.0000 -0.3487221734
C   C285      1.0  0.90180  0.25500  0.26980  1.0000 -0.3487221734
C   C286      1.0  0.88200  0.65180  0.14680  1.0000 -0.3487221734
C   C287      1.0  0.50500  0.73520  0.85320  1.0000 -0.3487221734
C   C288      1.0  0.98520  0.63200  0.73020  1.0000 -0.3487221734
C   C289      1.0  0.66683  0.00101  0.99544  1.0000 0.1111724425
C   C290      1.0  0.92139  0.41683  0.16582  1.0000 0.1111724425
C   C291      1.0  0.25101  0.75557  0.83418  1.0000 0.1111724425
C   C292      1.0  0.00557  0.67139  0.00456  1.0000 0.1111724425
C   C293      1.0  0.58317  0.74899  0.50456  1.0000 0.1111724425
C   C294      1.0  0.32861  0.33317  0.33418  1.0000 0.1111724425
C   C295      1.0  0.99899  0.99443  0.66582  1.0000 0.1111724425
C   C296      1.0  0.24443  0.07861  0.49544  1.0000 0.1111724425
C   C297      1.0  0.63870  0.96720  0.03250  1.0000 -0.2092551087
C   C298      1.0  0.85620  0.38870  0.17150  1.0000 -0.2092551087
C   C299      1.0  0.21720  0.68470  0.82850  1.0000 -0.2092551087
C   C300      1.0  0.93470  0.60620  0.96750  1.0000 -0.2092551087
C   C301      1.0  0.61130  0.78280  0.46750  1.0000 -0.2092551087
C   C302      1.0  0.39380  0.36130  0.32850  1.0000 -0.2092551087
C   C303      1.0  0.03280  0.06530  0.67150  1.0000 -0.2092551087
C   C304      1.0  0.31530  0.14380  0.53250  1.0000 -0.2092551087
C   C305      1.0  0.55930  0.88130  0.02360  1.0000 0.1613413201
C   C306      1.0  0.78570  0.30930  0.17800  1.0000 0.1613413201
C   C307      1.0  0.13130  0.60770  0.82200  1.0000 0.1613413201
C   C308      1.0  0.85770  0.53570  0.97640  1.0000 0.1613413201
C   C309      1.0  0.69070  0.86870  0.47640  1.0000 0.1613413201
C   C310      1.0  0.46430  0.44070  0.32200  1.0000 0.1613413201
C   C311      1.0  0.11870  0.14230  0.67800  1.0000 0.1613413201
C   C312      1.0  0.39230  0.21430  0.52360  1.0000 0.1613413201
C   C313      1.0  0.51540  0.83810  0.97770  1.0000 -0.1962285627
C   C314      1.0  0.78770  0.26540  0.17730  1.0000 -0.1962285627
C   C315      1.0  0.08810  0.61040  0.82270  1.0000 -0.1962285627
C   C316      1.0  0.86040  0.53770  0.02230  1.0000 -0.1932139928
C   C317      1.0  0.73460  0.91190  0.52230  1.0000 -0.1962285627
C   C318      1.0  0.46230  0.48460  0.32270  1.0000 -0.1962285627
C   C319      1.0  0.16190  0.13960  0.67730  1.0000 -0.1962285627
C   C320      1.0  0.38960  0.21230  0.47770  1.0000 -0.1962285627
C   C321      1.0  0.54772  0.87543  0.94355  1.0000 0.0634017917
C   C322      1.0  0.85417  0.29772  0.17229  1.0000 0.0634017917
C   C323      1.0  0.12543  0.68188  0.82771  1.0000 0.0634017917
C   C324      1.0  0.93188  0.60417  0.05645  1.0000 0.0634017917
C   C325      1.0  0.70228  0.87457  0.55645  1.0000 0.0634017917
C   C326      1.0  0.39583  0.45228  0.32771  1.0000 0.0634017917
C   C327      1.0  0.12457  0.06812  0.67229  1.0000 0.0634017917
C   C328      1.0  0.31812  0.14583  0.44355  1.0000 0.0634017917
C   C329      1.0  0.52780  0.84320  0.06280  1.0000 -0.2317966117
C   C330      1.0  0.71500  0.27780  0.18460  1.0000 -0.2317966117
C   C331      1.0  0.09320  0.53040  0.81540  1.0000 -0.2317966117
C   C332      1.0  0.78040  0.46500  0.93720  1.0000 -0.2317966117
C   C333      1.0  0.72220  0.90680  0.43720  1.0000 -0.2317966117
C   C334      1.0  0.53500  0.47220  0.31540  1.0000 -0.2317966117
C   C335      1.0  0.15680  0.21960  0.68460  1.0000 -0.2317966117
C   C336      1.0  0.46960  0.28500  0.56280  1.0000 -0.2317966117
N   N1        1.0  0.38204  0.63871  0.32275  1.0000 -0.3487221734
N   N2        1.0  0.30929  0.13204  0.24333  1.0000 -0.3487221734
N   N3        1.0  0.88871  0.06596  0.75667  1.0000 -0.3487221734
N   N4        1.0  0.31596  0.05929  0.67725  1.0000 -0.3487221734
N   N5        1.0  0.86796  0.11129  0.17725  1.0000 -0.3487221734
N   N6        1.0  0.94071  0.61796  0.25667  1.0000 -0.3487221734
N   N7        1.0  0.36129  0.68404  0.74333  1.0000 -0.3487221734
N   N8        1.0  0.93404  0.69071  0.82275  1.0000 -0.3487221734
N   N9        1.0  0.31752  0.61668  0.31120  1.0000 -0.3288678423
N   N10       1.0  0.25632  0.06752  0.20084  1.0000 -0.3288678423
N   N11       1.0  0.86668  0.05548  0.79916  1.0000 -0.3288678423
N   N12       1.0  0.30548  0.00632  0.68880  1.0000 -0.3288678423
N   N13       1.0  0.93248  0.13332  0.18880  1.0000 -0.3288678423
N   N14       1.0  0.99368  0.68248  0.29916  1.0000 -0.3288678423
N   N15       1.0  0.38332  0.69452  0.70084  1.0000 -0.3288678423
N   N16       1.0  0.94452  0.74368  0.81120  1.0000 -0.3288678423
N   N17       1.0  0.22046  0.58924  0.21770  1.0000 -0.3364276769
N   N18       1.0  0.25276  0.97046  0.13122  1.0000 -0.3364276769
N   N19       1.0  0.83924  0.12154  0.86878  1.0000 -0.3288678423
N   N20       1.0  0.37154  0.00276  0.78230  1.0000 -0.3364276769
N   N21       1.0  0.02954  0.16076  0.28230  1.0000 -0.3364276769
N   N22       1.0  0.99724  0.77954  0.36878  1.0000 -0.3364276769
N   N23       1.0  0.41076  0.62846  0.63122  1.0000 -0.3364276769
N   N24       1.0  0.87846  0.74724  0.71770  1.0000 -0.3364276769
N   N25       1.0  0.16960  0.51562  0.18462  1.0000 -0.2977669505
N   N26       1.0  0.23498  0.91960  0.15398  1.0000 -0.2977669505
N   N27       1.0  0.76562  0.08100  0.84602  1.0000 -0.2977669505
N   N28       1.0  0.33100  0.98498  0.81538  1.0000 -0.2977669505
N   N29       1.0  0.08040  0.23438  0.31538  1.0000 -0.2977669505
N   N30       1.0  0.01502  0.83040  0.34602  1.0000 -0.2977669505
N   N31       1.0  0.48438  0.66900  0.65398  1.0000 -0.2977669505
N   N32       1.0  0.91900  0.76502  0.68462  1.0000 -0.2977669505
N   N33       1.0  0.38284  0.71859  0.18883  1.0000 -0.2092551087
N   N34       1.0  0.44401  0.13284  0.16425  1.0000 -0.2092551087
N   N35       1.0  0.96859  0.27976  0.83575  1.0000 -0.2092551087
N   N36       1.0  0.52976  0.19401  0.81117  1.0000 -0.2092551087
N   N37       1.0  0.86716  0.03141  0.31117  1.0000 -0.2092551087
N   N38       1.0  0.80599  0.61716  0.33575  1.0000 -0.2092551087
N   N39       1.0  0.28141  0.47024  0.66425  1.0000 -0.2092551087
N   N40       1.0  0.72024  0.55599  0.68883  1.0000 -0.2092551087
N   N41       1.0  0.27737  0.42716  0.36273  1.0000 -0.3288678423
N   N42       1.0  0.16464  0.02737  0.35021  1.0000 -0.3288678423
N   N43       1.0  0.67716  0.81443  0.64979  1.0000 -0.3288678423
N   N44       1.0  0.06443  0.91464  0.63727  1.0000 -0.3288678423
N   N45       1.0  0.97263  0.32284  0.13727  1.0000 -0.3288678423
N   N46       1.0  0.08536  0.72263  0.14979  1.0000 -0.3288678423
N   N47       1.0  0.57284  0.93557  0.85021  1.0000 -0.3288678423
N   N48       1.0  0.18557  0.83536  0.86273  1.0000 -0.3288678423
N   N49       1.0  0.29048  0.46684  0.33092  1.0000 -0.3231538502
N   N50       1.0  0.20956  0.04048  0.32364  1.0000 -0.3231538502
N   N51       1.0  0.71684  0.88592  0.67636  1.0000 -0.3231538502
N   N52       1.0  0.13592  0.95956  0.66908  1.0000 -0.3231538502
N   N53       1.0  0.95952  0.28316  0.16908  1.0000 -0.3231538502
N   N54       1.0  0.04044  0.70952  0.17636  1.0000 -0.3231538502
N   N55       1.0  0.53316  0.86408  0.82364  1.0000 -0.3231538502
N   N56       1.0  0.11408  0.79044  0.83092  1.0000 -0.3231538502
N   N57       1.0  0.62471  0.95753  0.95184  1.0000 -0.2206224258
N   N58       1.0  0.92287  0.37471  0.16718  1.0000 -0.2206224258
N   N59       1.0  0.20753  0.75569  0.83282  1.0000 -0.2206224258
N   N60       1.0  0.00569  0.67287  0.04816  1.0000 -0.2206224258
N   N61       1.0  0.62529  0.79247  0.54816  1.0000 -0.2206224258
N   N62       1.0  0.32713  0.37529  0.33282  1.0000 -0.2206224258
N   N63       1.0  0.04247  0.99431  0.66718  1.0000 -0.2206224258
N   N64       1.0  0.24431  0.07713  0.45184  1.0000 -0.2206224258
O   O1        1.0  0.46857  0.64383  0.36660  1.0000 -0.4891233475
O   O2        1.0  0.35197  0.21857  0.32474  1.0000 -0.4891233475
O   O3        1.0  0.89383  0.02723  0.67526  1.0000 -0.4891233475
O   O4        1.0  0.27723  0.10197  0.63340  1.0000 -0.4891233475
O   O5        1.0  0.78143  0.10617  0.13340  1.0000 -0.4891233475
O   O6        1.0  0.89803  0.53143  0.17526  1.0000 -0.4891233475
O   O7        1.0  0.35617  0.72277  0.82474  1.0000 -0.4891233475
O   O8        1.0  0.97277  0.64803  0.86660  1.0000 -0.4891233475
O   O9        1.0  0.43680  0.71807  0.27227  1.0000 -0.4657274155
O   O10       1.0  0.41453  0.18680  0.21873  1.0000 -0.4657274155
O   O11       1.0  0.96807  0.19580  0.78127  1.0000 -0.4610658041
O   O12       1.0  0.44580  0.16453  0.72773  1.0000 -0.4657274155
O   O13       1.0  0.81320  0.03193  0.22773  1.0000 -0.4657274155
O   O14       1.0  0.83547  0.56320  0.28127  1.0000 -0.4610658041
O   O15       1.0  0.28193  0.55420  0.71873  1.0000 -0.4657274155
O   O16       1.0  0.80420  0.58547  0.77227  1.0000 -0.4657274155
O   O17       1.0  0.27483  0.54925  0.36668  1.0000 -0.4980033493
O   O18       1.0  0.15815  0.02483  0.22558  1.0000 -0.4980033493
O   O19       1.0  0.79925  0.93257  0.77442  1.0000 -0.4980033493
O   O20       1.0  0.18257  0.90815  0.63332  1.0000 -0.4980033493
O   O21       1.0  0.97517  0.20075  0.13332  1.0000 -0.4980033493
O   O22       1.0  0.09185  0.72517  0.27442  1.0000 -0.4980033493
O   O23       1.0  0.45075  0.81743  0.72558  1.0000 -0.4980033493
O   O24       1.0  0.06743  0.84185  0.86668  1.0000 -0.4980033493
O   O25       1.0  0.36115  0.74135  0.27910  1.0000 -0.4610658041
O   O26       1.0  0.33205  0.11115  0.11980  1.0000 -0.4610658041
O   O27       1.0  0.99135  0.21225  0.88020  1.0000 -0.4610658041
O   O28       1.0  0.46225  0.08205  0.72090  1.0000 -0.4610658041
O   O29       1.0  0.88885  0.00865  0.22090  1.0000 -0.4610658041
O   O30       1.0  0.91795  0.63885  0.38020  1.0000 -0.4610658041
O   O31       1.0  0.25865  0.53775  0.61980  1.0000 -0.4610658041
O   O32       1.0  0.78775  0.66795  0.77910  1.0000 -0.4610658041
O   O33       1.0  0.10750  0.54067  0.20177  1.0000 -0.4610658041
O   O34       1.0  0.15573  0.85750  0.06683  1.0000 -0.4610658041
O   O35       1.0  0.79067  0.08890  0.93317  1.0000 -0.4610658041
O   O36       1.0  0.33890  0.90573  0.79823  1.0000 -0.4610658041
O   O37       1.0  0.14250  0.20933  0.29823  1.0000 -0.4610658041
O   O38       1.0  0.09427  0.89250  0.43317  1.0000 -0.4610658041
O   O39       1.0  0.45933  0.66110  0.56683  1.0000 -0.4610658041
O   O40       1.0  0.91110  0.84427  0.70177  1.0000 -0.4610658041
O   O41       1.0  0.28216  0.56564  0.21000  1.0000 -0.4891233475
O   O42       1.0  0.32216  0.03216  0.21652  1.0000 -0.4891233475
O   O43       1.0  0.81564  0.10564  0.78348  1.0000 -0.4891233475
O   O44       1.0  0.35564  0.07216  0.79000  1.0000 -0.4891233475
O   O45       1.0  0.96784  0.18436  0.29000  1.0000 -0.4891233475
O   O46       1.0  0.92784  0.71784  0.28348  1.0000 -0.4891233475
O   O47       1.0  0.43436  0.64436  0.71652  1.0000 -0.4891233475
O   O48       1.0  0.89436  0.67784  0.71000  1.0000 -0.4891233475
O   O49       1.0  0.21259  0.30276  0.39175  1.0000 -0.4795446279
O   O50       1.0  0.07084  0.96259  0.40983  1.0000 -0.4795446279
O   O51       1.0  0.55276  0.66101  0.59017  1.0000 -0.4795446279
O   O52       1.0  0.91101  0.82084  0.60825  1.0000 -0.4795446279
O   O53       1.0  0.03741  0.44724  0.10825  1.0000 -0.4795446279
O   O54       1.0  0.17916  0.78741  0.09017  1.0000 -0.4795446279
O   O55       1.0  0.69724  0.08899  0.90983  1.0000 -0.4795446279
O   O56       1.0  0.33899  0.92916  0.89175  1.0000 -0.4795446279
O   O57       1.0  0.35573  0.54284  0.41877  1.0000 -0.4891233475
O   O58       1.0  0.18696  0.10573  0.31289  1.0000 -0.4795446279
O   O59       1.0  0.79284  0.87407  0.68711  1.0000 -0.4795446279
O   O60       1.0  0.12407  0.93696  0.58123  1.0000 -0.4891233475
O   O61       1.0  0.89427  0.20716  0.08123  1.0000 -0.4795446279
O   O62       1.0  0.06304  0.64427  0.18711  1.0000 -0.4891233475
O   O63       1.0  0.45716  0.87593  0.81289  1.0000 -0.4795446279
O   O64       1.0  0.12593  0.81304  0.91877  1.0000 -0.4795446279
O   O65       1.0  0.22224  0.35355  0.27899  1.0000 -0.4795446279
O   O66       1.0  0.19325  0.97224  0.36869  1.0000 -0.4795446279
O   O67       1.0  0.60355  0.82456  0.63131  1.0000 -0.4795446279
O   O68       1.0  0.07456  0.94325  0.72101  1.0000 -0.4795446279
O   O69       1.0  0.02776  0.39645  0.22101  1.0000 -0.4795446279
O   O70       1.0  0.05675  0.77776  0.13131  1.0000 -0.4795446279
O   O71       1.0  0.64645  0.92544  0.86869  1.0000 -0.4795446279
O   O72       1.0  0.17544  0.80675  0.77899  1.0000 -0.4795446279
