# DDEC6 charges by PACMAN v1.1 (https://github.com/mtap-research/PACMAN-charge/)
data_2005[Zn][pcu]3[ASR]9
_chemical_formula_sum              "Zn8 H24 C48 O26"
_cell_length_a       18.3127
_cell_length_b       18.3127
_cell_length_c       18.3127
_cell_angle_alpha    60
_cell_angle_beta     60
_cell_angle_gamma    60

_symmetry_space_group_name_H-M    "P 1"
_symmetry_Int_Tables_number       1

loop_
  _symmetry_equiv_pos_as_xyz
  'x, y, z'

loop_
  _atom_site_type_symbol
  _atom_site_label
  _atom_site_symmetry_multiplicity
  _atom_site_fract_x
  _atom_site_fract_y
  _atom_site_fract_z
  _atom_site_occupancy
  _atom_site_charge
Zn  Zn1       1.0  0.20666  0.20666  0.38001  1.0000 0.9529082714
Zn  Zn2       1.0  0.38001  0.20666  0.20666  1.0000 0.95628464
Zn  Zn3       1.0  0.20666  0.38001  0.20666  1.0000 0.95628464
Zn  Zn4       1.0  0.79334  0.79334  0.79334  1.0000 0.9529082714
Zn  Zn5       1.0  0.61999  0.79334  0.79334  1.0000 0.9529082714
Zn  Zn6       1.0  0.79334  0.61999  0.79334  1.0000 0.9529082714
Zn  Zn7       1.0  0.79334  0.79334  0.61999  1.0000 0.9529082714
Zn  Zn8       1.0  0.20666  0.20666  0.20666  1.0000 0.95628464
H   H1        1.0  0.34380  0.04520  0.56580  1.0000 0.1256132775
H   H2        1.0  0.56580  0.34380  0.04520  1.0000 0.1256132775
H   H3        1.0  0.04520  0.56580  0.34380  1.0000 0.1256132775
H   H4        1.0  0.65620  0.95480  0.95480  1.0000 0.1256132775
H   H5        1.0  0.43420  0.95480  0.95480  1.0000 0.1256132775
H   H6        1.0  0.95480  0.43420  0.65620  1.0000 0.1256132775
H   H7        1.0  0.43420  0.65620  0.95480  1.0000 0.1256132775
H   H8        1.0  0.95480  0.95480  0.43420  1.0000 0.1256132775
H   H9        1.0  0.95480  0.95480  0.65620  1.0000 0.1256132775
H   H10       1.0  0.95480  0.43420  0.95480  1.0000 0.1256132775
H   H11       1.0  0.65620  0.95480  0.43420  1.0000 0.1256132775
H   H12       1.0  0.95480  0.65620  0.95480  1.0000 0.1256132775
H   H13       1.0  0.04520  0.34380  0.04520  1.0000 0.1256132775
H   H14       1.0  0.56580  0.04520  0.34380  1.0000 0.1256132775
H   H15       1.0  0.04520  0.56580  0.04520  1.0000 0.1256132775
H   H16       1.0  0.04520  0.04520  0.34380  1.0000 0.1256132775
H   H17       1.0  0.34380  0.56580  0.04520  1.0000 0.1256132775
H   H18       1.0  0.04520  0.04520  0.56580  1.0000 0.1256132775
H   H19       1.0  0.34380  0.04520  0.04520  1.0000 0.1256132775
H   H20       1.0  0.04520  0.34380  0.56580  1.0000 0.1256132775
H   H21       1.0  0.56580  0.04520  0.04520  1.0000 0.1256132775
H   H22       1.0  0.95480  0.65620  0.43420  1.0000 0.1256132775
H   H23       1.0  0.65620  0.43420  0.95480  1.0000 0.1256132775
H   H24       1.0  0.43420  0.95480  0.65620  1.0000 0.1256132775
C   C1        1.0  0.38858  0.11142  0.38858  1.0000 0.5980087993
C   C2        1.0  0.38858  0.38858  0.11142  1.0000 0.5980087993
C   C3        1.0  0.11142  0.38858  0.38858  1.0000 0.5980087993
C   C4        1.0  0.61142  0.88858  0.88858  1.0000 0.5980087993
C   C5        1.0  0.88858  0.61142  0.61142  1.0000 0.5980087993
C   C6        1.0  0.61142  0.61142  0.88858  1.0000 0.5980087993
C   C7        1.0  0.88858  0.88858  0.61142  1.0000 0.5980087993
C   C8        1.0  0.88858  0.61142  0.88858  1.0000 0.5980087993
C   C9        1.0  0.61142  0.88858  0.61142  1.0000 0.5980087993
C   C10       1.0  0.11142  0.38858  0.11142  1.0000 0.5980087993
C   C11       1.0  0.11142  0.11142  0.38858  1.0000 0.5980087993
C   C12       1.0  0.38858  0.11142  0.11142  1.0000 0.5980087993
C   C13       1.0  0.44619  0.05381  0.44619  1.0000 -0.0372270225
C   C14       1.0  0.44619  0.44619  0.05381  1.0000 -0.0349288878
C   C15       1.0  0.05381  0.44619  0.44619  1.0000 -0.0372270225
C   C16       1.0  0.55381  0.94619  0.94619  1.0000 -0.0372270225
C   C17       1.0  0.94619  0.55381  0.55381  1.0000 -0.0349288878
C   C18       1.0  0.55381  0.55381  0.94619  1.0000 -0.0372270225
C   C19       1.0  0.94619  0.94619  0.55381  1.0000 -0.0349288878
C   C20       1.0  0.94619  0.55381  0.94619  1.0000 -0.0349288878
C   C21       1.0  0.55381  0.94619  0.55381  1.0000 -0.0349288878
C   C22       1.0  0.05381  0.44619  0.05381  1.0000 -0.0349288878
C   C23       1.0  0.05381  0.05381  0.44619  1.0000 -0.0372270225
C   C24       1.0  0.44619  0.05381  0.05381  1.0000 -0.0372270225
C   C25       1.0  0.40694  0.02688  0.53930  1.0000 -0.0938924434
C   C26       1.0  0.53930  0.40694  0.02688  1.0000 -0.0956185921
C   C27       1.0  0.02688  0.53930  0.40694  1.0000 -0.0938924434
C   C28       1.0  0.59306  0.97312  0.97312  1.0000 -0.0938924434
C   C29       1.0  0.46070  0.97312  0.97312  1.0000 -0.0938924434
C   C30       1.0  0.97312  0.46070  0.59306  1.0000 -0.0938924434
C   C31       1.0  0.46070  0.59306  0.97312  1.0000 -0.0938924434
C   C32       1.0  0.97312  0.97312  0.46070  1.0000 -0.0956185921
C   C33       1.0  0.97312  0.97312  0.59306  1.0000 -0.0938924434
C   C34       1.0  0.97312  0.46070  0.97312  1.0000 -0.0938924434
C   C35       1.0  0.59306  0.97312  0.46070  1.0000 -0.0956185921
C   C36       1.0  0.97312  0.59306  0.97312  1.0000 -0.0956185921
C   C37       1.0  0.02688  0.40694  0.02688  1.0000 -0.0956185921
C   C38       1.0  0.53930  0.02688  0.40694  1.0000 -0.0938924434
C   C39       1.0  0.02688  0.53930  0.02688  1.0000 -0.0956185921
C   C40       1.0  0.02688  0.02688  0.40694  1.0000 -0.0938924434
C   C41       1.0  0.40694  0.53930  0.02688  1.0000 -0.0956185921
C   C42       1.0  0.02688  0.02688  0.53930  1.0000 -0.0938924434
C   C43       1.0  0.40694  0.02688  0.02688  1.0000 -0.0938924434
C   C44       1.0  0.02688  0.40694  0.53930  1.0000 -0.0956185921
C   C45       1.0  0.53930  0.02688  0.02688  1.0000 -0.0938924434
C   C46       1.0  0.97312  0.59306  0.46070  1.0000 -0.0956185921
C   C47       1.0  0.59306  0.46070  0.97312  1.0000 -0.0938924434
C   C48       1.0  0.46070  0.97312  0.59306  1.0000 -0.0938924434
O   O1        1.0  0.25000  0.25000  0.25000  1.0000 -1.0399608435
O   O2        1.0  0.75000  0.75000  0.75000  1.0000 -1.0399608435
O   O3        1.0  0.30489  0.13369  0.42773  1.0000 -0.5432059986
O   O4        1.0  0.42773  0.30489  0.13369  1.0000 -0.5432059986
O   O5        1.0  0.13369  0.42773  0.30489  1.0000 -0.5450274768
O   O6        1.0  0.69511  0.86631  0.86631  1.0000 -0.5432059986
O   O7        1.0  0.57227  0.86631  0.86631  1.0000 -0.5432059986
O   O8        1.0  0.86631  0.57227  0.69511  1.0000 -0.5432059986
O   O9        1.0  0.57227  0.69511  0.86631  1.0000 -0.5432059986
O   O10       1.0  0.86631  0.86631  0.57227  1.0000 -0.5432059986
O   O11       1.0  0.86631  0.86631  0.69511  1.0000 -0.5432059986
O   O12       1.0  0.86631  0.57227  0.86631  1.0000 -0.5432059986
O   O13       1.0  0.69511  0.86631  0.57227  1.0000 -0.5432059986
O   O14       1.0  0.86631  0.69511  0.86631  1.0000 -0.5432059986
O   O15       1.0  0.13369  0.30489  0.13369  1.0000 -0.5432059986
O   O16       1.0  0.42773  0.13369  0.30489  1.0000 -0.5450274768
O   O17       1.0  0.13369  0.42773  0.13369  1.0000 -0.5432059986
O   O18       1.0  0.13369  0.13369  0.30489  1.0000 -0.5450274768
O   O19       1.0  0.30489  0.42773  0.13369  1.0000 -0.5432059986
O   O20       1.0  0.13369  0.13369  0.42773  1.0000 -0.5432059986
O   O21       1.0  0.30489  0.13369  0.13369  1.0000 -0.5432059986
O   O22       1.0  0.13369  0.30489  0.42773  1.0000 -0.5432059986
O   O23       1.0  0.42773  0.13369  0.13369  1.0000 -0.5432059986
O   O24       1.0  0.86631  0.69511  0.57227  1.0000 -0.5432059986
O   O25       1.0  0.69511  0.57227  0.86631  1.0000 -0.5432059986
O   O26       1.0  0.57227  0.86631  0.69511  1.0000 -0.5432059986
