# DDEC6 charges by PACMAN v1.1 (https://github.com/mtap-research/PACMAN-charge/)
data_2005[Co][dia]3[ASR]2
_chemical_formula_sum              "Co12 H24 C24 O48"
_cell_length_a       11.247
_cell_length_b       9.8119
_cell_length_c       18.103
_cell_angle_alpha    90
_cell_angle_beta     127.245
_cell_angle_gamma    90

_symmetry_space_group_name_H-M    "P 1"
_symmetry_Int_Tables_number       1

loop_
  _symmetry_equiv_pos_as_xyz
  'x, y, z'

loop_
  _atom_site_type_symbol
  _atom_site_label
  _atom_site_symmetry_multiplicity
  _atom_site_fract_x
  _atom_site_fract_y
  _atom_site_fract_z
  _atom_site_occupancy
  _atom_site_charge
Co  Co1       1.0  0.62207  0.92027  0.86696  1.0000 0.9644852127
Co  Co2       1.0  0.37793  0.42027  0.63304  1.0000 0.9644852127
Co  Co3       1.0  0.37793  0.07973  0.13304  1.0000 0.9653726067
Co  Co4       1.0  0.62207  0.57973  0.36696  1.0000 0.9644852127
Co  Co5       1.0  0.57092  0.89038  0.31114  1.0000 0.9516436901
Co  Co6       1.0  0.42908  0.39038  0.18886  1.0000 0.9516436901
Co  Co7       1.0  0.42908  0.10962  0.68886  1.0000 0.9516436901
Co  Co8       1.0  0.57092  0.60962  0.81114  1.0000 0.9516436901
Co  Co9       1.0  0.50000  0.00000  0.00000  1.0000 0.991546695
Co  Co10      1.0  0.50000  0.50000  0.50000  1.0000 0.991546695
Co  Co11      1.0  0.00000  0.00000  0.00000  1.0000 0.9960311498
Co  Co12      1.0  0.00000  0.50000  0.50000  1.0000 0.991546695
H   H1        1.0  0.49700  0.75600  0.63200  1.0000 0.0917453998
H   H2        1.0  0.50300  0.25600  0.86800  1.0000 0.0917453998
H   H3        1.0  0.50300  0.24400  0.36800  1.0000 0.0917453998
H   H4        1.0  0.49700  0.74400  0.13200  1.0000 0.0917453998
H   H5        1.0  0.21100  0.03500  0.73400  1.0000 0.103036284
H   H6        1.0  0.78900  0.53500  0.76600  1.0000 0.103036284
H   H7        1.0  0.78900  0.96500  0.26600  1.0000 0.103036284
H   H8        1.0  0.21100  0.46500  0.23400  1.0000 0.103036284
H   H9        1.0  0.51700  0.61700  0.96200  1.0000 0.0917453998
H   H10       1.0  0.48300  0.11700  0.53800  1.0000 0.0917453998
H   H11       1.0  0.48300  0.38300  0.03800  1.0000 0.0917453998
H   H12       1.0  0.51700  0.88300  0.46200  1.0000 0.0917453998
H   H13       1.0  0.98200  0.70500  0.99300  1.0000 0.103036284
H   H14       1.0  0.01800  0.20500  0.50700  1.0000 0.103036284
H   H15       1.0  0.01800  0.29500  0.00700  1.0000 0.103036284
H   H16       1.0  0.98200  0.79500  0.49300  1.0000 0.103036284
H   H17       1.0  0.76600  0.16100  0.07100  1.0000 0.0917453998
H   H18       1.0  0.23400  0.66100  0.42900  1.0000 0.0917453998
H   H19       1.0  0.23400  0.83900  0.92900  1.0000 0.0917453998
H   H20       1.0  0.76600  0.33900  0.57100  1.0000 0.0917453998
H   H21       1.0  0.75000  0.19300  0.76200  1.0000 0.0697138901
H   H22       1.0  0.25000  0.69300  0.73800  1.0000 0.0697138901
H   H23       1.0  0.25000  0.80700  0.23800  1.0000 0.0697138901
H   H24       1.0  0.75000  0.30700  0.26200  1.0000 0.0697138901
C   C1        1.0  0.50150  0.82690  0.66990  1.0000 0.4933105554
C   C2        1.0  0.49850  0.32690  0.83010  1.0000 0.4933105554
C   C3        1.0  0.49850  0.17310  0.33010  1.0000 0.4933105554
C   C4        1.0  0.50150  0.67310  0.16990  1.0000 0.4933105554
C   C5        1.0  0.30380  0.01210  0.78760  1.0000 0.4767763334
C   C6        1.0  0.69620  0.51210  0.71240  1.0000 0.4767763334
C   C7        1.0  0.69620  0.98790  0.21240  1.0000 0.4767763334
C   C8        1.0  0.30380  0.48790  0.28760  1.0000 0.4767763334
C   C9        1.0  0.52960  0.71070  0.95350  1.0000 0.4767763334
C   C10       1.0  0.47040  0.21070  0.54650  1.0000 0.4721697178
C   C11       1.0  0.47040  0.28930  0.04650  1.0000 0.4767763334
C   C12       1.0  0.52960  0.78930  0.45350  1.0000 0.4767763334
C   C13       1.0  0.76740  0.12890  0.81230  1.0000 0.4721697178
C   C14       1.0  0.23260  0.62890  0.68770  1.0000 0.4721697178
C   C15       1.0  0.23260  0.87110  0.18770  1.0000 0.4721697178
C   C16       1.0  0.76740  0.37110  0.31230  1.0000 0.4721697178
C   C17       1.0  0.77310  0.10790  0.03010  1.0000 0.4933105554
C   C18       1.0  0.22690  0.60790  0.46990  1.0000 0.4933105554
C   C19       1.0  0.22690  0.89210  0.96990  1.0000 0.4933105554
C   C20       1.0  0.77310  0.39210  0.53010  1.0000 0.4933105554
C   C21       1.0  0.87890  0.72120  0.95110  1.0000 0.4977580752
C   C22       1.0  0.12110  0.22120  0.54890  1.0000 0.4977580752
C   C23       1.0  0.12110  0.27880  0.04890  1.0000 0.4977580752
C   C24       1.0  0.87890  0.77880  0.45110  1.0000 0.4977580752
O   O1        1.0  0.56430  0.79902  0.75501  1.0000 -0.5595310521
O   O2        1.0  0.43570  0.29902  0.74499  1.0000 -0.5595310521
O   O3        1.0  0.43570  0.20098  0.24499  1.0000 -0.5595310521
O   O4        1.0  0.56430  0.70098  0.25501  1.0000 -0.5595310521
O   O5        1.0  0.44880  0.93930  0.63190  1.0000 -0.5013472109
O   O6        1.0  0.55120  0.43930  0.86810  1.0000 -0.5013472109
O   O7        1.0  0.55120  0.06070  0.36810  1.0000 -0.5013472109
O   O8        1.0  0.44880  0.56070  0.13190  1.0000 -0.5013472109
O   O9        1.0  0.40880  0.00394  0.78019  1.0000 -0.5595310521
O   O10       1.0  0.59120  0.50394  0.71981  1.0000 -0.5595310521
O   O11       1.0  0.59120  0.99606  0.21981  1.0000 -0.5595310521
O   O12       1.0  0.40880  0.49606  0.28019  1.0000 -0.5595310521
O   O13       1.0  0.31620  0.99470  0.85940  1.0000 -0.5013472109
O   O14       1.0  0.68380  0.49470  0.64060  1.0000 -0.5013472109
O   O15       1.0  0.68380  0.00530  0.14060  1.0000 -0.5013472109
O   O16       1.0  0.31620  0.50530  0.35940  1.0000 -0.5013472109
O   O17       1.0  0.54450  0.74220  0.89160  1.0000 -0.5595310521
O   O18       1.0  0.45550  0.24220  0.60840  1.0000 -0.5595310521
O   O19       1.0  0.45550  0.25780  0.10840  1.0000 -0.5595310521
O   O20       1.0  0.54450  0.75780  0.39160  1.0000 -0.5595310521
O   O21       1.0  0.52080  0.79070  0.00291  1.0000 -0.5052892038
O   O22       1.0  0.47920  0.29070  0.49709  1.0000 -0.5013472109
O   O23       1.0  0.47920  0.20930  0.99709  1.0000 -0.5052892038
O   O24       1.0  0.52080  0.70930  0.50291  1.0000 -0.5052892038
O   O25       1.0  0.65480  0.08370  0.80469  1.0000 -0.5595310521
O   O26       1.0  0.34520  0.58370  0.69531  1.0000 -0.5595310521
O   O27       1.0  0.34520  0.91630  0.19531  1.0000 -0.5595310521
O   O28       1.0  0.65480  0.41630  0.30469  1.0000 -0.5595310521
O   O29       1.0  0.89980  0.10420  0.87583  1.0000 -0.4921832536
O   O30       1.0  0.10020  0.60420  0.62417  1.0000 -0.4921832536
O   O31       1.0  0.10020  0.89580  0.12417  1.0000 -0.4921832536
O   O32       1.0  0.89980  0.39580  0.37583  1.0000 -0.4921832536
O   O33       1.0  0.66100  0.02770  0.97656  1.0000 -0.5736551289
O   O34       1.0  0.33900  0.52770  0.52344  1.0000 -0.5736551289
O   O35       1.0  0.33900  0.97230  0.02344  1.0000 -0.5736551289
O   O36       1.0  0.66100  0.47230  0.47656  1.0000 -0.5736551289
O   O37       1.0  0.88470  0.11640  0.03330  1.0000 -0.5052892038
O   O38       1.0  0.11530  0.61640  0.46670  1.0000 -0.5052892038
O   O39       1.0  0.11530  0.88360  0.96670  1.0000 -0.5052892038
O   O40       1.0  0.88470  0.38360  0.53330  1.0000 -0.5052892038
O   O41       1.0  0.83720  0.84500  0.94012  1.0000 -0.5513940011
O   O42       1.0  0.16280  0.34500  0.55988  1.0000 -0.5513940011
O   O43       1.0  0.16280  0.15500  0.05988  1.0000 -0.5513940011
O   O44       1.0  0.83720  0.65500  0.44012  1.0000 -0.5513940011
O   O45       1.0  0.79680  0.62090  0.91009  1.0000 -0.5013472109
O   O46       1.0  0.20320  0.12090  0.58991  1.0000 -0.5013472109
O   O47       1.0  0.20320  0.37910  0.08991  1.0000 -0.5013472109
O   O48       1.0  0.79680  0.87910  0.41009  1.0000 -0.5013472109
