# DDEC6 charges by PACMAN v1.1 (https://github.com/mtap-research/PACMAN-charge/)
data_2005[Zn][srs]3[ASR]4
_chemical_formula_sum              "Zn24 H192 C288 I48 N96"
_cell_length_a       13.8219
_cell_length_b       28.519
_cell_length_c       44.097
_cell_angle_alpha    90
_cell_angle_beta     90
_cell_angle_gamma    90

_symmetry_space_group_name_H-M    "P 1"
_symmetry_Int_Tables_number       1

loop_
  _symmetry_equiv_pos_as_xyz
  'x, y, z'

loop_
  _atom_site_type_symbol
  _atom_site_label
  _atom_site_symmetry_multiplicity
  _atom_site_fract_x
  _atom_site_fract_y
  _atom_site_fract_z
  _atom_site_occupancy
  _atom_site_charge
Zn  Zn1       1.0  0.87228  0.04950  0.40498  1.0000 0.4506258681
Zn  Zn2       1.0  0.12772  0.45050  0.90498  1.0000 0.4506258681
Zn  Zn3       1.0  0.37228  0.95050  0.09502  1.0000 0.4506258681
Zn  Zn4       1.0  0.62772  0.54950  0.59502  1.0000 0.4506258681
Zn  Zn5       1.0  0.80157  0.23548  0.67356  1.0000 0.462661834
Zn  Zn6       1.0  0.19843  0.26452  0.17356  1.0000 0.462661834
Zn  Zn7       1.0  0.30157  0.76452  0.82644  1.0000 0.462661834
Zn  Zn8       1.0  0.69843  0.73548  0.32644  1.0000 0.462661834
Zn  Zn9       1.0  0.60843  0.01788  0.59110  1.0000 0.4654419958
Zn  Zn10      1.0  0.39157  0.48212  0.09110  1.0000 0.4654419958
Zn  Zn11      1.0  0.10843  0.98212  0.90890  1.0000 0.4654419958
Zn  Zn12      1.0  0.89157  0.51788  0.40890  1.0000 0.4654419958
Zn  Zn13      1.0  0.12772  0.95050  0.59502  1.0000 0.4506258681
Zn  Zn14      1.0  0.87228  0.54950  0.09502  1.0000 0.4506258681
Zn  Zn15      1.0  0.62772  0.04950  0.90498  1.0000 0.4506258681
Zn  Zn16      1.0  0.37228  0.45050  0.40498  1.0000 0.4506258681
Zn  Zn17      1.0  0.19843  0.76452  0.32644  1.0000 0.462661834
Zn  Zn18      1.0  0.80157  0.73548  0.82644  1.0000 0.462661834
Zn  Zn19      1.0  0.69843  0.23548  0.17356  1.0000 0.462661834
Zn  Zn20      1.0  0.30157  0.26452  0.67356  1.0000 0.462661834
Zn  Zn21      1.0  0.39157  0.98212  0.40890  1.0000 0.4654419958
Zn  Zn22      1.0  0.60843  0.51788  0.90890  1.0000 0.4654419958
Zn  Zn23      1.0  0.89157  0.01788  0.09110  1.0000 0.4654419958
Zn  Zn24      1.0  0.10843  0.48212  0.59110  1.0000 0.4654419958
H   H1        1.0  0.05620  0.03220  0.43770  1.0000 0.1090546267
H   H2        1.0  0.94380  0.46780  0.93770  1.0000 0.1090546267
H   H3        1.0  0.55620  0.96780  0.06230  1.0000 0.1090546267
H   H4        1.0  0.44380  0.53220  0.56230  1.0000 0.1090546267
H   H5        1.0  0.12860  0.04780  0.48370  1.0000 0.130988365
H   H6        1.0  0.87140  0.45220  0.98370  1.0000 0.130988365
H   H7        1.0  0.62860  0.95220  0.01630  1.0000 0.130988365
H   H8        1.0  0.37140  0.54780  0.51630  1.0000 0.130988365
H   H9        1.0  0.86350  0.08150  0.51690  1.0000 0.1377635217
H   H10       1.0  0.13650  0.41850  0.01690  1.0000 0.1377635217
H   H11       1.0  0.36350  0.91850  0.98310  1.0000 0.1377635217
H   H12       1.0  0.63650  0.58150  0.48310  1.0000 0.1377635217
H   H13       1.0  0.79970  0.06470  0.46980  1.0000 0.1090546267
H   H14       1.0  0.20030  0.43530  0.96980  1.0000 0.1090546267
H   H15       1.0  0.29970  0.93530  0.03020  1.0000 0.1090546267
H   H16       1.0  0.70030  0.56470  0.53020  1.0000 0.1090546267
H   H17       1.0  0.31200  0.04180  0.52820  1.0000 0.130988365
H   H18       1.0  0.68800  0.45820  0.02820  1.0000 0.130988365
H   H19       1.0  0.81200  0.95820  0.97180  1.0000 0.130988365
H   H20       1.0  0.18800  0.54180  0.47180  1.0000 0.130988365
H   H21       1.0  0.47100  0.02050  0.53930  1.0000 0.1090546267
H   H22       1.0  0.52900  0.47950  0.03930  1.0000 0.1090546267
H   H23       1.0  0.97100  0.97950  0.96070  1.0000 0.1090546267
H   H24       1.0  0.02900  0.52050  0.46070  1.0000 0.1090546267
H   H25       1.0  0.45340  0.07710  0.61970  1.0000 0.1090546267
H   H26       1.0  0.54660  0.42290  0.11970  1.0000 0.1090546267
H   H27       1.0  0.95340  0.92290  0.88030  1.0000 0.1090546267
H   H28       1.0  0.04660  0.57710  0.38030  1.0000 0.1090546267
H   H29       1.0  0.29550  0.09950  0.61240  1.0000 0.130988365
H   H30       1.0  0.70450  0.40050  0.11240  1.0000 0.130988365
H   H31       1.0  0.79550  0.90050  0.88760  1.0000 0.130988365
H   H32       1.0  0.20450  0.59950  0.38760  1.0000 0.1377635217
H   H33       1.0  0.09950  0.16450  0.62870  1.0000 0.1377635217
H   H34       1.0  0.90050  0.33550  0.12870  1.0000 0.1377635217
H   H35       1.0  0.59950  0.83550  0.87130  1.0000 0.1377635217
H   H36       1.0  0.40050  0.66450  0.37130  1.0000 0.1377635217
H   H37       1.0  0.00930  0.20700  0.66260  1.0000 0.1090546267
H   H38       1.0  0.99070  0.29300  0.16260  1.0000 0.1090546267
H   H39       1.0  0.50930  0.79300  0.83740  1.0000 0.1090546267
H   H40       1.0  0.49070  0.70700  0.33740  1.0000 0.1090546267
H   H41       1.0  0.76800  0.17110  0.62190  1.0000 0.1090546267
H   H42       1.0  0.23200  0.32890  0.12190  1.0000 0.1090546267
H   H43       1.0  0.26800  0.82890  0.87810  1.0000 0.1090546267
H   H44       1.0  0.73200  0.67110  0.37810  1.0000 0.1090546267
H   H45       1.0  0.85350  0.12980  0.58520  1.0000 0.130988365
H   H46       1.0  0.14650  0.37020  0.08520  1.0000 0.130988365
H   H47       1.0  0.35350  0.87020  0.91480  1.0000 0.130988365
H   H48       1.0  0.64650  0.62980  0.41480  1.0000 0.130988365
H   H49       1.0  0.13000  0.34110  0.21590  1.0000 0.1169077248
H   H50       1.0  0.87000  0.15890  0.71590  1.0000 0.1169077248
H   H51       1.0  0.63000  0.65890  0.28410  1.0000 0.1169077248
H   H52       1.0  0.37000  0.84110  0.78410  1.0000 0.1169077248
H   H53       1.0  0.07020  0.34940  0.26460  1.0000 0.130988365
H   H54       1.0  0.92980  0.15060  0.76460  1.0000 0.130988365
H   H55       1.0  0.57020  0.65060  0.23540  1.0000 0.130988365
H   H56       1.0  0.42980  0.84940  0.73540  1.0000 0.130988365
H   H57       1.0  0.04030  0.20890  0.26850  1.0000 0.130988365
H   H58       1.0  0.95970  0.29110  0.76850  1.0000 0.130988365
H   H59       1.0  0.54030  0.79110  0.23150  1.0000 0.130988365
H   H60       1.0  0.45970  0.70890  0.73150  1.0000 0.130988365
H   H61       1.0  0.09500  0.20410  0.21870  1.0000 0.1090546267
H   H62       1.0  0.90500  0.29590  0.71870  1.0000 0.1090546267
H   H63       1.0  0.59500  0.79590  0.28130  1.0000 0.1090546267
H   H64       1.0  0.40500  0.70410  0.78130  1.0000 0.1090546267
H   H65       1.0  0.00020  0.41120  0.32590  1.0000 0.130988365
H   H66       1.0  0.99980  0.08880  0.82590  1.0000 0.130988365
H   H67       1.0  0.50020  0.58880  0.17410  1.0000 0.130988365
H   H68       1.0  0.49980  0.91120  0.67410  1.0000 0.130988365
H   H69       1.0  0.96590  0.48090  0.35040  1.0000 0.1090546267
H   H70       1.0  0.03410  0.01910  0.85040  1.0000 0.1090546267
H   H71       1.0  0.46590  0.51910  0.14960  1.0000 0.1090546267
H   H72       1.0  0.53410  0.98090  0.64960  1.0000 0.1090546267
H   H73       1.0  0.90160  0.41440  0.42590  1.0000 0.1090546267
H   H74       1.0  0.09840  0.08560  0.92590  1.0000 0.1090546267
H   H75       1.0  0.40160  0.58560  0.07410  1.0000 0.1090546267
H   H76       1.0  0.59840  0.91440  0.57410  1.0000 0.1090546267
H   H77       1.0  0.93220  0.34200  0.40320  1.0000 0.130988365
H   H78       1.0  0.06780  0.15800  0.90320  1.0000 0.130988365
H   H79       1.0  0.43220  0.65800  0.09680  1.0000 0.130988365
H   H80       1.0  0.56780  0.84200  0.59680  1.0000 0.130988365
H   H81       1.0  0.92860  0.22450  0.40510  1.0000 0.1377635217
H   H82       1.0  0.07140  0.27550  0.90510  1.0000 0.1377635217
H   H83       1.0  0.42860  0.77550  0.09490  1.0000 0.1377635217
H   H84       1.0  0.57140  0.72450  0.59490  1.0000 0.1377635217
H   H85       1.0  0.89200  0.15150  0.42540  1.0000 0.1090546267
H   H86       1.0  0.10800  0.34850  0.92540  1.0000 0.1090546267
H   H87       1.0  0.39200  0.84850  0.07460  1.0000 0.1090546267
H   H88       1.0  0.60800  0.65150  0.57460  1.0000 0.1090546267
H   H89       1.0  0.97640  0.08730  0.35160  1.0000 0.0996623287
H   H90       1.0  0.02360  0.41270  0.85160  1.0000 0.0996623287
H   H91       1.0  0.47640  0.91270  0.14840  1.0000 0.0996623287
H   H92       1.0  0.52360  0.58730  0.64840  1.0000 0.0996623287
H   H93       1.0  0.00630  0.15820  0.32760  1.0000 0.130988365
H   H94       1.0  0.99370  0.34180  0.82760  1.0000 0.130988365
H   H95       1.0  0.50630  0.84180  0.17240  1.0000 0.130988365
H   H96       1.0  0.49370  0.65820  0.67240  1.0000 0.130988365
H   H97       1.0  0.94380  0.96780  0.56230  1.0000 0.1090546267
H   H98       1.0  0.05620  0.53220  0.06230  1.0000 0.1090546267
H   H99       1.0  0.44380  0.03220  0.93770  1.0000 0.1090546267
H   H100      1.0  0.55620  0.46780  0.43770  1.0000 0.1090546267
H   H101      1.0  0.87140  0.95220  0.51630  1.0000 0.130988365
H   H102      1.0  0.12860  0.54780  0.01630  1.0000 0.130988365
H   H103      1.0  0.37140  0.04780  0.98370  1.0000 0.130988365
H   H104      1.0  0.62860  0.45220  0.48370  1.0000 0.130988365
H   H105      1.0  0.13650  0.91850  0.48310  1.0000 0.1377635217
H   H106      1.0  0.86350  0.58150  0.98310  1.0000 0.1377635217
H   H107      1.0  0.63650  0.08150  0.01690  1.0000 0.1377635217
H   H108      1.0  0.36350  0.41850  0.51690  1.0000 0.1377635217
H   H109      1.0  0.20030  0.93530  0.53020  1.0000 0.1090546267
H   H110      1.0  0.79970  0.56470  0.03020  1.0000 0.1090546267
H   H111      1.0  0.70030  0.06470  0.96980  1.0000 0.1090546267
H   H112      1.0  0.29970  0.43530  0.46980  1.0000 0.1090546267
H   H113      1.0  0.68800  0.95820  0.47180  1.0000 0.130988365
H   H114      1.0  0.31200  0.54180  0.97180  1.0000 0.130988365
H   H115      1.0  0.18800  0.04180  0.02820  1.0000 0.130988365
H   H116      1.0  0.81200  0.45820  0.52820  1.0000 0.130988365
H   H117      1.0  0.52900  0.97950  0.46070  1.0000 0.1090546267
H   H118      1.0  0.47100  0.52050  0.96070  1.0000 0.1090546267
H   H119      1.0  0.02900  0.02050  0.03930  1.0000 0.1090546267
H   H120      1.0  0.97100  0.47950  0.53930  1.0000 0.1090546267
H   H121      1.0  0.54660  0.92290  0.38030  1.0000 0.1090546267
H   H122      1.0  0.45340  0.57710  0.88030  1.0000 0.1090546267
H   H123      1.0  0.04660  0.07710  0.11970  1.0000 0.1090546267
H   H124      1.0  0.95340  0.42290  0.61970  1.0000 0.1090546267
H   H125      1.0  0.70450  0.90050  0.38760  1.0000 0.130988365
H   H126      1.0  0.29550  0.59950  0.88760  1.0000 0.1377635217
H   H127      1.0  0.20450  0.09950  0.11240  1.0000 0.130988365
H   H128      1.0  0.79550  0.40050  0.61240  1.0000 0.130988365
H   H129      1.0  0.90050  0.83550  0.37130  1.0000 0.1377635217
H   H130      1.0  0.09950  0.66450  0.87130  1.0000 0.1377635217
H   H131      1.0  0.40050  0.16450  0.12870  1.0000 0.1377635217
H   H132      1.0  0.59950  0.33550  0.62870  1.0000 0.1377635217
H   H133      1.0  0.99070  0.79300  0.33740  1.0000 0.1090546267
H   H134      1.0  0.00930  0.70700  0.83740  1.0000 0.1090546267
H   H135      1.0  0.49070  0.20700  0.16260  1.0000 0.1090546267
H   H136      1.0  0.50930  0.29300  0.66260  1.0000 0.1090546267
H   H137      1.0  0.23200  0.82890  0.37810  1.0000 0.1090546267
H   H138      1.0  0.76800  0.67110  0.87810  1.0000 0.1090546267
H   H139      1.0  0.73200  0.17110  0.12190  1.0000 0.1090546267
H   H140      1.0  0.26800  0.32890  0.62190  1.0000 0.1090546267
H   H141      1.0  0.14650  0.87020  0.41480  1.0000 0.130988365
H   H142      1.0  0.85350  0.62980  0.91480  1.0000 0.130988365
H   H143      1.0  0.64650  0.12980  0.08520  1.0000 0.130988365
H   H144      1.0  0.35350  0.37020  0.58520  1.0000 0.130988365
H   H145      1.0  0.87000  0.65890  0.78410  1.0000 0.1169077248
H   H146      1.0  0.13000  0.84110  0.28410  1.0000 0.1169077248
H   H147      1.0  0.37000  0.34110  0.71590  1.0000 0.1169077248
H   H148      1.0  0.63000  0.15890  0.21590  1.0000 0.1169077248
H   H149      1.0  0.92980  0.65060  0.73540  1.0000 0.130988365
H   H150      1.0  0.07020  0.84940  0.23540  1.0000 0.130988365
H   H151      1.0  0.42980  0.34940  0.76460  1.0000 0.130988365
H   H152      1.0  0.57020  0.15060  0.26460  1.0000 0.130988365
H   H153      1.0  0.95970  0.79110  0.73150  1.0000 0.130988365
H   H154      1.0  0.04030  0.70890  0.23150  1.0000 0.130988365
H   H155      1.0  0.45970  0.20890  0.76850  1.0000 0.130988365
H   H156      1.0  0.54030  0.29110  0.26850  1.0000 0.130988365
H   H157      1.0  0.90500  0.79590  0.78130  1.0000 0.1090546267
H   H158      1.0  0.09500  0.70410  0.28130  1.0000 0.1090546267
H   H159      1.0  0.40500  0.20410  0.71870  1.0000 0.1090546267
H   H160      1.0  0.59500  0.29590  0.21870  1.0000 0.1090546267
H   H161      1.0  0.99980  0.58880  0.67410  1.0000 0.130988365
H   H162      1.0  0.00020  0.91120  0.17410  1.0000 0.130988365
H   H163      1.0  0.49980  0.41120  0.82590  1.0000 0.130988365
H   H164      1.0  0.50020  0.08880  0.32590  1.0000 0.130988365
H   H165      1.0  0.03410  0.51910  0.64960  1.0000 0.1090546267
H   H166      1.0  0.96590  0.98090  0.14960  1.0000 0.1090546267
H   H167      1.0  0.53410  0.48090  0.85040  1.0000 0.1090546267
H   H168      1.0  0.46590  0.01910  0.35040  1.0000 0.1090546267
H   H169      1.0  0.09840  0.58560  0.57410  1.0000 0.1090546267
H   H170      1.0  0.90160  0.91440  0.07410  1.0000 0.1090546267
H   H171      1.0  0.59840  0.41440  0.92590  1.0000 0.1090546267
H   H172      1.0  0.40160  0.08560  0.42590  1.0000 0.1090546267
H   H173      1.0  0.06780  0.65800  0.59680  1.0000 0.130988365
H   H174      1.0  0.93220  0.84200  0.09680  1.0000 0.130988365
H   H175      1.0  0.56780  0.34200  0.90320  1.0000 0.130988365
H   H176      1.0  0.43220  0.15800  0.40320  1.0000 0.130988365
H   H177      1.0  0.07140  0.77550  0.59490  1.0000 0.1377635217
H   H178      1.0  0.92860  0.72450  0.09490  1.0000 0.1377635217
H   H179      1.0  0.57140  0.22450  0.90510  1.0000 0.1377635217
H   H180      1.0  0.42860  0.27550  0.40510  1.0000 0.1377635217
H   H181      1.0  0.10800  0.84850  0.57460  1.0000 0.1090546267
H   H182      1.0  0.89200  0.65150  0.07460  1.0000 0.1090546267
H   H183      1.0  0.60800  0.15150  0.92540  1.0000 0.1090546267
H   H184      1.0  0.39200  0.34850  0.42540  1.0000 0.1090546267
H   H185      1.0  0.02360  0.91270  0.64840  1.0000 0.0996623287
H   H186      1.0  0.97640  0.58730  0.14840  1.0000 0.0996623287
H   H187      1.0  0.52360  0.08730  0.85160  1.0000 0.0996623287
H   H188      1.0  0.47640  0.41270  0.35160  1.0000 0.0996623287
H   H189      1.0  0.99370  0.84180  0.67240  1.0000 0.130988365
H   H190      1.0  0.00630  0.65820  0.17240  1.0000 0.130988365
H   H191      1.0  0.49370  0.15820  0.82760  1.0000 0.130988365
H   H192      1.0  0.50630  0.34180  0.32760  1.0000 0.130988365
C   C1        1.0  0.01730  0.04340  0.45390  1.0000 0.0686780637
C   C2        1.0  0.98270  0.45660  0.95390  1.0000 0.0686780637
C   C3        1.0  0.51730  0.95660  0.04610  1.0000 0.0686780637
C   C4        1.0  0.48270  0.54340  0.54610  1.0000 0.0686780637
C   C5        1.0  0.06090  0.05210  0.48130  1.0000 -0.1513697366
C   C6        1.0  0.93910  0.44790  0.98130  1.0000 -0.1513697366
C   C7        1.0  0.56090  0.94790  0.01870  1.0000 -0.1513697366
C   C8        1.0  0.43910  0.55210  0.51870  1.0000 -0.1513697366
C   C9        1.0  0.00410  0.06730  0.50560  1.0000 0.0589466666
C   C10       1.0  0.99590  0.43270  0.00560  1.0000 0.0589466666
C   C11       1.0  0.50410  0.93270  0.99440  1.0000 0.0589466666
C   C12       1.0  0.49590  0.56730  0.49440  1.0000 0.0589466666
C   C13       1.0  0.90490  0.07190  0.50090  1.0000 -0.1513697366
C   C14       1.0  0.09510  0.42810  0.00090  1.0000 -0.1513697366
C   C15       1.0  0.40490  0.92810  0.99910  1.0000 -0.1513697366
C   C16       1.0  0.59510  0.57190  0.49910  1.0000 -0.1513697366
C   C17       1.0  0.86770  0.06230  0.47260  1.0000 0.0811849124
C   C18       1.0  0.13230  0.43770  0.97260  1.0000 0.0811849124
C   C19       1.0  0.36770  0.93770  0.02740  1.0000 0.0811849124
C   C20       1.0  0.63230  0.56230  0.52740  1.0000 0.0811849124
C   C21       1.0  0.04990  0.08020  0.53460  1.0000 0.3690968958
C   C22       1.0  0.95010  0.41980  0.03460  1.0000 0.3690968958
C   C23       1.0  0.54990  0.91980  0.96540  1.0000 0.3690968958
C   C24       1.0  0.45010  0.58020  0.46540  1.0000 0.3690968958
C   C25       1.0  0.18240  0.08610  0.56360  1.0000 0.3795906232
C   C26       1.0  0.81760  0.41390  0.06360  1.0000 0.3795906232
C   C27       1.0  0.68240  0.91390  0.93640  1.0000 0.3795906232
C   C28       1.0  0.31760  0.58610  0.43640  1.0000 0.3795906232
C   C29       1.0  0.04340  0.11810  0.57930  1.0000 0.3690968958
C   C30       1.0  0.95660  0.38190  0.07930  1.0000 0.3690968958
C   C31       1.0  0.54340  0.88190  0.92070  1.0000 0.3690968958
C   C32       1.0  0.45660  0.61810  0.42070  1.0000 0.3795906232
C   C33       1.0  0.28540  0.07320  0.56930  1.0000 0.0686780637
C   C34       1.0  0.71460  0.42680  0.06930  1.0000 0.0686780637
C   C35       1.0  0.78540  0.92680  0.93070  1.0000 0.0686780637
C   C36       1.0  0.21460  0.57320  0.43070  1.0000 0.0686780637
C   C37       1.0  0.33940  0.04920  0.54740  1.0000 -0.1410442565
C   C38       1.0  0.66060  0.45080  0.04740  1.0000 -0.1410442565
C   C39       1.0  0.83940  0.95080  0.95260  1.0000 -0.1410442565
C   C40       1.0  0.16060  0.54920  0.45260  1.0000 -0.1410442565
C   C41       1.0  0.43410  0.03650  0.55430  1.0000 0.0811849124
C   C42       1.0  0.56590  0.46350  0.05430  1.0000 0.0811849124
C   C43       1.0  0.93410  0.96350  0.94570  1.0000 0.0811849124
C   C44       1.0  0.06590  0.53650  0.44570  1.0000 0.0811849124
C   C45       1.0  0.42330  0.06930  0.60100  1.0000 0.0887124485
C   C46       1.0  0.57670  0.43070  0.10100  1.0000 0.0887124485
C   C47       1.0  0.92330  0.93070  0.89900  1.0000 0.0887124485
C   C48       1.0  0.07670  0.56930  0.39900  1.0000 0.0887124485
C   C49       1.0  0.32950  0.08330  0.59680  1.0000 -0.1295488387
C   C50       1.0  0.67050  0.41670  0.09680  1.0000 -0.1295488387
C   C51       1.0  0.82950  0.91670  0.90320  1.0000 -0.1295488387
C   C52       1.0  0.17050  0.58330  0.40320  1.0000 -0.1295488387
C   C53       1.0  0.98720  0.14350  0.60280  1.0000 0.0589466666
C   C54       1.0  0.01280  0.35650  0.10280  1.0000 0.0589466666
C   C55       1.0  0.48720  0.85650  0.89720  1.0000 0.0589466666
C   C56       1.0  0.51280  0.64350  0.39720  1.0000 0.0589466666
C   C57       1.0  0.03120  0.16610  0.62640  1.0000 -0.1239868993
C   C58       1.0  0.96880  0.33390  0.12640  1.0000 -0.1239868993
C   C59       1.0  0.53120  0.83390  0.87360  1.0000 -0.1239868993
C   C60       1.0  0.46880  0.66610  0.37360  1.0000 -0.1239868993
C   C61       1.0  0.97700  0.19090  0.64670  1.0000 0.0887124485
C   C62       1.0  0.02300  0.30910  0.14670  1.0000 0.0887124485
C   C63       1.0  0.47700  0.80910  0.85330  1.0000 0.0887124485
C   C64       1.0  0.52300  0.69090  0.35330  1.0000 0.0887124485
C   C65       1.0  0.83660  0.17040  0.62290  1.0000 0.0887124485
C   C66       1.0  0.16340  0.32960  0.12290  1.0000 0.0887124485
C   C67       1.0  0.33660  0.82960  0.87710  1.0000 0.0887124485
C   C68       1.0  0.66340  0.67040  0.37710  1.0000 0.0887124485
C   C69       1.0  0.88700  0.14540  0.60110  1.0000 -0.1239868993
C   C70       1.0  0.11300  0.35460  0.10110  1.0000 -0.1239868993
C   C71       1.0  0.38700  0.85460  0.89890  1.0000 -0.1239868993
C   C72       1.0  0.61300  0.64540  0.39890  1.0000 -0.1239868993
C   C73       1.0  0.11200  0.31380  0.22680  1.0000 0.0811849124
C   C74       1.0  0.88800  0.18620  0.72680  1.0000 0.0811849124
C   C75       1.0  0.61200  0.68620  0.27320  1.0000 0.0811849124
C   C76       1.0  0.38800  0.81380  0.77320  1.0000 0.0811849124
C   C77       1.0  0.07670  0.31910  0.25590  1.0000 -0.1513697366
C   C78       1.0  0.92330  0.18090  0.75590  1.0000 -0.1513697366
C   C79       1.0  0.57670  0.68090  0.24410  1.0000 -0.1513697366
C   C80       1.0  0.42330  0.81910  0.74410  1.0000 -0.1513697366
C   C81       1.0  0.05130  0.28020  0.27208  1.0000 0.053975455
C   C82       1.0  0.94870  0.21980  0.77208  1.0000 0.0589466666
C   C83       1.0  0.55130  0.71980  0.22792  1.0000 0.0589466666
C   C84       1.0  0.44870  0.78020  0.72792  1.0000 0.053975455
C   C85       1.0  0.05850  0.23650  0.25797  1.0000 -0.1410442565
C   C86       1.0  0.94150  0.26350  0.75797  1.0000 -0.1410442565
C   C87       1.0  0.55850  0.76350  0.24203  1.0000 -0.1410442565
C   C88       1.0  0.44150  0.73650  0.74203  1.0000 -0.1410442565
C   C89       1.0  0.09260  0.23380  0.22850  1.0000 0.0996623287
C   C90       1.0  0.90740  0.26620  0.72850  1.0000 0.0996623287
C   C91       1.0  0.59260  0.76620  0.27150  1.0000 0.0996623287
C   C92       1.0  0.40740  0.73380  0.77150  1.0000 0.0996623287
C   C93       1.0  0.02070  0.28250  0.30411  1.0000 0.3795906232
C   C94       1.0  0.97930  0.21750  0.80411  1.0000 0.3795906232
C   C95       1.0  0.52070  0.71750  0.19589  1.0000 0.3795906232
C   C96       1.0  0.47930  0.78250  0.69589  1.0000 0.3795906232
C   C97       1.0  0.98270  0.32320  0.34604  1.0000 0.3795906232
C   C98       1.0  0.01730  0.17680  0.84604  1.0000 0.3795906232
C   C99       1.0  0.48270  0.67680  0.15396  1.0000 0.3795906232
C   C100      1.0  0.51730  0.82320  0.65396  1.0000 0.3795906232
C   C101      1.0  0.98440  0.24410  0.34785  1.0000 0.3795906232
C   C102      1.0  0.01560  0.25590  0.84785  1.0000 0.3795906232
C   C103      1.0  0.48440  0.75590  0.15215  1.0000 0.3795906232
C   C104      1.0  0.51560  0.74410  0.65215  1.0000 0.3795906232
C   C105      1.0  0.96710  0.36880  0.36161  1.0000 0.0686780637
C   C106      1.0  0.03290  0.13120  0.86161  1.0000 0.0686780637
C   C107      1.0  0.46710  0.63120  0.13839  1.0000 0.0686780637
C   C108      1.0  0.53290  0.86880  0.63839  1.0000 0.0686780637
C   C109      1.0  0.97870  0.41090  0.34630  1.0000 -0.1513697366
C   C110      1.0  0.02130  0.08910  0.84630  1.0000 -0.1410442565
C   C111      1.0  0.47870  0.58910  0.15370  1.0000 -0.1513697366
C   C112      1.0  0.52130  0.91090  0.65370  1.0000 -0.1410442565
C   C113      1.0  0.95860  0.45230  0.36120  1.0000 0.0887124485
C   C114      1.0  0.04140  0.04770  0.86120  1.0000 0.0887124485
C   C115      1.0  0.45860  0.54770  0.13880  1.0000 0.0887124485
C   C116      1.0  0.54140  0.95230  0.63880  1.0000 0.0887124485
C   C117      1.0  0.92080  0.41340  0.40520  1.0000 0.0887124485
C   C118      1.0  0.07920  0.08660  0.90520  1.0000 0.0887124485
C   C119      1.0  0.42080  0.58660  0.09480  1.0000 0.0887124485
C   C120      1.0  0.57920  0.91340  0.59480  1.0000 0.0887124485
C   C121      1.0  0.93890  0.37010  0.39189  1.0000 -0.1410442565
C   C122      1.0  0.06110  0.12990  0.89189  1.0000 -0.1410442565
C   C123      1.0  0.43890  0.62990  0.10811  1.0000 -0.1410442565
C   C124      1.0  0.56110  0.87010  0.60811  1.0000 -0.1410442565
C   C125      1.0  0.96770  0.19930  0.36390  1.0000 0.0589466666
C   C126      1.0  0.03230  0.30070  0.86390  1.0000 0.0589466666
C   C127      1.0  0.46770  0.80070  0.13610  1.0000 0.0589466666
C   C128      1.0  0.53230  0.69930  0.63610  1.0000 0.0589466666
C   C129      1.0  0.93620  0.19690  0.39330  1.0000 -0.1589253179
C   C130      1.0  0.06380  0.30310  0.89330  1.0000 -0.1589253179
C   C131      1.0  0.43620  0.80310  0.10670  1.0000 -0.1589253179
C   C132      1.0  0.56380  0.69690  0.60670  1.0000 -0.1589253179
C   C133      1.0  0.91580  0.15310  0.40520  1.0000 0.0811849124
C   C134      1.0  0.08420  0.34690  0.90520  1.0000 0.0811849124
C   C135      1.0  0.41580  0.84690  0.09480  1.0000 0.0811849124
C   C136      1.0  0.58420  0.65310  0.59480  1.0000 0.0887124485
C   C137      1.0  0.96360  0.11570  0.36210  1.0000 0.0887124485
C   C138      1.0  0.03640  0.38430  0.86210  1.0000 0.0887124485
C   C139      1.0  0.46360  0.88430  0.13790  1.0000 0.0887124485
C   C140      1.0  0.53640  0.61570  0.63790  1.0000 0.0887124485
C   C141      1.0  0.98300  0.15760  0.34790  1.0000 -0.1513697366
C   C142      1.0  0.01700  0.34240  0.84790  1.0000 -0.1589253179
C   C143      1.0  0.48300  0.84240  0.15210  1.0000 -0.1589253179
C   C144      1.0  0.51700  0.65760  0.65210  1.0000 -0.1589253179
C   C145      1.0  0.98270  0.95660  0.54610  1.0000 0.0686780637
C   C146      1.0  0.01730  0.54340  0.04610  1.0000 0.0686780637
C   C147      1.0  0.48270  0.04340  0.95390  1.0000 0.0686780637
C   C148      1.0  0.51730  0.45660  0.45390  1.0000 0.0686780637
C   C149      1.0  0.93910  0.94790  0.51870  1.0000 -0.1513697366
C   C150      1.0  0.06090  0.55210  0.01870  1.0000 -0.1513697366
C   C151      1.0  0.43910  0.05210  0.98130  1.0000 -0.1513697366
C   C152      1.0  0.56090  0.44790  0.48130  1.0000 -0.1513697366
C   C153      1.0  0.99590  0.93270  0.49440  1.0000 0.0589466666
C   C154      1.0  0.00410  0.56730  0.99440  1.0000 0.0589466666
C   C155      1.0  0.49590  0.06730  0.00560  1.0000 0.0589466666
C   C156      1.0  0.50410  0.43270  0.50560  1.0000 0.0589466666
C   C157      1.0  0.09510  0.92810  0.49910  1.0000 -0.1513697366
C   C158      1.0  0.90490  0.57190  0.99910  1.0000 -0.1513697366
C   C159      1.0  0.59510  0.07190  0.00090  1.0000 -0.1513697366
C   C160      1.0  0.40490  0.42810  0.50090  1.0000 -0.1513697366
C   C161      1.0  0.13230  0.93770  0.52740  1.0000 0.0811849124
C   C162      1.0  0.86770  0.56230  0.02740  1.0000 0.0811849124
C   C163      1.0  0.63230  0.06230  0.97260  1.0000 0.0811849124
C   C164      1.0  0.36770  0.43770  0.47260  1.0000 0.0811849124
C   C165      1.0  0.95010  0.91980  0.46540  1.0000 0.3690968958
C   C166      1.0  0.04990  0.58020  0.96540  1.0000 0.3690968958
C   C167      1.0  0.45010  0.08020  0.03460  1.0000 0.3690968958
C   C168      1.0  0.54990  0.41980  0.53460  1.0000 0.3690968958
C   C169      1.0  0.81760  0.91390  0.43640  1.0000 0.3795906232
C   C170      1.0  0.18240  0.58610  0.93640  1.0000 0.3795906232
C   C171      1.0  0.31760  0.08610  0.06360  1.0000 0.3795906232
C   C172      1.0  0.68240  0.41390  0.56360  1.0000 0.3795906232
C   C173      1.0  0.95660  0.88190  0.42070  1.0000 0.3690968958
C   C174      1.0  0.04340  0.61810  0.92070  1.0000 0.3795906232
C   C175      1.0  0.45660  0.11810  0.07930  1.0000 0.3690968958
C   C176      1.0  0.54340  0.38190  0.57930  1.0000 0.3690968958
C   C177      1.0  0.71460  0.92680  0.43070  1.0000 0.0686780637
C   C178      1.0  0.28540  0.57320  0.93070  1.0000 0.0686780637
C   C179      1.0  0.21460  0.07320  0.06930  1.0000 0.0686780637
C   C180      1.0  0.78540  0.42680  0.56930  1.0000 0.0589466666
C   C181      1.0  0.66060  0.95080  0.45260  1.0000 -0.1410442565
C   C182      1.0  0.33940  0.54920  0.95260  1.0000 -0.1410442565
C   C183      1.0  0.16060  0.04920  0.04740  1.0000 -0.1410442565
C   C184      1.0  0.83940  0.45080  0.54740  1.0000 -0.1410442565
C   C185      1.0  0.56590  0.96350  0.44570  1.0000 0.0811849124
C   C186      1.0  0.43410  0.53650  0.94570  1.0000 0.0811849124
C   C187      1.0  0.06590  0.03650  0.05430  1.0000 0.0811849124
C   C188      1.0  0.93410  0.46350  0.55430  1.0000 0.0811849124
C   C189      1.0  0.57670  0.93070  0.39900  1.0000 0.0887124485
C   C190      1.0  0.42330  0.56930  0.89900  1.0000 0.0887124485
C   C191      1.0  0.07670  0.06930  0.10100  1.0000 0.0887124485
C   C192      1.0  0.92330  0.43070  0.60100  1.0000 0.0887124485
C   C193      1.0  0.67050  0.91670  0.40320  1.0000 -0.1295488387
C   C194      1.0  0.32950  0.58330  0.90320  1.0000 -0.1295488387
C   C195      1.0  0.17050  0.08330  0.09680  1.0000 -0.1295488387
C   C196      1.0  0.82950  0.41670  0.59680  1.0000 -0.1295488387
C   C197      1.0  0.01280  0.85650  0.39720  1.0000 0.0589466666
C   C198      1.0  0.98720  0.64350  0.89720  1.0000 0.0589466666
C   C199      1.0  0.51280  0.14350  0.10280  1.0000 0.0589466666
C   C200      1.0  0.48720  0.35650  0.60280  1.0000 0.0589466666
C   C201      1.0  0.96880  0.83390  0.37360  1.0000 -0.1239868993
C   C202      1.0  0.03120  0.66610  0.87360  1.0000 -0.1239868993
C   C203      1.0  0.46880  0.16610  0.12640  1.0000 -0.1239868993
C   C204      1.0  0.53120  0.33390  0.62640  1.0000 -0.1239868993
C   C205      1.0  0.02300  0.80910  0.35330  1.0000 0.0887124485
C   C206      1.0  0.97700  0.69090  0.85330  1.0000 0.0887124485
C   C207      1.0  0.52300  0.19090  0.14670  1.0000 0.0887124485
C   C208      1.0  0.47700  0.30910  0.64670  1.0000 0.0887124485
C   C209      1.0  0.16340  0.82960  0.37710  1.0000 0.0887124485
C   C210      1.0  0.83660  0.67040  0.87710  1.0000 0.0887124485
C   C211      1.0  0.66340  0.17040  0.12290  1.0000 0.0887124485
C   C212      1.0  0.33660  0.32960  0.62290  1.0000 0.0887124485
C   C213      1.0  0.11300  0.85460  0.39890  1.0000 -0.1239868993
C   C214      1.0  0.88700  0.64540  0.89890  1.0000 -0.1239868993
C   C215      1.0  0.61300  0.14540  0.10110  1.0000 -0.1239868993
C   C216      1.0  0.38700  0.35460  0.60110  1.0000 -0.1239868993
C   C217      1.0  0.88800  0.68620  0.77320  1.0000 0.0811849124
C   C218      1.0  0.11200  0.81380  0.27320  1.0000 0.0811849124
C   C219      1.0  0.38800  0.31380  0.72680  1.0000 0.0811849124
C   C220      1.0  0.61200  0.18620  0.22680  1.0000 0.0811849124
C   C221      1.0  0.92330  0.68090  0.74410  1.0000 -0.1513697366
C   C222      1.0  0.07670  0.81910  0.24410  1.0000 -0.1513697366
C   C223      1.0  0.42330  0.31910  0.75590  1.0000 -0.1513697366
C   C224      1.0  0.57670  0.18090  0.25590  1.0000 -0.1513697366
C   C225      1.0  0.94870  0.71980  0.72792  1.0000 0.0589466666
C   C226      1.0  0.05130  0.78020  0.22792  1.0000 0.053975455
C   C227      1.0  0.44870  0.28020  0.77208  1.0000 0.0589466666
C   C228      1.0  0.55130  0.21980  0.27208  1.0000 0.053975455
C   C229      1.0  0.94150  0.76350  0.74203  1.0000 -0.1410442565
C   C230      1.0  0.05850  0.73650  0.24203  1.0000 -0.1410442565
C   C231      1.0  0.44150  0.23650  0.75797  1.0000 -0.1410442565
C   C232      1.0  0.55850  0.26350  0.25797  1.0000 -0.1410442565
C   C233      1.0  0.90740  0.76620  0.77150  1.0000 0.0996623287
C   C234      1.0  0.09260  0.73380  0.27150  1.0000 0.0996623287
C   C235      1.0  0.40740  0.23380  0.72850  1.0000 0.0996623287
C   C236      1.0  0.59260  0.26620  0.22850  1.0000 0.0996623287
C   C237      1.0  0.97930  0.71750  0.69589  1.0000 0.3795906232
C   C238      1.0  0.02070  0.78250  0.19589  1.0000 0.3795906232
C   C239      1.0  0.47930  0.28250  0.80411  1.0000 0.3795906232
C   C240      1.0  0.52070  0.21750  0.30411  1.0000 0.3795906232
C   C241      1.0  0.01730  0.67680  0.65396  1.0000 0.3795906232
C   C242      1.0  0.98270  0.82320  0.15396  1.0000 0.3795906232
C   C243      1.0  0.51730  0.32320  0.84604  1.0000 0.3795906232
C   C244      1.0  0.48270  0.17680  0.34604  1.0000 0.3795906232
C   C245      1.0  0.01560  0.75590  0.65215  1.0000 0.3795906232
C   C246      1.0  0.98440  0.74410  0.15215  1.0000 0.3795906232
C   C247      1.0  0.51560  0.24410  0.84785  1.0000 0.3795906232
C   C248      1.0  0.48440  0.25590  0.34785  1.0000 0.3795906232
C   C249      1.0  0.03290  0.63120  0.63839  1.0000 0.0686780637
C   C250      1.0  0.96710  0.86880  0.13839  1.0000 0.0686780637
C   C251      1.0  0.53290  0.36880  0.86161  1.0000 0.0686780637
C   C252      1.0  0.46710  0.13120  0.36161  1.0000 0.0686780637
C   C253      1.0  0.02130  0.58910  0.65370  1.0000 -0.1513697366
C   C254      1.0  0.97870  0.91090  0.15370  1.0000 -0.1410442565
C   C255      1.0  0.52130  0.41090  0.84630  1.0000 -0.1513697366
C   C256      1.0  0.47870  0.08910  0.34630  1.0000 -0.1410442565
C   C257      1.0  0.04140  0.54770  0.63880  1.0000 0.0887124485
C   C258      1.0  0.95860  0.95230  0.13880  1.0000 0.0887124485
C   C259      1.0  0.54140  0.45230  0.86120  1.0000 0.0887124485
C   C260      1.0  0.45860  0.04770  0.36120  1.0000 0.0887124485
C   C261      1.0  0.07920  0.58660  0.59480  1.0000 0.0887124485
C   C262      1.0  0.92080  0.91340  0.09480  1.0000 0.0887124485
C   C263      1.0  0.57920  0.41340  0.90520  1.0000 0.0887124485
C   C264      1.0  0.42080  0.08660  0.40520  1.0000 0.0887124485
C   C265      1.0  0.06110  0.62990  0.60811  1.0000 -0.1410442565
C   C266      1.0  0.93890  0.87010  0.10811  1.0000 -0.1410442565
C   C267      1.0  0.56110  0.37010  0.89189  1.0000 -0.1410442565
C   C268      1.0  0.43890  0.12990  0.39189  1.0000 -0.1410442565
C   C269      1.0  0.03230  0.80070  0.63610  1.0000 0.0589466666
C   C270      1.0  0.96770  0.69930  0.13610  1.0000 0.0589466666
C   C271      1.0  0.53230  0.19930  0.86390  1.0000 0.0589466666
C   C272      1.0  0.46770  0.30070  0.36390  1.0000 0.0589466666
C   C273      1.0  0.06380  0.80310  0.60670  1.0000 -0.1589253179
C   C274      1.0  0.93620  0.69690  0.10670  1.0000 -0.1589253179
C   C275      1.0  0.56380  0.19690  0.89330  1.0000 -0.1589253179
C   C276      1.0  0.43620  0.30310  0.39330  1.0000 -0.1589253179
C   C277      1.0  0.08420  0.84690  0.59480  1.0000 0.0811849124
C   C278      1.0  0.91580  0.65310  0.09480  1.0000 0.0887124485
C   C279      1.0  0.58420  0.15310  0.90520  1.0000 0.0811849124
C   C280      1.0  0.41580  0.34690  0.40520  1.0000 0.0811849124
C   C281      1.0  0.03640  0.88430  0.63790  1.0000 0.0887124485
C   C282      1.0  0.96360  0.61570  0.13790  1.0000 0.0887124485
C   C283      1.0  0.53640  0.11570  0.86210  1.0000 0.0887124485
C   C284      1.0  0.46360  0.38430  0.36210  1.0000 0.0887124485
C   C285      1.0  0.01700  0.84240  0.65210  1.0000 -0.1589253179
C   C286      1.0  0.98300  0.65760  0.15210  1.0000 -0.1589253179
C   C287      1.0  0.51700  0.15760  0.84790  1.0000 -0.1513697366
C   C288      1.0  0.48300  0.34240  0.34790  1.0000 -0.1589253179
I   I1        1.0  0.96172  0.98705  0.37520  1.0000 -0.4401914463
I   I2        1.0  0.03828  0.51295  0.87520  1.0000 -0.4401914463
I   I3        1.0  0.46172  0.01295  0.12480  1.0000 -0.4401914463
I   I4        1.0  0.53828  0.48705  0.62480  1.0000 -0.4401914463
I   I5        1.0  0.69114  0.06356  0.40620  1.0000 -0.4583752513
I   I6        1.0  0.30886  0.43644  0.90620  1.0000 -0.4583752513
I   I7        1.0  0.19114  0.93644  0.09380  1.0000 -0.4583752513
I   I8        1.0  0.80886  0.56356  0.59380  1.0000 -0.4583752513
I   I9        1.0  0.63388  0.20059  0.68133  1.0000 -0.4583752513
I   I10       1.0  0.36612  0.29941  0.18133  1.0000 -0.4583752513
I   I11       1.0  0.13388  0.79941  0.81867  1.0000 -0.4583752513
I   I12       1.0  0.86612  0.70059  0.31867  1.0000 -0.4583752513
I   I13       1.0  0.81438  0.32020  0.65626  1.0000 -0.4501622285
I   I14       1.0  0.18562  0.17980  0.15626  1.0000 -0.4501622285
I   I15       1.0  0.31438  0.67980  0.84374  1.0000 -0.4501622285
I   I16       1.0  0.68562  0.82020  0.34374  1.0000 -0.4501622285
I   I17       1.0  0.68340  0.06402  0.63407  1.0000 -0.4501622285
I   I18       1.0  0.31660  0.43598  0.13407  1.0000 -0.4501622285
I   I19       1.0  0.18340  0.93598  0.86593  1.0000 -0.4401914463
I   I20       1.0  0.81660  0.56402  0.36593  1.0000 -0.4501622285
I   I21       1.0  0.69499  0.00176  0.54078  1.0000 -0.481028466
I   I22       1.0  0.30501  0.49824  0.04078  1.0000 -0.481028466
I   I23       1.0  0.19499  0.99824  0.95922  1.0000 -0.481028466
I   I24       1.0  0.80501  0.50176  0.45922  1.0000 -0.481028466
I   I25       1.0  0.03828  0.01295  0.62480  1.0000 -0.4401914463
I   I26       1.0  0.96172  0.48705  0.12480  1.0000 -0.4401914463
I   I27       1.0  0.53828  0.98705  0.87520  1.0000 -0.4401914463
I   I28       1.0  0.46172  0.51295  0.37520  1.0000 -0.4401914463
I   I29       1.0  0.30886  0.93644  0.59380  1.0000 -0.4583752513
I   I30       1.0  0.69114  0.56356  0.09380  1.0000 -0.4583752513
I   I31       1.0  0.80886  0.06356  0.90620  1.0000 -0.4583752513
I   I32       1.0  0.19114  0.43644  0.40620  1.0000 -0.4583752513
I   I33       1.0  0.36612  0.79941  0.31867  1.0000 -0.4583752513
I   I34       1.0  0.63388  0.70059  0.81867  1.0000 -0.4583752513
I   I35       1.0  0.86612  0.20059  0.18133  1.0000 -0.4583752513
I   I36       1.0  0.13388  0.29941  0.68133  1.0000 -0.4583752513
I   I37       1.0  0.18562  0.67980  0.34374  1.0000 -0.4501622285
I   I38       1.0  0.81438  0.82020  0.84374  1.0000 -0.4501622285
I   I39       1.0  0.68562  0.32020  0.15626  1.0000 -0.4501622285
I   I40       1.0  0.31438  0.17980  0.65626  1.0000 -0.4501622285
I   I41       1.0  0.31660  0.93598  0.36593  1.0000 -0.4501622285
I   I42       1.0  0.68340  0.56402  0.86593  1.0000 -0.4501622285
I   I43       1.0  0.81660  0.06402  0.13407  1.0000 -0.4501622285
I   I44       1.0  0.18340  0.43598  0.63407  1.0000 -0.4501622285
I   I45       1.0  0.30501  0.99824  0.45922  1.0000 -0.481028466
I   I46       1.0  0.69499  0.50176  0.95922  1.0000 -0.481028466
I   I47       1.0  0.80501  0.00176  0.04078  1.0000 -0.481028466
I   I48       1.0  0.19499  0.49824  0.54078  1.0000 -0.481028466
N   N1        1.0  0.92240  0.04990  0.44893  1.0000 -0.1874387909
N   N2        1.0  0.07760  0.45010  0.94893  1.0000 -0.1874387909
N   N3        1.0  0.42240  0.95010  0.05107  1.0000 -0.1874387909
N   N4        1.0  0.57760  0.54990  0.55107  1.0000 -0.1874387909
N   N5        1.0  0.14380  0.06970  0.53819  1.0000 -0.3902025096
N   N6        1.0  0.85620  0.43030  0.03819  1.0000 -0.3902025096
N   N7        1.0  0.64380  0.93030  0.96181  1.0000 -0.3902025096
N   N8        1.0  0.35620  0.56970  0.46181  1.0000 -0.3902025096
N   N9        1.0  0.13720  0.11120  0.58458  1.0000 -0.369992061
N   N10       1.0  0.86280  0.38880  0.08458  1.0000 -0.369992061
N   N11       1.0  0.63720  0.88880  0.91542  1.0000 -0.369992061
N   N12       1.0  0.36280  0.61120  0.41542  1.0000 -0.369992061
N   N13       1.0  0.99520  0.10280  0.55501  1.0000 -0.3902025096
N   N14       1.0  0.00480  0.39720  0.05501  1.0000 -0.3902025096
N   N15       1.0  0.49520  0.89720  0.94499  1.0000 -0.3902025096
N   N16       1.0  0.50480  0.60280  0.44499  1.0000 -0.3902025096
N   N17       1.0  0.47520  0.04580  0.58085  1.0000 -0.1790066507
N   N18       1.0  0.52480  0.45420  0.08085  1.0000 -0.1790066507
N   N19       1.0  0.97520  0.95420  0.91915  1.0000 -0.1790066507
N   N20       1.0  0.02480  0.54580  0.41915  1.0000 -0.1790066507
N   N21       1.0  0.88090  0.19370  0.64510  1.0000 -0.1717764255
N   N22       1.0  0.11910  0.30630  0.14510  1.0000 -0.1717764255
N   N23       1.0  0.38090  0.80630  0.85490  1.0000 -0.1717764255
N   N24       1.0  0.61910  0.69370  0.35490  1.0000 -0.1717764255
N   N25       1.0  0.12200  0.27190  0.21338  1.0000 -0.1790066507
N   N26       1.0  0.87800  0.22810  0.71338  1.0000 -0.1790066507
N   N27       1.0  0.62200  0.72810  0.28662  1.0000 -0.1790066507
N   N28       1.0  0.37800  0.77190  0.78662  1.0000 -0.1790066507
N   N29       1.0  0.00790  0.32410  0.31672  1.0000 -0.4078093007
N   N30       1.0  0.99210  0.17590  0.81672  1.0000 -0.4078093007
N   N31       1.0  0.50790  0.67590  0.18328  1.0000 -0.4078093007
N   N32       1.0  0.49210  0.82410  0.68328  1.0000 -0.4078093007
N   N33       1.0  0.97080  0.28410  0.36300  1.0000 -0.4209142853
N   N34       1.0  0.02920  0.21590  0.86300  1.0000 -0.4209142853
N   N35       1.0  0.47080  0.71590  0.13700  1.0000 -0.4209142853
N   N36       1.0  0.52920  0.78410  0.63700  1.0000 -0.4209142853
N   N37       1.0  0.01010  0.24120  0.31866  1.0000 -0.4209142853
N   N38       1.0  0.98990  0.25880  0.81866  1.0000 -0.4209142853
N   N39       1.0  0.51010  0.75880  0.18134  1.0000 -0.4209142853
N   N40       1.0  0.48990  0.74120  0.68134  1.0000 -0.4209142853
N   N41       1.0  0.92940  0.45400  0.38988  1.0000 -0.1790066507
N   N42       1.0  0.07060  0.04600  0.88988  1.0000 -0.1790066507
N   N43       1.0  0.42940  0.54600  0.11012  1.0000 -0.1790066507
N   N44       1.0  0.57060  0.95400  0.61012  1.0000 -0.1790066507
N   N45       1.0  0.92740  0.11350  0.39016  1.0000 -0.1874387909
N   N46       1.0  0.07260  0.38650  0.89016  1.0000 -0.1874387909
N   N47       1.0  0.42740  0.88650  0.10984  1.0000 -0.1874387909
N   N48       1.0  0.57260  0.61350  0.60984  1.0000 -0.1790066507
N   N49       1.0  0.07760  0.95010  0.55107  1.0000 -0.1874387909
N   N50       1.0  0.92240  0.54990  0.05107  1.0000 -0.1874387909
N   N51       1.0  0.57760  0.04990  0.94893  1.0000 -0.1874387909
N   N52       1.0  0.42240  0.45010  0.44893  1.0000 -0.1874387909
N   N53       1.0  0.85620  0.93030  0.46181  1.0000 -0.3902025096
N   N54       1.0  0.14380  0.56970  0.96181  1.0000 -0.3902025096
N   N55       1.0  0.35620  0.06970  0.03819  1.0000 -0.3902025096
N   N56       1.0  0.64380  0.43030  0.53819  1.0000 -0.3902025096
N   N57       1.0  0.86280  0.88880  0.41542  1.0000 -0.369992061
N   N58       1.0  0.13720  0.61120  0.91542  1.0000 -0.369992061
N   N59       1.0  0.36280  0.11120  0.08458  1.0000 -0.369992061
N   N60       1.0  0.63720  0.38880  0.58458  1.0000 -0.369992061
N   N61       1.0  0.00480  0.89720  0.44499  1.0000 -0.3902025096
N   N62       1.0  0.99520  0.60280  0.94499  1.0000 -0.3902025096
N   N63       1.0  0.50480  0.10280  0.05501  1.0000 -0.3902025096
N   N64       1.0  0.49520  0.39720  0.55501  1.0000 -0.3902025096
N   N65       1.0  0.52480  0.95420  0.41915  1.0000 -0.1790066507
N   N66       1.0  0.47520  0.54580  0.91915  1.0000 -0.1790066507
N   N67       1.0  0.02480  0.04580  0.08085  1.0000 -0.1790066507
N   N68       1.0  0.97520  0.45420  0.58085  1.0000 -0.1790066507
N   N69       1.0  0.11910  0.80630  0.35490  1.0000 -0.1717764255
N   N70       1.0  0.88090  0.69370  0.85490  1.0000 -0.1717764255
N   N71       1.0  0.61910  0.19370  0.14510  1.0000 -0.1717764255
N   N72       1.0  0.38090  0.30630  0.64510  1.0000 -0.1717764255
N   N73       1.0  0.87800  0.72810  0.78662  1.0000 -0.1790066507
N   N74       1.0  0.12200  0.77190  0.28662  1.0000 -0.1790066507
N   N75       1.0  0.37800  0.27190  0.71338  1.0000 -0.1790066507
N   N76       1.0  0.62200  0.22810  0.21338  1.0000 -0.1790066507
N   N77       1.0  0.99210  0.67590  0.68328  1.0000 -0.4078093007
N   N78       1.0  0.00790  0.82410  0.18328  1.0000 -0.4078093007
N   N79       1.0  0.49210  0.32410  0.81672  1.0000 -0.4078093007
N   N80       1.0  0.50790  0.17590  0.31672  1.0000 -0.4078093007
N   N81       1.0  0.02920  0.71590  0.63700  1.0000 -0.4209142853
N   N82       1.0  0.97080  0.78410  0.13700  1.0000 -0.4209142853
N   N83       1.0  0.52920  0.28410  0.86300  1.0000 -0.4209142853
N   N84       1.0  0.47080  0.21590  0.36300  1.0000 -0.4209142853
N   N85       1.0  0.98990  0.75880  0.68134  1.0000 -0.4209142853
N   N86       1.0  0.01010  0.74120  0.18134  1.0000 -0.4209142853
N   N87       1.0  0.48990  0.24120  0.81866  1.0000 -0.4209142853
N   N88       1.0  0.51010  0.25880  0.31866  1.0000 -0.4209142853
N   N89       1.0  0.07060  0.54600  0.61012  1.0000 -0.1790066507
N   N90       1.0  0.92940  0.95400  0.11012  1.0000 -0.1790066507
N   N91       1.0  0.57060  0.45400  0.88988  1.0000 -0.1790066507
N   N92       1.0  0.42940  0.04600  0.38988  1.0000 -0.1790066507
N   N93       1.0  0.07260  0.88650  0.60984  1.0000 -0.1874387909
N   N94       1.0  0.92740  0.61350  0.10984  1.0000 -0.1790066507
N   N95       1.0  0.57260  0.11350  0.89016  1.0000 -0.1874387909
N   N96       1.0  0.42740  0.38650  0.39016  1.0000 -0.1874387909
