# DDEC6 charges by PACMAN v1.1 (https://github.com/mtap-research/PACMAN-charge/)
data_2005[Zn][pcu]3[ASR]1
_chemical_formula_sum              "Zn4 H32 C52 N4 O16"
_cell_length_a       10.883
_cell_length_b       10.9258
_cell_length_c       14.0658
_cell_angle_alpha    92.417
_cell_angle_beta     90.099
_cell_angle_gamma    101.723

_symmetry_space_group_name_H-M    "P 1"
_symmetry_Int_Tables_number       1

loop_
  _symmetry_equiv_pos_as_xyz
  'x, y, z'

loop_
  _atom_site_type_symbol
  _atom_site_label
  _atom_site_symmetry_multiplicity
  _atom_site_fract_x
  _atom_site_fract_y
  _atom_site_fract_z
  _atom_site_occupancy
  _atom_site_charge
Zn  Zn1       1.0  0.26504  0.34438  0.89078  1.0000 0.8205948195
Zn  Zn2       1.0  0.26209  0.33156  0.68186  1.0000 0.8205948195
Zn  Zn3       1.0  0.73496  0.65562  0.10922  1.0000 0.8205948195
Zn  Zn4       1.0  0.73791  0.66844  0.31814  1.0000 0.8205948195
H   H1        1.0  0.66180  0.35680  0.93060  1.0000 0.118862678
H   H2        1.0  0.87370  0.34920  0.92980  1.0000 0.118862678
H   H3        1.0  0.65400  0.32650  0.64390  1.0000 0.1115521872
H   H4        1.0  0.25520  0.71740  0.64370  1.0000 0.118862678
H   H5        1.0  0.26520  0.74440  0.92710  1.0000 0.118862678
H   H6        1.0  0.25030  0.95300  0.92420  1.0000 0.1315180879
H   H7        1.0  0.23780  0.92740  0.63930  1.0000 0.118862678
H   H8        1.0  0.86570  0.31950  0.64330  1.0000 0.1115521872
H   H9        1.0  0.08490  0.31950  0.52130  1.0000 0.118862678
H   H10       1.0  0.07910  0.31480  0.35860  1.0000 0.1385022274
H   H11       1.0  0.44790  0.36230  0.35950  1.0000 0.1385022274
H   H12       1.0  0.44340  0.35850  0.52260  1.0000 0.118862678
H   H13       1.0  0.07500  0.32420  0.21220  1.0000 0.1315180879
H   H14       1.0  0.45120  0.35330  0.21440  1.0000 0.1315180879
H   H15       1.0  0.08190  0.32390  0.04960  1.0000 0.118862678
H   H16       1.0  0.44550  0.35120  0.05160  1.0000 0.118862678
H   H17       1.0  0.33820  0.64320  0.06940  1.0000 0.118862678
H   H18       1.0  0.12630  0.65080  0.07020  1.0000 0.118862678
H   H19       1.0  0.34600  0.67350  0.35610  1.0000 0.1115521872
H   H20       1.0  0.74480  0.28260  0.35630  1.0000 0.118862678
H   H21       1.0  0.73480  0.25560  0.07290  1.0000 0.118862678
H   H22       1.0  0.74970  0.04700  0.07580  1.0000 0.1315180879
H   H23       1.0  0.76220  0.07260  0.36070  1.0000 0.118862678
H   H24       1.0  0.13430  0.68050  0.35670  1.0000 0.1115521872
H   H25       1.0  0.91510  0.68050  0.47870  1.0000 0.118862678
H   H26       1.0  0.92090  0.68520  0.64140  1.0000 0.1385022274
H   H27       1.0  0.55210  0.63770  0.64050  1.0000 0.1385022274
H   H28       1.0  0.55660  0.64150  0.47740  1.0000 0.118862678
H   H29       1.0  0.92500  0.67580  0.78780  1.0000 0.1315180879
H   H30       1.0  0.54880  0.64670  0.78560  1.0000 0.1315180879
H   H31       1.0  0.91810  0.67610  0.95040  1.0000 0.118862678
H   H32       1.0  0.55450  0.64880  0.94840  1.0000 0.118862678
C   C1        1.0  0.49970  0.34950  0.78760  1.0000 0.568252506
C   C2        1.0  0.63630  0.34290  0.78790  1.0000 -0.0283100062
C   C3        1.0  0.70260  0.34920  0.87250  1.0000 -0.1105417098
C   C4        1.0  0.82910  0.34460  0.87200  1.0000 -0.1105417098
C   C5        1.0  0.69850  0.33130  0.70180  1.0000 -0.1105417098
C   C6        1.0  0.27930  0.57740  0.78760  1.0000 0.568252506
C   C7        1.0  0.26660  0.71160  0.78600  1.0000 -0.0283100062
C   C8        1.0  0.25560  0.76530  0.70080  1.0000 -0.118107883
C   C9        1.0  0.26180  0.78150  0.86830  1.0000 -0.1105417098
C   C10       1.0  0.24240  0.09850  0.77820  1.0000 0.5888119063
C   C11       1.0  0.24510  0.96120  0.78200  1.0000 -0.010646003
C   C12       1.0  0.25210  0.90630  0.86670  1.0000 -0.1041335741
C   C13       1.0  0.24490  0.89120  0.69790  1.0000 -0.118107883
C   C14       1.0  0.02790  0.32830  0.78720  1.0000 0.579361113
C   C15       1.0  0.88950  0.33310  0.78720  1.0000 -0.0166363565
C   C16       1.0  0.82430  0.32680  0.70130  1.0000 -0.118107883
C   C17       1.0  0.16070  0.32590  0.48820  1.0000 0.0794819416
C   C18       1.0  0.15690  0.32460  0.39020  1.0000 -0.2007483111
C   C19       1.0  0.26340  0.33720  0.33880  1.0000 0.1115521872
C   C20       1.0  0.37030  0.35120  0.39060  1.0000 -0.2007483111
C   C21       1.0  0.36710  0.34930  0.48900  1.0000 0.0794819416
C   C22       1.0  0.26290  0.33760  0.23440  1.0000 0.118862678
C   C23       1.0  0.15230  0.32980  0.18120  1.0000 -0.1900665118
C   C24       1.0  0.37400  0.34690  0.18250  1.0000 -0.1900665118
C   C25       1.0  0.15740  0.33050  0.08390  1.0000 0.0794819416
C   C26       1.0  0.36990  0.34660  0.08480  1.0000 0.1034396014
C   C27       1.0  0.50030  0.65050  0.21240  1.0000 0.568252506
C   C28       1.0  0.36370  0.65710  0.21210  1.0000 -0.0283100062
C   C29       1.0  0.29740  0.65080  0.12750  1.0000 -0.1041335741
C   C30       1.0  0.17090  0.65540  0.12800  1.0000 -0.1105417098
C   C31       1.0  0.30150  0.66870  0.29820  1.0000 -0.1105417098
C   C32       1.0  0.72070  0.42260  0.21240  1.0000 0.568252506
C   C33       1.0  0.73340  0.28840  0.21400  1.0000 -0.0283100062
C   C34       1.0  0.74440  0.23470  0.29920  1.0000 -0.118107883
C   C35       1.0  0.73820  0.21850  0.13170  1.0000 -0.1105417098
C   C36       1.0  0.75760  0.90150  0.22180  1.0000 0.5888119063
C   C37       1.0  0.75490  0.03880  0.21800  1.0000 -0.010646003
C   C38       1.0  0.74790  0.09370  0.13330  1.0000 -0.1041335741
C   C39       1.0  0.75510  0.10880  0.30210  1.0000 -0.118107883
C   C40       1.0  0.97210  0.67170  0.21280  1.0000 0.579361113
C   C41       1.0  0.11050  0.66690  0.21280  1.0000 -0.0166363565
C   C42       1.0  0.17570  0.67320  0.29870  1.0000 -0.118107883
C   C43       1.0  0.83930  0.67410  0.51180  1.0000 0.0794819416
C   C44       1.0  0.84310  0.67540  0.60980  1.0000 -0.2007483111
C   C45       1.0  0.73660  0.66280  0.66120  1.0000 0.1115521872
C   C46       1.0  0.62970  0.64880  0.60940  1.0000 -0.2007483111
C   C47       1.0  0.63290  0.65070  0.51100  1.0000 0.0794819416
C   C48       1.0  0.73710  0.66240  0.76560  1.0000 0.118862678
C   C49       1.0  0.84770  0.67020  0.81880  1.0000 -0.1900665118
C   C50       1.0  0.62600  0.65310  0.81750  1.0000 -0.1900665118
C   C51       1.0  0.84260  0.66950  0.91610  1.0000 0.0794819416
C   C52       1.0  0.63010  0.65340  0.91520  1.0000 0.1034396014
N   N1        1.0  0.26380  0.33530  0.53700  1.0000 -0.1900665118
N   N2        1.0  0.26510  0.34020  0.03480  1.0000 -0.2228857481
N   N3        1.0  0.73620  0.66470  0.46300  1.0000 -0.1900665118
N   N4        1.0  0.73490  0.65980  0.96520  1.0000 -0.2228857481
O   O1        1.0  0.44970  0.35720  0.86690  1.0000 -0.5394798317
O   O2        1.0  0.44680  0.34500  0.70790  1.0000 -0.5483870038
O   O3        1.0  0.28390  0.53170  0.86770  1.0000 -0.5317763708
O   O4        1.0  0.28580  0.52110  0.71060  1.0000 -0.5317763708
O   O5        1.0  0.24390  0.15720  0.85770  1.0000 -0.5394798317
O   O6        1.0  0.23960  0.14500  0.69880  1.0000 -0.5317763708
O   O7        1.0  0.08050  0.33120  0.86590  1.0000 -0.5317763708
O   O8        1.0  0.07870  0.32380  0.70740  1.0000 -0.5483870038
O   O9        1.0  0.55030  0.64280  0.13310  1.0000 -0.5394798317
O   O10       1.0  0.55320  0.65500  0.29210  1.0000 -0.5483870038
O   O11       1.0  0.71610  0.46830  0.13230  1.0000 -0.5394798317
O   O12       1.0  0.71420  0.47890  0.28940  1.0000 -0.5317763708
O   O13       1.0  0.75610  0.84280  0.14230  1.0000 -0.5394798317
O   O14       1.0  0.76040  0.85500  0.30120  1.0000 -0.5317763708
O   O15       1.0  0.91950  0.66880  0.13410  1.0000 -0.5317763708
O   O16       1.0  0.92130  0.67620  0.29260  1.0000 -0.5483870038
