# DDEC6 charges by PACMAN v1.1 (https://github.com/mtap-research/PACMAN-charge/)
data_2005[Zn][srs]3[ASR]6
_chemical_formula_sum              "Zn24 H192 C288 I48 N96"
_cell_length_a       13.75
_cell_length_b       27.6479
_cell_length_c       45.714
_cell_angle_alpha    90
_cell_angle_beta     90
_cell_angle_gamma    90

_symmetry_space_group_name_H-M    "P 1"
_symmetry_Int_Tables_number       1

loop_
  _symmetry_equiv_pos_as_xyz
  'x, y, z'

loop_
  _atom_site_type_symbol
  _atom_site_label
  _atom_site_symmetry_multiplicity
  _atom_site_fract_x
  _atom_site_fract_y
  _atom_site_fract_z
  _atom_site_occupancy
  _atom_site_charge
Zn  Zn1       1.0  0.85570  0.05075  0.42467  1.0000 0.4514171609
Zn  Zn2       1.0  0.14430  0.44925  0.92467  1.0000 0.4514171609
Zn  Zn3       1.0  0.35570  0.94925  0.07533  1.0000 0.4514171609
Zn  Zn4       1.0  0.64430  0.55075  0.57533  1.0000 0.4514171609
Zn  Zn5       1.0  0.84635  0.24547  0.68655  1.0000 0.472366763
Zn  Zn6       1.0  0.15365  0.25453  0.18655  1.0000 0.472366763
Zn  Zn7       1.0  0.34635  0.75453  0.81345  1.0000 0.472366763
Zn  Zn8       1.0  0.65365  0.74547  0.31345  1.0000 0.472366763
Zn  Zn9       1.0  0.63847  0.02768  0.58869  1.0000 0.4602666327
Zn  Zn10      1.0  0.36153  0.47232  0.08869  1.0000 0.4602666327
Zn  Zn11      1.0  0.13847  0.97232  0.91131  1.0000 0.4602666327
Zn  Zn12      1.0  0.86153  0.52768  0.41131  1.0000 0.4602666327
Zn  Zn13      1.0  0.14430  0.94925  0.57533  1.0000 0.4514171609
Zn  Zn14      1.0  0.85570  0.55075  0.07533  1.0000 0.4514171609
Zn  Zn15      1.0  0.64430  0.05075  0.92467  1.0000 0.4514171609
Zn  Zn16      1.0  0.35570  0.44925  0.42467  1.0000 0.4514171609
Zn  Zn17      1.0  0.15365  0.75453  0.31345  1.0000 0.472366763
Zn  Zn18      1.0  0.84635  0.74547  0.81345  1.0000 0.472366763
Zn  Zn19      1.0  0.65365  0.24547  0.18655  1.0000 0.472366763
Zn  Zn20      1.0  0.34635  0.25453  0.68655  1.0000 0.472366763
Zn  Zn21      1.0  0.36153  0.97232  0.41131  1.0000 0.4602666327
Zn  Zn22      1.0  0.63847  0.52768  0.91131  1.0000 0.4602666327
Zn  Zn23      1.0  0.86153  0.02768  0.08869  1.0000 0.4602666327
Zn  Zn24      1.0  0.13847  0.47232  0.58869  1.0000 0.4602666327
H   H1        1.0  0.04890  0.03330  0.45330  1.0000 0.1093904664
H   H2        1.0  0.95110  0.46670  0.95330  1.0000 0.1093904664
H   H3        1.0  0.54890  0.96670  0.04670  1.0000 0.1093904664
H   H4        1.0  0.45110  0.53330  0.54670  1.0000 0.1093904664
H   H5        1.0  0.13400  0.05610  0.49470  1.0000 0.1330028365
H   H6        1.0  0.86600  0.44390  0.99470  1.0000 0.1330028365
H   H7        1.0  0.63400  0.94390  0.00530  1.0000 0.1330028365
H   H8        1.0  0.36600  0.55610  0.50530  1.0000 0.1330028365
H   H9        1.0  0.88900  0.11690  0.52680  1.0000 0.1367678698
H   H10       1.0  0.11100  0.38310  0.02680  1.0000 0.1367678698
H   H11       1.0  0.38900  0.88310  0.97320  1.0000 0.1367678698
H   H12       1.0  0.61100  0.61690  0.47320  1.0000 0.1367678698
H   H13       1.0  0.80930  0.09280  0.48450  1.0000 0.1093904664
H   H14       1.0  0.19070  0.40720  0.98450  1.0000 0.1093904664
H   H15       1.0  0.30930  0.90720  0.01550  1.0000 0.1093904664
H   H16       1.0  0.69070  0.59280  0.51550  1.0000 0.1093904664
H   H17       1.0  0.34270  0.07190  0.52950  1.0000 0.1367678698
H   H18       1.0  0.65730  0.42810  0.02950  1.0000 0.1367678698
H   H19       1.0  0.84270  0.92810  0.97050  1.0000 0.1367678698
H   H20       1.0  0.15730  0.57190  0.47050  1.0000 0.1367678698
H   H21       1.0  0.50050  0.04430  0.53780  1.0000 0.1093904664
H   H22       1.0  0.49950  0.45570  0.03780  1.0000 0.1093904664
H   H23       1.0  0.00050  0.95570  0.96220  1.0000 0.1093904664
H   H24       1.0  0.99950  0.54430  0.46220  1.0000 0.1093904664
H   H25       1.0  0.48200  0.07850  0.62140  1.0000 0.1093904664
H   H26       1.0  0.51800  0.42150  0.12140  1.0000 0.1093904664
H   H27       1.0  0.98200  0.92150  0.87860  1.0000 0.1093904664
H   H28       1.0  0.01800  0.57850  0.37860  1.0000 0.1093904664
H   H29       1.0  0.32530  0.10810  0.61480  1.0000 0.1367678698
H   H30       1.0  0.67470  0.39190  0.11480  1.0000 0.1367678698
H   H31       1.0  0.82530  0.89190  0.88520  1.0000 0.1330028365
H   H32       1.0  0.17470  0.60810  0.38520  1.0000 0.1367678698
H   H33       1.0  0.14420  0.18550  0.63400  1.0000 0.1330028365
H   H34       1.0  0.85580  0.31450  0.13400  1.0000 0.1330028365
H   H35       1.0  0.64420  0.81450  0.86600  1.0000 0.1330028365
H   H36       1.0  0.35580  0.68550  0.36600  1.0000 0.1330028365
H   H37       1.0  0.05610  0.22390  0.67070  1.0000 0.1093904664
H   H38       1.0  0.94390  0.27610  0.17070  1.0000 0.1093904664
H   H39       1.0  0.55610  0.77610  0.82930  1.0000 0.1093904664
H   H40       1.0  0.44390  0.72390  0.32930  1.0000 0.1093904664
H   H41       1.0  0.80850  0.19030  0.63260  1.0000 0.1093904664
H   H42       1.0  0.19150  0.30970  0.13260  1.0000 0.1093904664
H   H43       1.0  0.30850  0.80970  0.86740  1.0000 0.1093904664
H   H44       1.0  0.69150  0.69030  0.36740  1.0000 0.1093904664
H   H45       1.0  0.88930  0.15300  0.59400  1.0000 0.1330028365
H   H46       1.0  0.11070  0.34700  0.09400  1.0000 0.1330028365
H   H47       1.0  0.38930  0.84700  0.90600  1.0000 0.1330028365
H   H48       1.0  0.61070  0.65300  0.40600  1.0000 0.1330028365
H   H49       1.0  0.07240  0.33460  0.22320  1.0000 0.1164556217
H   H50       1.0  0.92760  0.16540  0.72320  1.0000 0.1164556217
H   H51       1.0  0.57240  0.66540  0.27680  1.0000 0.1164556217
H   H52       1.0  0.42760  0.83460  0.77680  1.0000 0.1164556217
H   H53       1.0  0.01270  0.34660  0.27030  1.0000 0.1367678698
H   H54       1.0  0.98730  0.15340  0.77030  1.0000 0.1367678698
H   H55       1.0  0.51270  0.65340  0.22970  1.0000 0.1330028365
H   H56       1.0  0.48730  0.84660  0.72970  1.0000 0.1330028365
H   H57       1.0  0.99450  0.20090  0.27910  1.0000 0.1330028365
H   H58       1.0  0.00550  0.29910  0.77910  1.0000 0.1330028365
H   H59       1.0  0.49450  0.79910  0.22090  1.0000 0.1330028365
H   H60       1.0  0.50550  0.70090  0.72090  1.0000 0.1330028365
H   H61       1.0  0.05150  0.19350  0.23150  1.0000 0.1093904664
H   H62       1.0  0.94850  0.30650  0.73150  1.0000 0.1093904664
H   H63       1.0  0.55150  0.80650  0.26850  1.0000 0.1093904664
H   H64       1.0  0.44850  0.69350  0.76850  1.0000 0.1093904664
H   H65       1.0  0.94250  0.41480  0.32820  1.0000 0.1330028365
H   H66       1.0  0.05750  0.08520  0.82820  1.0000 0.1367678698
H   H67       1.0  0.44250  0.58520  0.17180  1.0000 0.1330028365
H   H68       1.0  0.55750  0.91480  0.67180  1.0000 0.1330028365
H   H69       1.0  0.91540  0.48820  0.35170  1.0000 0.1093904664
H   H70       1.0  0.08460  0.01180  0.85170  1.0000 0.1093904664
H   H71       1.0  0.41540  0.51180  0.14830  1.0000 0.1093904664
H   H72       1.0  0.58460  0.98820  0.64830  1.0000 0.1093904664
H   H73       1.0  0.89500  0.42400  0.42830  1.0000 0.1093904664
H   H74       1.0  0.10500  0.07600  0.92830  1.0000 0.1093904664
H   H75       1.0  0.39500  0.57600  0.07170  1.0000 0.1093904664
H   H76       1.0  0.60500  0.92400  0.57170  1.0000 0.1093904664
H   H77       1.0  0.91690  0.34860  0.40730  1.0000 0.1330028365
H   H78       1.0  0.08310  0.15140  0.90730  1.0000 0.1330028365
H   H79       1.0  0.41690  0.65140  0.09270  1.0000 0.1330028365
H   H80       1.0  0.58310  0.84860  0.59270  1.0000 0.1330028365
H   H81       1.0  0.89000  0.23110  0.41090  1.0000 0.1367678698
H   H82       1.0  0.11000  0.26890  0.91090  1.0000 0.1367678698
H   H83       1.0  0.39000  0.76890  0.08910  1.0000 0.1367678698
H   H84       1.0  0.61000  0.73110  0.58910  1.0000 0.1367678698
H   H85       1.0  0.86260  0.16000  0.43600  1.0000 0.1093904664
H   H86       1.0  0.13740  0.34000  0.93600  1.0000 0.1093904664
H   H87       1.0  0.36260  0.84000  0.06400  1.0000 0.1093904664
H   H88       1.0  0.63740  0.66000  0.56400  1.0000 0.1093904664
H   H89       1.0  0.93480  0.08240  0.36690  1.0000 0.1004864422
H   H90       1.0  0.06520  0.41760  0.86690  1.0000 0.1004864422
H   H91       1.0  0.43480  0.91760  0.13310  1.0000 0.1004864422
H   H92       1.0  0.56520  0.58240  0.63310  1.0000 0.1004864422
H   H93       1.0  0.95730  0.15150  0.33910  1.0000 0.1330028365
H   H94       1.0  0.04270  0.34850  0.83910  1.0000 0.1330028365
H   H95       1.0  0.45730  0.84850  0.16090  1.0000 0.1330028365
H   H96       1.0  0.54270  0.65150  0.66090  1.0000 0.1330028365
H   H97       1.0  0.95110  0.96670  0.54670  1.0000 0.1093904664
H   H98       1.0  0.04890  0.53330  0.04670  1.0000 0.1093904664
H   H99       1.0  0.45110  0.03330  0.95330  1.0000 0.1093904664
H   H100      1.0  0.54890  0.46670  0.45330  1.0000 0.1093904664
H   H101      1.0  0.86600  0.94390  0.50530  1.0000 0.1330028365
H   H102      1.0  0.13400  0.55610  0.00530  1.0000 0.1330028365
H   H103      1.0  0.36600  0.05610  0.99470  1.0000 0.1330028365
H   H104      1.0  0.63400  0.44390  0.49470  1.0000 0.1330028365
H   H105      1.0  0.11100  0.88310  0.47320  1.0000 0.1367678698
H   H106      1.0  0.88900  0.61690  0.97320  1.0000 0.1367678698
H   H107      1.0  0.61100  0.11690  0.02680  1.0000 0.1367678698
H   H108      1.0  0.38900  0.38310  0.52680  1.0000 0.1367678698
H   H109      1.0  0.19070  0.90720  0.51550  1.0000 0.1093904664
H   H110      1.0  0.80930  0.59280  0.01550  1.0000 0.1093904664
H   H111      1.0  0.69070  0.09280  0.98450  1.0000 0.1093904664
H   H112      1.0  0.30930  0.40720  0.48450  1.0000 0.1093904664
H   H113      1.0  0.65730  0.92810  0.47050  1.0000 0.1367678698
H   H114      1.0  0.34270  0.57190  0.97050  1.0000 0.1367678698
H   H115      1.0  0.15730  0.07190  0.02950  1.0000 0.1367678698
H   H116      1.0  0.84270  0.42810  0.52950  1.0000 0.1367678698
H   H117      1.0  0.49950  0.95570  0.46220  1.0000 0.1093904664
H   H118      1.0  0.50050  0.54430  0.96220  1.0000 0.1093904664
H   H119      1.0  0.99950  0.04430  0.03780  1.0000 0.1093904664
H   H120      1.0  0.00050  0.45570  0.53780  1.0000 0.1093904664
H   H121      1.0  0.51800  0.92150  0.37860  1.0000 0.1093904664
H   H122      1.0  0.48200  0.57850  0.87860  1.0000 0.1093904664
H   H123      1.0  0.01800  0.07850  0.12140  1.0000 0.1093904664
H   H124      1.0  0.98200  0.42150  0.62140  1.0000 0.1093904664
H   H125      1.0  0.67470  0.89190  0.38520  1.0000 0.1330028365
H   H126      1.0  0.32530  0.60810  0.88520  1.0000 0.1367678698
H   H127      1.0  0.17470  0.10810  0.11480  1.0000 0.1367678698
H   H128      1.0  0.82530  0.39190  0.61480  1.0000 0.1367678698
H   H129      1.0  0.85580  0.81450  0.36600  1.0000 0.1330028365
H   H130      1.0  0.14420  0.68550  0.86600  1.0000 0.1330028365
H   H131      1.0  0.35580  0.18550  0.13400  1.0000 0.1330028365
H   H132      1.0  0.64420  0.31450  0.63400  1.0000 0.1330028365
H   H133      1.0  0.94390  0.77610  0.32930  1.0000 0.1093904664
H   H134      1.0  0.05610  0.72390  0.82930  1.0000 0.1093904664
H   H135      1.0  0.44390  0.22390  0.17070  1.0000 0.1093904664
H   H136      1.0  0.55610  0.27610  0.67070  1.0000 0.1093904664
H   H137      1.0  0.19150  0.80970  0.36740  1.0000 0.1093904664
H   H138      1.0  0.80850  0.69030  0.86740  1.0000 0.1093904664
H   H139      1.0  0.69150  0.19030  0.13260  1.0000 0.1093904664
H   H140      1.0  0.30850  0.30970  0.63260  1.0000 0.1093904664
H   H141      1.0  0.11070  0.84700  0.40600  1.0000 0.1330028365
H   H142      1.0  0.88930  0.65300  0.90600  1.0000 0.1330028365
H   H143      1.0  0.61070  0.15300  0.09400  1.0000 0.1330028365
H   H144      1.0  0.38930  0.34700  0.59400  1.0000 0.1330028365
H   H145      1.0  0.92760  0.66540  0.77680  1.0000 0.1164556217
H   H146      1.0  0.07240  0.83460  0.27680  1.0000 0.1164556217
H   H147      1.0  0.42760  0.33460  0.72320  1.0000 0.1164556217
H   H148      1.0  0.57240  0.16540  0.22320  1.0000 0.1164556217
H   H149      1.0  0.98730  0.65340  0.72970  1.0000 0.1330028365
H   H150      1.0  0.01270  0.84660  0.22970  1.0000 0.1330028365
H   H151      1.0  0.48730  0.34660  0.77030  1.0000 0.1367678698
H   H152      1.0  0.51270  0.15340  0.27030  1.0000 0.1367678698
H   H153      1.0  0.00550  0.79910  0.72090  1.0000 0.1330028365
H   H154      1.0  0.99450  0.70090  0.22090  1.0000 0.1330028365
H   H155      1.0  0.50550  0.20090  0.77910  1.0000 0.1330028365
H   H156      1.0  0.49450  0.29910  0.27910  1.0000 0.1330028365
H   H157      1.0  0.94850  0.80650  0.76850  1.0000 0.1093904664
H   H158      1.0  0.05150  0.69350  0.26850  1.0000 0.1093904664
H   H159      1.0  0.44850  0.19350  0.73150  1.0000 0.1093904664
H   H160      1.0  0.55150  0.30650  0.23150  1.0000 0.1093904664
H   H161      1.0  0.05750  0.58520  0.67180  1.0000 0.1330028365
H   H162      1.0  0.94250  0.91480  0.17180  1.0000 0.1330028365
H   H163      1.0  0.55750  0.41480  0.82820  1.0000 0.1330028365
H   H164      1.0  0.44250  0.08520  0.32820  1.0000 0.1330028365
H   H165      1.0  0.08460  0.51180  0.64830  1.0000 0.1093904664
H   H166      1.0  0.91540  0.98820  0.14830  1.0000 0.1093904664
H   H167      1.0  0.58460  0.48820  0.85170  1.0000 0.1093904664
H   H168      1.0  0.41540  0.01180  0.35170  1.0000 0.1093904664
H   H169      1.0  0.10500  0.57600  0.57170  1.0000 0.1093904664
H   H170      1.0  0.89500  0.92400  0.07170  1.0000 0.1093904664
H   H171      1.0  0.60500  0.42400  0.92830  1.0000 0.1093904664
H   H172      1.0  0.39500  0.07600  0.42830  1.0000 0.1093904664
H   H173      1.0  0.08310  0.65140  0.59270  1.0000 0.1330028365
H   H174      1.0  0.91690  0.84860  0.09270  1.0000 0.1330028365
H   H175      1.0  0.58310  0.34860  0.90730  1.0000 0.1330028365
H   H176      1.0  0.41690  0.15140  0.40730  1.0000 0.1330028365
H   H177      1.0  0.11000  0.76890  0.58910  1.0000 0.1367678698
H   H178      1.0  0.89000  0.73110  0.08910  1.0000 0.1367678698
H   H179      1.0  0.61000  0.23110  0.91090  1.0000 0.1367678698
H   H180      1.0  0.39000  0.26890  0.41090  1.0000 0.1367678698
H   H181      1.0  0.13740  0.84000  0.56400  1.0000 0.1093904664
H   H182      1.0  0.86260  0.66000  0.06400  1.0000 0.1093904664
H   H183      1.0  0.63740  0.16000  0.93600  1.0000 0.1093904664
H   H184      1.0  0.36260  0.34000  0.43600  1.0000 0.1093904664
H   H185      1.0  0.06520  0.91760  0.63310  1.0000 0.1004864422
H   H186      1.0  0.93480  0.58240  0.13310  1.0000 0.1004864422
H   H187      1.0  0.56520  0.08240  0.86690  1.0000 0.1004864422
H   H188      1.0  0.43480  0.41760  0.36690  1.0000 0.1004864422
H   H189      1.0  0.04270  0.84850  0.66090  1.0000 0.1330028365
H   H190      1.0  0.95730  0.65150  0.16090  1.0000 0.1330028365
H   H191      1.0  0.54270  0.15150  0.83910  1.0000 0.1330028365
H   H192      1.0  0.45730  0.34850  0.33910  1.0000 0.1330028365
C   C1        1.0  0.01640  0.05100  0.46817  1.0000 0.0820790633
C   C2        1.0  0.98360  0.44900  0.96817  1.0000 0.0820790633
C   C3        1.0  0.51640  0.94900  0.03183  1.0000 0.0820790633
C   C4        1.0  0.48360  0.55100  0.53183  1.0000 0.0820790633
C   C5        1.0  0.06740  0.06470  0.49282  1.0000 -0.1417959105
C   C6        1.0  0.93260  0.43530  0.99282  1.0000 -0.1417959105
C   C7        1.0  0.56740  0.93530  0.00718  1.0000 -0.1417959105
C   C8        1.0  0.43260  0.56470  0.50718  1.0000 -0.1417959105
C   C9        1.0  0.02250  0.09061  0.51461  1.0000 0.0540277461
C   C10       1.0  0.97750  0.40939  0.01461  1.0000 0.0540277461
C   C11       1.0  0.52250  0.90939  0.98539  1.0000 0.0540277461
C   C12       1.0  0.47750  0.59061  0.48539  1.0000 0.0540277461
C   C13       1.0  0.92340  0.10050  0.51176  1.0000 -0.1417959105
C   C14       1.0  0.07660  0.39950  0.01176  1.0000 -0.1417959105
C   C15       1.0  0.42340  0.89950  0.98824  1.0000 -0.1417959105
C   C16       1.0  0.57660  0.60050  0.48824  1.0000 -0.1417959105
C   C17       1.0  0.87660  0.08580  0.48654  1.0000 0.0713496587
C   C18       1.0  0.12340  0.41420  0.98654  1.0000 0.0713496587
C   C19       1.0  0.37660  0.91420  0.01346  1.0000 0.0713496587
C   C20       1.0  0.62340  0.58580  0.51346  1.0000 0.0713496587
C   C21       1.0  0.07700  0.10658  0.54101  1.0000 0.3709049278
C   C22       1.0  0.92300  0.39342  0.04101  1.0000 0.3709049278
C   C23       1.0  0.57700  0.89342  0.95899  1.0000 0.3709049278
C   C24       1.0  0.42300  0.60658  0.45899  1.0000 0.3709049278
C   C25       1.0  0.21520  0.10837  0.56740  1.0000 0.3764810485
C   C26       1.0  0.78480  0.39163  0.06740  1.0000 0.3764810485
C   C27       1.0  0.71520  0.89163  0.93260  1.0000 0.3764810485
C   C28       1.0  0.28480  0.60837  0.43260  1.0000 0.3764810485
C   C29       1.0  0.07900  0.14236  0.58524  1.0000 0.3709049278
C   C30       1.0  0.92100  0.35764  0.08524  1.0000 0.3709049278
C   C31       1.0  0.57900  0.85764  0.91476  1.0000 0.3709049278
C   C32       1.0  0.42100  0.64236  0.41476  1.0000 0.3709049278
C   C33       1.0  0.31810  0.09309  0.57146  1.0000 0.0586325955
C   C34       1.0  0.68190  0.40691  0.07146  1.0000 0.0586325955
C   C35       1.0  0.81810  0.90691  0.92854  1.0000 0.0586325955
C   C36       1.0  0.18190  0.59309  0.42854  1.0000 0.0586325955
C   C37       1.0  0.37040  0.07390  0.54853  1.0000 -0.125653418
C   C38       1.0  0.62960  0.42610  0.04853  1.0000 -0.125653418
C   C39       1.0  0.87040  0.92610  0.95147  1.0000 -0.125653418
C   C40       1.0  0.12960  0.57390  0.45147  1.0000 -0.125653418
C   C41       1.0  0.46430  0.05730  0.55365  1.0000 0.0820790633
C   C42       1.0  0.53570  0.44270  0.05365  1.0000 0.0820790633
C   C43       1.0  0.96430  0.94270  0.94635  1.0000 0.0820790633
C   C44       1.0  0.03570  0.55730  0.44635  1.0000 0.0820790633
C   C45       1.0  0.45370  0.07740  0.60250  1.0000 0.0820790633
C   C46       1.0  0.54630  0.42260  0.10250  1.0000 0.0820790633
C   C47       1.0  0.95370  0.92260  0.89750  1.0000 0.0877028223
C   C48       1.0  0.04630  0.57740  0.39750  1.0000 0.0820790633
C   C49       1.0  0.36010  0.09490  0.59868  1.0000 -0.1149297024
C   C50       1.0  0.63990  0.40510  0.09868  1.0000 -0.1149297024
C   C51       1.0  0.86010  0.90510  0.90132  1.0000 -0.1149297024
C   C52       1.0  0.13990  0.59490  0.40132  1.0000 -0.1149297024
C   C53       1.0  0.02660  0.16649  0.60941  1.0000 0.0586325955
C   C54       1.0  0.97340  0.33351  0.10941  1.0000 0.0586325955
C   C55       1.0  0.52660  0.83351  0.89059  1.0000 0.0586325955
C   C56       1.0  0.47340  0.66649  0.39059  1.0000 0.0586325955
C   C57       1.0  0.07530  0.18680  0.63297  1.0000 -0.125653418
C   C58       1.0  0.92470  0.31320  0.13297  1.0000 -0.125653418
C   C59       1.0  0.57530  0.81320  0.86703  1.0000 -0.125653418
C   C60       1.0  0.42470  0.68680  0.36703  1.0000 -0.125653418
C   C61       1.0  0.02220  0.20910  0.65495  1.0000 0.0877028223
C   C62       1.0  0.97780  0.29090  0.15495  1.0000 0.0877028223
C   C63       1.0  0.52220  0.79090  0.84505  1.0000 0.0877028223
C   C64       1.0  0.47780  0.70910  0.34505  1.0000 0.0877028223
C   C65       1.0  0.87760  0.18970  0.63257  1.0000 0.0877028223
C   C66       1.0  0.12240  0.31030  0.13257  1.0000 0.0877028223
C   C67       1.0  0.37760  0.81030  0.86743  1.0000 0.0877028223
C   C68       1.0  0.62240  0.68970  0.36743  1.0000 0.0877028223
C   C69       1.0  0.92520  0.16740  0.60948  1.0000 -0.1228073139
C   C70       1.0  0.07480  0.33260  0.10948  1.0000 -0.1228073139
C   C71       1.0  0.42520  0.83260  0.89052  1.0000 -0.1228073139
C   C72       1.0  0.57480  0.66740  0.39052  1.0000 -0.1228073139
C   C73       1.0  0.05730  0.30718  0.23486  1.0000 0.0820790633
C   C74       1.0  0.94270  0.19282  0.73486  1.0000 0.0877028223
C   C75       1.0  0.55730  0.69282  0.26514  1.0000 0.0820790633
C   C76       1.0  0.44270  0.80718  0.76514  1.0000 0.0820790633
C   C77       1.0  0.02210  0.31474  0.26300  1.0000 -0.158210407
C   C78       1.0  0.97790  0.18526  0.76300  1.0000 -0.158210407
C   C79       1.0  0.52210  0.68526  0.23700  1.0000 -0.158210407
C   C80       1.0  0.47790  0.81474  0.73700  1.0000 -0.158210407
C   C81       1.0  0.00100  0.27458  0.28023  1.0000 0.0586325955
C   C82       1.0  0.99900  0.22542  0.78023  1.0000 0.0586325955
C   C83       1.0  0.50100  0.72542  0.21977  1.0000 0.0586325955
C   C84       1.0  0.49900  0.77458  0.71977  1.0000 0.0586325955
C   C85       1.0  0.01100  0.22890  0.26817  1.0000 -0.1512072955
C   C86       1.0  0.98900  0.27110  0.76817  1.0000 -0.1512072955
C   C87       1.0  0.51100  0.77110  0.23183  1.0000 -0.1512072955
C   C88       1.0  0.48900  0.72890  0.73183  1.0000 -0.1512072955
C   C89       1.0  0.04550  0.22482  0.23983  1.0000 0.1004864422
C   C90       1.0  0.95450  0.27518  0.73983  1.0000 0.1004864422
C   C91       1.0  0.54550  0.77518  0.26017  1.0000 0.1004864422
C   C92       1.0  0.45450  0.72482  0.76017  1.0000 0.1004864422
C   C93       1.0  0.97280  0.27964  0.31148  1.0000 0.3764810485
C   C94       1.0  0.02720  0.22036  0.81148  1.0000 0.3764810485
C   C95       1.0  0.47280  0.72036  0.18852  1.0000 0.3764810485
C   C96       1.0  0.52720  0.77964  0.68852  1.0000 0.3764810485
C   C97       1.0  0.94190  0.32544  0.35126  1.0000 0.3709049278
C   C98       1.0  0.05810  0.17456  0.85126  1.0000 0.3709049278
C   C99       1.0  0.44190  0.67456  0.14874  1.0000 0.3709049278
C   C100      1.0  0.55810  0.82544  0.64874  1.0000 0.3709049278
C   C101      1.0  0.93970  0.24375  0.35472  1.0000 0.3709049278
C   C102      1.0  0.06030  0.25625  0.85472  1.0000 0.3709049278
C   C103      1.0  0.43970  0.75625  0.14528  1.0000 0.3709049278
C   C104      1.0  0.56030  0.74375  0.64528  1.0000 0.3709049278
C   C105      1.0  0.93030  0.37322  0.36524  1.0000 0.0540277461
C   C106      1.0  0.06970  0.12678  0.86524  1.0000 0.0586325955
C   C107      1.0  0.43030  0.62678  0.13476  1.0000 0.0540277461
C   C108      1.0  0.56970  0.87322  0.63476  1.0000 0.0540277461
C   C109      1.0  0.93140  0.41571  0.34875  1.0000 -0.1512072955
C   C110      1.0  0.06860  0.08429  0.84875  1.0000 -0.1512072955
C   C111      1.0  0.43140  0.58429  0.15125  1.0000 -0.1512072955
C   C112      1.0  0.56860  0.91571  0.65125  1.0000 -0.1512072955
C   C113      1.0  0.91590  0.45930  0.36302  1.0000 0.0877028223
C   C114      1.0  0.08410  0.04070  0.86302  1.0000 0.0877028223
C   C115      1.0  0.41590  0.54070  0.13698  1.0000 0.0877028223
C   C116      1.0  0.58410  0.95930  0.63698  1.0000 0.0877028223
C   C117      1.0  0.90330  0.42190  0.40772  1.0000 0.0877028223
C   C118      1.0  0.09670  0.07810  0.90772  1.0000 0.0877028223
C   C119      1.0  0.40330  0.57810  0.09228  1.0000 0.0877028223
C   C120      1.0  0.59670  0.92190  0.59228  1.0000 0.0877028223
C   C121      1.0  0.91680  0.37683  0.39538  1.0000 -0.1417959105
C   C122      1.0  0.08320  0.12317  0.89538  1.0000 -0.1417959105
C   C123      1.0  0.41680  0.62317  0.10462  1.0000 -0.1417959105
C   C124      1.0  0.58320  0.87683  0.60462  1.0000 -0.1417959105
C   C125      1.0  0.92620  0.19948  0.37201  1.0000 0.0540277461
C   C126      1.0  0.07380  0.30052  0.87201  1.0000 0.0540277461
C   C127      1.0  0.42620  0.80052  0.12799  1.0000 0.0540277461
C   C128      1.0  0.57380  0.69948  0.62799  1.0000 0.0540277461
C   C129      1.0  0.89820  0.20094  0.40129  1.0000 -0.158210407
C   C130      1.0  0.10180  0.29906  0.90129  1.0000 -0.158210407
C   C131      1.0  0.39820  0.79906  0.09871  1.0000 -0.158210407
C   C132      1.0  0.60180  0.70094  0.59871  1.0000 -0.158210407
C   C133      1.0  0.88260  0.15841  0.41613  1.0000 0.0820790633
C   C134      1.0  0.11740  0.34159  0.91613  1.0000 0.0820790633
C   C135      1.0  0.38260  0.84159  0.08387  1.0000 0.0820790633
C   C136      1.0  0.61740  0.65841  0.58387  1.0000 0.0820790633
C   C137      1.0  0.92390  0.11311  0.37562  1.0000 0.0877028223
C   C138      1.0  0.07610  0.38689  0.87562  1.0000 0.0877028223
C   C139      1.0  0.42390  0.88689  0.12438  1.0000 0.0877028223
C   C140      1.0  0.57610  0.61311  0.62438  1.0000 0.0877028223
C   C141      1.0  0.93880  0.15405  0.35902  1.0000 -0.158210407
C   C142      1.0  0.06120  0.34595  0.85902  1.0000 -0.158210407
C   C143      1.0  0.43880  0.84595  0.14098  1.0000 -0.158210407
C   C144      1.0  0.56120  0.65405  0.64098  1.0000 -0.158210407
C   C145      1.0  0.98360  0.94900  0.53183  1.0000 0.0820790633
C   C146      1.0  0.01640  0.55100  0.03183  1.0000 0.0820790633
C   C147      1.0  0.48360  0.05100  0.96817  1.0000 0.0820790633
C   C148      1.0  0.51640  0.44900  0.46817  1.0000 0.0820790633
C   C149      1.0  0.93260  0.93530  0.50718  1.0000 -0.1417959105
C   C150      1.0  0.06740  0.56470  0.00718  1.0000 -0.1417959105
C   C151      1.0  0.43260  0.06470  0.99282  1.0000 -0.1417959105
C   C152      1.0  0.56740  0.43530  0.49282  1.0000 -0.1417959105
C   C153      1.0  0.97750  0.90939  0.48539  1.0000 0.0540277461
C   C154      1.0  0.02250  0.59061  0.98539  1.0000 0.0540277461
C   C155      1.0  0.47750  0.09061  0.01461  1.0000 0.0540277461
C   C156      1.0  0.52250  0.40939  0.51461  1.0000 0.0540277461
C   C157      1.0  0.07660  0.89950  0.48824  1.0000 -0.1417959105
C   C158      1.0  0.92340  0.60050  0.98824  1.0000 -0.1417959105
C   C159      1.0  0.57660  0.10050  0.01176  1.0000 -0.1417959105
C   C160      1.0  0.42340  0.39950  0.51176  1.0000 -0.1417959105
C   C161      1.0  0.12340  0.91420  0.51346  1.0000 0.0713496587
C   C162      1.0  0.87660  0.58580  0.01346  1.0000 0.0713496587
C   C163      1.0  0.62340  0.08580  0.98654  1.0000 0.0713496587
C   C164      1.0  0.37660  0.41420  0.48654  1.0000 0.0713496587
C   C165      1.0  0.92300  0.89342  0.45899  1.0000 0.3709049278
C   C166      1.0  0.07700  0.60658  0.95899  1.0000 0.3709049278
C   C167      1.0  0.42300  0.10658  0.04101  1.0000 0.3709049278
C   C168      1.0  0.57700  0.39342  0.54101  1.0000 0.3709049278
C   C169      1.0  0.78480  0.89163  0.43260  1.0000 0.3764810485
C   C170      1.0  0.21520  0.60837  0.93260  1.0000 0.3764810485
C   C171      1.0  0.28480  0.10837  0.06740  1.0000 0.3764810485
C   C172      1.0  0.71520  0.39163  0.56740  1.0000 0.3764810485
C   C173      1.0  0.92100  0.85764  0.41476  1.0000 0.3709049278
C   C174      1.0  0.07900  0.64236  0.91476  1.0000 0.3709049278
C   C175      1.0  0.42100  0.14236  0.08524  1.0000 0.3709049278
C   C176      1.0  0.57900  0.35764  0.58524  1.0000 0.3709049278
C   C177      1.0  0.68190  0.90691  0.42854  1.0000 0.0586325955
C   C178      1.0  0.31810  0.59309  0.92854  1.0000 0.0586325955
C   C179      1.0  0.18190  0.09309  0.07146  1.0000 0.0586325955
C   C180      1.0  0.81810  0.40691  0.57146  1.0000 0.0586325955
C   C181      1.0  0.62960  0.92610  0.45147  1.0000 -0.125653418
C   C182      1.0  0.37040  0.57390  0.95147  1.0000 -0.125653418
C   C183      1.0  0.12960  0.07390  0.04853  1.0000 -0.125653418
C   C184      1.0  0.87040  0.42610  0.54853  1.0000 -0.125653418
C   C185      1.0  0.53570  0.94270  0.44635  1.0000 0.0820790633
C   C186      1.0  0.46430  0.55730  0.94635  1.0000 0.0820790633
C   C187      1.0  0.03570  0.05730  0.05365  1.0000 0.0820790633
C   C188      1.0  0.96430  0.44270  0.55365  1.0000 0.0820790633
C   C189      1.0  0.54630  0.92260  0.39750  1.0000 0.0820790633
C   C190      1.0  0.45370  0.57740  0.89750  1.0000 0.0820790633
C   C191      1.0  0.04630  0.07740  0.10250  1.0000 0.0820790633
C   C192      1.0  0.95370  0.42260  0.60250  1.0000 0.0877028223
C   C193      1.0  0.63990  0.90510  0.40132  1.0000 -0.1149297024
C   C194      1.0  0.36010  0.59490  0.90132  1.0000 -0.1149297024
C   C195      1.0  0.13990  0.09490  0.09868  1.0000 -0.1149297024
C   C196      1.0  0.86010  0.40510  0.59868  1.0000 -0.1149297024
C   C197      1.0  0.97340  0.83351  0.39059  1.0000 0.0586325955
C   C198      1.0  0.02660  0.66649  0.89059  1.0000 0.0586325955
C   C199      1.0  0.47340  0.16649  0.10941  1.0000 0.0586325955
C   C200      1.0  0.52660  0.33351  0.60941  1.0000 0.0586325955
C   C201      1.0  0.92470  0.81320  0.36703  1.0000 -0.125653418
C   C202      1.0  0.07530  0.68680  0.86703  1.0000 -0.125653418
C   C203      1.0  0.42470  0.18680  0.13297  1.0000 -0.125653418
C   C204      1.0  0.57530  0.31320  0.63297  1.0000 -0.125653418
C   C205      1.0  0.97780  0.79090  0.34505  1.0000 0.0877028223
C   C206      1.0  0.02220  0.70910  0.84505  1.0000 0.0877028223
C   C207      1.0  0.47780  0.20910  0.15495  1.0000 0.0877028223
C   C208      1.0  0.52220  0.29090  0.65495  1.0000 0.0877028223
C   C209      1.0  0.12240  0.81030  0.36743  1.0000 0.0877028223
C   C210      1.0  0.87760  0.68970  0.86743  1.0000 0.0877028223
C   C211      1.0  0.62240  0.18970  0.13257  1.0000 0.0877028223
C   C212      1.0  0.37760  0.31030  0.63257  1.0000 0.0877028223
C   C213      1.0  0.07480  0.83260  0.39052  1.0000 -0.1228073139
C   C214      1.0  0.92520  0.66740  0.89052  1.0000 -0.1228073139
C   C215      1.0  0.57480  0.16740  0.10948  1.0000 -0.1228073139
C   C216      1.0  0.42520  0.33260  0.60948  1.0000 -0.1228073139
C   C217      1.0  0.94270  0.69282  0.76514  1.0000 0.0877028223
C   C218      1.0  0.05730  0.80718  0.26514  1.0000 0.0820790633
C   C219      1.0  0.44270  0.30718  0.73486  1.0000 0.0877028223
C   C220      1.0  0.55730  0.19282  0.23486  1.0000 0.0820790633
C   C221      1.0  0.97790  0.68526  0.73700  1.0000 -0.158210407
C   C222      1.0  0.02210  0.81474  0.23700  1.0000 -0.158210407
C   C223      1.0  0.47790  0.31474  0.76300  1.0000 -0.158210407
C   C224      1.0  0.52210  0.18526  0.26300  1.0000 -0.158210407
C   C225      1.0  0.99900  0.72542  0.71977  1.0000 0.0586325955
C   C226      1.0  0.00100  0.77458  0.21977  1.0000 0.0586325955
C   C227      1.0  0.49900  0.27458  0.78023  1.0000 0.0586325955
C   C228      1.0  0.50100  0.22542  0.28023  1.0000 0.0586325955
C   C229      1.0  0.98900  0.77110  0.73183  1.0000 -0.1512072955
C   C230      1.0  0.01100  0.72890  0.23183  1.0000 -0.1512072955
C   C231      1.0  0.48900  0.22890  0.76817  1.0000 -0.1512072955
C   C232      1.0  0.51100  0.27110  0.26817  1.0000 -0.1512072955
C   C233      1.0  0.95450  0.77518  0.76017  1.0000 0.1004864422
C   C234      1.0  0.04550  0.72482  0.26017  1.0000 0.1004864422
C   C235      1.0  0.45450  0.22482  0.73983  1.0000 0.1004864422
C   C236      1.0  0.54550  0.27518  0.23983  1.0000 0.1004864422
C   C237      1.0  0.02720  0.72036  0.68852  1.0000 0.3764810485
C   C238      1.0  0.97280  0.77964  0.18852  1.0000 0.3764810485
C   C239      1.0  0.52720  0.27964  0.81148  1.0000 0.3764810485
C   C240      1.0  0.47280  0.22036  0.31148  1.0000 0.3764810485
C   C241      1.0  0.05810  0.67456  0.64874  1.0000 0.3709049278
C   C242      1.0  0.94190  0.82544  0.14874  1.0000 0.3709049278
C   C243      1.0  0.55810  0.32544  0.85126  1.0000 0.3709049278
C   C244      1.0  0.44190  0.17456  0.35126  1.0000 0.3709049278
C   C245      1.0  0.06030  0.75625  0.64528  1.0000 0.3709049278
C   C246      1.0  0.93970  0.74375  0.14528  1.0000 0.3709049278
C   C247      1.0  0.56030  0.24375  0.85472  1.0000 0.3709049278
C   C248      1.0  0.43970  0.25625  0.35472  1.0000 0.3709049278
C   C249      1.0  0.06970  0.62678  0.63476  1.0000 0.0540277461
C   C250      1.0  0.93030  0.87322  0.13476  1.0000 0.0540277461
C   C251      1.0  0.56970  0.37322  0.86524  1.0000 0.0586325955
C   C252      1.0  0.43030  0.12678  0.36524  1.0000 0.0540277461
C   C253      1.0  0.06860  0.58429  0.65125  1.0000 -0.1512072955
C   C254      1.0  0.93140  0.91571  0.15125  1.0000 -0.1512072955
C   C255      1.0  0.56860  0.41571  0.84875  1.0000 -0.1512072955
C   C256      1.0  0.43140  0.08429  0.34875  1.0000 -0.1512072955
C   C257      1.0  0.08410  0.54070  0.63698  1.0000 0.0877028223
C   C258      1.0  0.91590  0.95930  0.13698  1.0000 0.0877028223
C   C259      1.0  0.58410  0.45930  0.86302  1.0000 0.0877028223
C   C260      1.0  0.41590  0.04070  0.36302  1.0000 0.0877028223
C   C261      1.0  0.09670  0.57810  0.59228  1.0000 0.0877028223
C   C262      1.0  0.90330  0.92190  0.09228  1.0000 0.0877028223
C   C263      1.0  0.59670  0.42190  0.90772  1.0000 0.0877028223
C   C264      1.0  0.40330  0.07810  0.40772  1.0000 0.0877028223
C   C265      1.0  0.08320  0.62317  0.60462  1.0000 -0.1417959105
C   C266      1.0  0.91680  0.87683  0.10462  1.0000 -0.1417959105
C   C267      1.0  0.58320  0.37683  0.89538  1.0000 -0.1417959105
C   C268      1.0  0.41680  0.12317  0.39538  1.0000 -0.1417959105
C   C269      1.0  0.07380  0.80052  0.62799  1.0000 0.0540277461
C   C270      1.0  0.92620  0.69948  0.12799  1.0000 0.0540277461
C   C271      1.0  0.57380  0.19948  0.87201  1.0000 0.0540277461
C   C272      1.0  0.42620  0.30052  0.37201  1.0000 0.0540277461
C   C273      1.0  0.10180  0.79906  0.59871  1.0000 -0.158210407
C   C274      1.0  0.89820  0.70094  0.09871  1.0000 -0.158210407
C   C275      1.0  0.60180  0.20094  0.90129  1.0000 -0.158210407
C   C276      1.0  0.39820  0.29906  0.40129  1.0000 -0.158210407
C   C277      1.0  0.11740  0.84159  0.58387  1.0000 0.0820790633
C   C278      1.0  0.88260  0.65841  0.08387  1.0000 0.0820790633
C   C279      1.0  0.61740  0.15841  0.91613  1.0000 0.0820790633
C   C280      1.0  0.38260  0.34159  0.41613  1.0000 0.0820790633
C   C281      1.0  0.07610  0.88689  0.62438  1.0000 0.0877028223
C   C282      1.0  0.92390  0.61311  0.12438  1.0000 0.0877028223
C   C283      1.0  0.57610  0.11311  0.87562  1.0000 0.0877028223
C   C284      1.0  0.42390  0.38689  0.37562  1.0000 0.0877028223
C   C285      1.0  0.06120  0.84595  0.64098  1.0000 -0.158210407
C   C286      1.0  0.93880  0.65405  0.14098  1.0000 -0.158210407
C   C287      1.0  0.56120  0.15405  0.85902  1.0000 -0.158210407
C   C288      1.0  0.43880  0.34595  0.35902  1.0000 -0.158210407
I   I1        1.0  0.94744  0.98393  0.39815  1.0000 -0.4313803448
I   I2        1.0  0.05256  0.51607  0.89815  1.0000 -0.4313803448
I   I3        1.0  0.44744  0.01607  0.10185  1.0000 -0.4313803448
I   I4        1.0  0.55256  0.48393  0.60185  1.0000 -0.4313803448
I   I5        1.0  0.67242  0.05634  0.43194  1.0000 -0.4678227753
I   I6        1.0  0.32758  0.44366  0.93194  1.0000 -0.4643166683
I   I7        1.0  0.17242  0.94366  0.06806  1.0000 -0.4643166683
I   I8        1.0  0.82758  0.55634  0.56806  1.0000 -0.4678227753
I   I9        1.0  0.69144  0.19528  0.69417  1.0000 -0.4678227753
I   I10       1.0  0.30856  0.30472  0.19417  1.0000 -0.4678227753
I   I11       1.0  0.19144  0.80472  0.80583  1.0000 -0.4678227753
I   I12       1.0  0.80856  0.69528  0.30583  1.0000 -0.4678227753
I   I13       1.0  0.83316  0.33578  0.67567  1.0000 -0.4678227753
I   I14       1.0  0.16684  0.16422  0.17567  1.0000 -0.4678227753
I   I15       1.0  0.33316  0.66422  0.82433  1.0000 -0.4678227753
I   I16       1.0  0.66684  0.83578  0.32433  1.0000 -0.4678227753
I   I17       1.0  0.72536  0.07449  0.62858  1.0000 -0.4416305146
I   I18       1.0  0.27464  0.42551  0.12858  1.0000 -0.4416305146
I   I19       1.0  0.22536  0.92551  0.87142  1.0000 -0.4416305146
I   I20       1.0  0.77464  0.57449  0.37142  1.0000 -0.4416305146
I   I21       1.0  0.71687  0.00895  0.53916  1.0000 -0.4678227753
I   I22       1.0  0.28313  0.49105  0.03916  1.0000 -0.4678227753
I   I23       1.0  0.21687  0.99105  0.96084  1.0000 -0.4678227753
I   I24       1.0  0.78313  0.50895  0.46084  1.0000 -0.4678227753
I   I25       1.0  0.05256  0.01607  0.60185  1.0000 -0.4313803448
I   I26       1.0  0.94744  0.48393  0.10185  1.0000 -0.4313803448
I   I27       1.0  0.55256  0.98393  0.89815  1.0000 -0.4313803448
I   I28       1.0  0.44744  0.51607  0.39815  1.0000 -0.4313803448
I   I29       1.0  0.32758  0.94366  0.56806  1.0000 -0.4643166683
I   I30       1.0  0.67242  0.55634  0.06806  1.0000 -0.4678227753
I   I31       1.0  0.82758  0.05634  0.93194  1.0000 -0.4678227753
I   I32       1.0  0.17242  0.44366  0.43194  1.0000 -0.4643166683
I   I33       1.0  0.30856  0.80472  0.30583  1.0000 -0.4678227753
I   I34       1.0  0.69144  0.69528  0.80583  1.0000 -0.4678227753
I   I35       1.0  0.80856  0.19528  0.19417  1.0000 -0.4678227753
I   I36       1.0  0.19144  0.30472  0.69417  1.0000 -0.4678227753
I   I37       1.0  0.16684  0.66422  0.32433  1.0000 -0.4678227753
I   I38       1.0  0.83316  0.83578  0.82433  1.0000 -0.4678227753
I   I39       1.0  0.66684  0.33578  0.17567  1.0000 -0.4678227753
I   I40       1.0  0.33316  0.16422  0.67567  1.0000 -0.4678227753
I   I41       1.0  0.27464  0.92551  0.37142  1.0000 -0.4416305146
I   I42       1.0  0.72536  0.57449  0.87142  1.0000 -0.4416305146
I   I43       1.0  0.77464  0.07449  0.12858  1.0000 -0.4416305146
I   I44       1.0  0.22536  0.42551  0.62858  1.0000 -0.4416305146
I   I45       1.0  0.28313  0.99105  0.46084  1.0000 -0.4678227753
I   I46       1.0  0.71687  0.50895  0.96084  1.0000 -0.4678227753
I   I47       1.0  0.78313  0.00895  0.03916  1.0000 -0.4678227753
I   I48       1.0  0.21687  0.49105  0.53916  1.0000 -0.4678227753
N   N1        1.0  0.92220  0.06200  0.46472  1.0000 -0.1873064088
N   N2        1.0  0.07780  0.43800  0.96472  1.0000 -0.1873064088
N   N3        1.0  0.42220  0.93800  0.03528  1.0000 -0.1873064088
N   N4        1.0  0.57780  0.56200  0.53528  1.0000 -0.1873064088
N   N5        1.0  0.17070  0.09495  0.54262  1.0000 -0.3801727614
N   N6        1.0  0.82930  0.40505  0.04262  1.0000 -0.3801727614
N   N7        1.0  0.67070  0.90505  0.95738  1.0000 -0.3801727614
N   N8        1.0  0.32930  0.59495  0.45738  1.0000 -0.3801727614
N   N9        1.0  0.17290  0.13324  0.58917  1.0000 -0.3724114916
N   N10       1.0  0.82710  0.36676  0.08917  1.0000 -0.3724114916
N   N11       1.0  0.67290  0.86676  0.91083  1.0000 -0.3724114916
N   N12       1.0  0.32710  0.63324  0.41083  1.0000 -0.3724114916
N   N13       1.0  0.02710  0.13053  0.56156  1.0000 -0.3854521534
N   N14       1.0  0.97290  0.36947  0.06156  1.0000 -0.3854521534
N   N15       1.0  0.52710  0.86947  0.93844  1.0000 -0.3854521534
N   N16       1.0  0.47290  0.63053  0.43844  1.0000 -0.3854521534
N   N17       1.0  0.50550  0.05902  0.58027  1.0000 -0.1789067173
N   N18       1.0  0.49450  0.44098  0.08027  1.0000 -0.1789067173
N   N19       1.0  0.00550  0.94098  0.91973  1.0000 -0.1789067173
N   N20       1.0  0.99450  0.55902  0.41973  1.0000 -0.1789067173
N   N21       1.0  0.92500  0.21045  0.65484  1.0000 -0.1789067173
N   N22       1.0  0.07500  0.28955  0.15484  1.0000 -0.1789067173
N   N23       1.0  0.42500  0.78955  0.84516  1.0000 -0.1789067173
N   N24       1.0  0.57500  0.71045  0.34516  1.0000 -0.1789067173
N   N25       1.0  0.07100  0.26309  0.22354  1.0000 -0.1873064088
N   N26       1.0  0.92900  0.23691  0.72354  1.0000 -0.1873064088
N   N27       1.0  0.57100  0.73691  0.27646  1.0000 -0.1873064088
N   N28       1.0  0.42900  0.76309  0.77646  1.0000 -0.1873064088
N   N29       1.0  0.96430  0.32414  0.32260  1.0000 -0.4122252262
N   N30       1.0  0.03570  0.17586  0.82260  1.0000 -0.4122252262
N   N31       1.0  0.46430  0.67586  0.17740  1.0000 -0.4122252262
N   N32       1.0  0.53570  0.82414  0.67740  1.0000 -0.4122252262
N   N33       1.0  0.92890  0.28647  0.36810  1.0000 -0.4122252262
N   N34       1.0  0.07110  0.21353  0.86810  1.0000 -0.4122252262
N   N35       1.0  0.42890  0.71353  0.13190  1.0000 -0.4122252262
N   N36       1.0  0.57110  0.78647  0.63190  1.0000 -0.4122252262
N   N37       1.0  0.96140  0.23836  0.32633  1.0000 -0.4122252262
N   N38       1.0  0.03860  0.26164  0.82633  1.0000 -0.4122252262
N   N39       1.0  0.46140  0.76164  0.17367  1.0000 -0.4122252262
N   N40       1.0  0.53860  0.73836  0.67367  1.0000 -0.4122252262
N   N41       1.0  0.90140  0.46275  0.39203  1.0000 -0.1789067173
N   N42       1.0  0.09860  0.03725  0.89203  1.0000 -0.1789067173
N   N43       1.0  0.40140  0.53725  0.10797  1.0000 -0.1789067173
N   N44       1.0  0.59860  0.96275  0.60797  1.0000 -0.1789067173
N   N45       1.0  0.89460  0.11465  0.40373  1.0000 -0.1873064088
N   N46       1.0  0.10540  0.38535  0.90373  1.0000 -0.1873064088
N   N47       1.0  0.39460  0.88535  0.09627  1.0000 -0.1873064088
N   N48       1.0  0.60540  0.61465  0.59627  1.0000 -0.1873064088
N   N49       1.0  0.07780  0.93800  0.53528  1.0000 -0.1873064088
N   N50       1.0  0.92220  0.56200  0.03528  1.0000 -0.1873064088
N   N51       1.0  0.57780  0.06200  0.96472  1.0000 -0.1873064088
N   N52       1.0  0.42220  0.43800  0.46472  1.0000 -0.1873064088
N   N53       1.0  0.82930  0.90505  0.45738  1.0000 -0.3801727614
N   N54       1.0  0.17070  0.59495  0.95738  1.0000 -0.3801727614
N   N55       1.0  0.32930  0.09495  0.04262  1.0000 -0.3801727614
N   N56       1.0  0.67070  0.40505  0.54262  1.0000 -0.3801727614
N   N57       1.0  0.82710  0.86676  0.41083  1.0000 -0.3724114916
N   N58       1.0  0.17290  0.63324  0.91083  1.0000 -0.3724114916
N   N59       1.0  0.32710  0.13324  0.08917  1.0000 -0.3724114916
N   N60       1.0  0.67290  0.36676  0.58917  1.0000 -0.3724114916
N   N61       1.0  0.97290  0.86947  0.43844  1.0000 -0.3854521534
N   N62       1.0  0.02710  0.63053  0.93844  1.0000 -0.3854521534
N   N63       1.0  0.47290  0.13053  0.06156  1.0000 -0.3854521534
N   N64       1.0  0.52710  0.36947  0.56156  1.0000 -0.3854521534
N   N65       1.0  0.49450  0.94098  0.41973  1.0000 -0.1789067173
N   N66       1.0  0.50550  0.55902  0.91973  1.0000 -0.1789067173
N   N67       1.0  0.99450  0.05902  0.08027  1.0000 -0.1789067173
N   N68       1.0  0.00550  0.44098  0.58027  1.0000 -0.1789067173
N   N69       1.0  0.07500  0.78955  0.34516  1.0000 -0.1789067173
N   N70       1.0  0.92500  0.71045  0.84516  1.0000 -0.1789067173
N   N71       1.0  0.57500  0.21045  0.15484  1.0000 -0.1789067173
N   N72       1.0  0.42500  0.28955  0.65484  1.0000 -0.1789067173
N   N73       1.0  0.92900  0.73691  0.77646  1.0000 -0.1873064088
N   N74       1.0  0.07100  0.76309  0.27646  1.0000 -0.1873064088
N   N75       1.0  0.42900  0.26309  0.72354  1.0000 -0.1873064088
N   N76       1.0  0.57100  0.23691  0.22354  1.0000 -0.1873064088
N   N77       1.0  0.03570  0.67586  0.67740  1.0000 -0.4122252262
N   N78       1.0  0.96430  0.82414  0.17740  1.0000 -0.4122252262
N   N79       1.0  0.53570  0.32414  0.82260  1.0000 -0.4122252262
N   N80       1.0  0.46430  0.17586  0.32260  1.0000 -0.4122252262
N   N81       1.0  0.07110  0.71353  0.63190  1.0000 -0.4122252262
N   N82       1.0  0.92890  0.78647  0.13190  1.0000 -0.4122252262
N   N83       1.0  0.57110  0.28647  0.86810  1.0000 -0.4122252262
N   N84       1.0  0.42890  0.21353  0.36810  1.0000 -0.4122252262
N   N85       1.0  0.03860  0.76164  0.67367  1.0000 -0.4122252262
N   N86       1.0  0.96140  0.73836  0.17367  1.0000 -0.4122252262
N   N87       1.0  0.53860  0.23836  0.82633  1.0000 -0.4122252262
N   N88       1.0  0.46140  0.26164  0.32633  1.0000 -0.4122252262
N   N89       1.0  0.09860  0.53725  0.60797  1.0000 -0.1789067173
N   N90       1.0  0.90140  0.96275  0.10797  1.0000 -0.1789067173
N   N91       1.0  0.59860  0.46275  0.89203  1.0000 -0.1789067173
N   N92       1.0  0.40140  0.03725  0.39203  1.0000 -0.1789067173
N   N93       1.0  0.10540  0.88535  0.59627  1.0000 -0.1873064088
N   N94       1.0  0.89460  0.61465  0.09627  1.0000 -0.1873064088
N   N95       1.0  0.60540  0.11465  0.90373  1.0000 -0.1873064088
N   N96       1.0  0.39460  0.38535  0.40373  1.0000 -0.1873064088
