# DDEC6 charges by PACMAN v1.1 (https://github.com/mtap-research/PACMAN-charge/)
data_2005[Er][nan]3[ASR]2
_chemical_formula_sum              "Er2 H12 C12 O18"
_cell_length_a       5.9565
_cell_length_b       7.3716
_cell_length_c       13.1769
_cell_angle_alpha    102.925
_cell_angle_beta     101.637
_cell_angle_gamma    90.785

_symmetry_space_group_name_H-M    "P 1"
_symmetry_Int_Tables_number       1

loop_
  _symmetry_equiv_pos_as_xyz
  'x, y, z'

loop_
  _atom_site_type_symbol
  _atom_site_label
  _atom_site_symmetry_multiplicity
  _atom_site_fract_x
  _atom_site_fract_y
  _atom_site_fract_z
  _atom_site_occupancy
  _atom_site_charge
Er  Er1       1.0  0.02039  0.81920  0.67901  1.0000 1.9856152302
Er  Er2       1.0  0.97965  0.18057  0.32105  1.0000 1.9808518654
H   H1        1.0  0.35280  0.95770  0.05730  1.0000 0.1033504969
H   H2        1.0  0.65150  0.89760  0.95720  1.0000 0.1061767927
H   H3        1.0  0.49390  0.31960  0.56570  1.0000 0.1260970797
H   H4        1.0  0.47170  0.27880  0.73000  1.0000 0.1241554981
H   H5        1.0  0.51170  0.75470  0.43350  1.0000 0.1260970797
H   H6        1.0  0.55060  0.59710  0.26680  1.0000 0.1260970797
H   H7        1.0  0.20360  0.21960  0.06570  1.0000 0.3421042031
H   H8        1.0  0.76990  0.10860  0.89590  1.0000 0.3421042031
H   H9        1.0  0.24030  0.00940  0.48720  1.0000 0.3421042031
H   H10       1.0  0.16640  0.20410  0.75610  1.0000 0.3728997773
H   H11       1.0  0.76600  0.51100  0.50790  1.0000 0.3421042031
H   H12       1.0  0.85590  0.49830  0.24710  1.0000 0.3728997773
C   C1        1.0  0.21200  0.94330  0.89730  1.0000 0.547673679
C   C2        1.0  0.37120  0.03050  0.00360  1.0000 0.0196198905
C   C3        1.0  0.62100  0.02880  0.98920  1.0000 0.0336449919
C   C4        1.0  0.78000  0.08900  0.10060  1.0000 0.5358653432
C   C5        1.0  0.15760  0.38910  0.56830  1.0000 0.63617549
C   C6        1.0  0.34840  0.25160  0.56690  1.0000 0.0103332768
C   C7        1.0  0.38410  0.17900  0.67010  1.0000 -0.0154625242
C   C8        1.0  0.51520  0.00490  0.66420  1.0000 0.6177183753
C   C9        1.0  0.84930  0.83390  0.43430  1.0000 0.6312205857
C   C10       1.0  0.65820  0.69030  0.43230  1.0000 0.0103332768
C   C11       1.0  0.62910  0.54280  0.32670  1.0000 -0.0154625242
C   C12       1.0  0.49110  0.37100  0.32860  1.0000 0.6312205857
O   O1        1.0  0.25670  0.78080  0.84840  1.0000 -0.6298317248
O   O2        1.0  0.04340  0.01980  0.85860  1.0000 -0.6094751591
O   O3        1.0  0.32440  0.21650  0.04040  1.0000 -0.4249679977
O   O4        1.0  0.64790  0.13730  0.91830  1.0000 -0.4359906846
O   O5        1.0  0.74880  0.98810  0.16390  1.0000 -0.6207858954
O   O6        1.0  0.92060  0.21580  0.12350  1.0000 -0.555107736
O   O7        1.0  0.17830  0.52670  0.64450  1.0000 -0.6094751591
O   O8        1.0  0.98340  0.34730  0.49250  1.0000 -0.6429074043
O   O9        1.0  0.28790  0.10630  0.47110  1.0000 -0.5470623011
O   O10       1.0  0.16380  0.14340  0.69290  1.0000 -0.509323799
O   O11       1.0  0.40730  0.85680  0.67060  1.0000 -0.6465047831
O   O12       1.0  0.71760  0.01100  0.65560  1.0000 -0.6207858954
O   O13       1.0  0.02460  0.85370  0.50840  1.0000 -0.6298317248
O   O14       1.0  0.82370  0.91690  0.35960  1.0000 -0.6207858954
O   O15       1.0  0.71640  0.61870  0.52540  1.0000 -0.5434317225
O   O16       1.0  0.85050  0.48660  0.30930  1.0000 -0.5223458046
O   O17       1.0  0.59490  0.22290  0.32710  1.0000 -0.6094751591
O   O18       1.0  0.28260  0.38460  0.33150  1.0000 -0.6574490899
