# DDEC6 charges by PACMAN v1.1 (https://github.com/mtap-research/PACMAN-charge/)
data_2006[Ag][nan]3[ASR]2
_chemical_formula_sum              "Ag48 H288 C240 N96"
_cell_length_a       23.51
_cell_length_b       23.51
_cell_length_c       23.51
_cell_angle_alpha    109.471
_cell_angle_beta     109.471
_cell_angle_gamma    109.471

_symmetry_space_group_name_H-M    "P 1"
_symmetry_Int_Tables_number       1

loop_
  _symmetry_equiv_pos_as_xyz
  'x, y, z'

loop_
  _atom_site_type_symbol
  _atom_site_label
  _atom_site_symmetry_multiplicity
  _atom_site_fract_x
  _atom_site_fract_y
  _atom_site_fract_z
  _atom_site_occupancy
  _atom_site_charge
Ag  Ag1       1.0  0.98392  0.03566  0.57996  1.0000 0.2462210979
Ag  Ag2       1.0  0.95570  0.40396  0.92004  1.0000 0.2462210979
Ag  Ag3       1.0  0.54430  0.46434  0.44826  1.0000 0.2462210979
Ag  Ag4       1.0  0.51608  0.09604  0.05174  1.0000 0.2462210979
Ag  Ag5       1.0  0.57996  0.98392  0.03566  1.0000 0.2462210979
Ag  Ag6       1.0  0.92004  0.95570  0.40396  1.0000 0.2462210979
Ag  Ag7       1.0  0.44826  0.54430  0.46434  1.0000 0.2462210979
Ag  Ag8       1.0  0.05174  0.51608  0.09604  1.0000 0.2462210979
Ag  Ag9       1.0  0.03566  0.57996  0.98392  1.0000 0.2462210979
Ag  Ag10      1.0  0.40396  0.92004  0.95570  1.0000 0.2462210979
Ag  Ag11      1.0  0.46434  0.44826  0.54430  1.0000 0.2462210979
Ag  Ag12      1.0  0.09604  0.05174  0.51608  1.0000 0.2462210979
Ag  Ag13      1.0  0.53566  0.48392  0.07996  1.0000 0.2462210979
Ag  Ag14      1.0  0.90396  0.45570  0.42004  1.0000 0.2462210979
Ag  Ag15      1.0  0.96434  0.04430  0.94826  1.0000 0.2462210979
Ag  Ag16      1.0  0.59604  0.01608  0.55174  1.0000 0.2462210979
Ag  Ag17      1.0  0.48392  0.07996  0.53566  1.0000 0.2462210979
Ag  Ag18      1.0  0.45570  0.42004  0.90396  1.0000 0.2462210979
Ag  Ag19      1.0  0.04430  0.94826  0.96434  1.0000 0.2462210979
Ag  Ag20      1.0  0.01608  0.55174  0.59604  1.0000 0.2462210979
Ag  Ag21      1.0  0.07996  0.53566  0.48392  1.0000 0.2462210979
Ag  Ag22      1.0  0.42004  0.90396  0.45570  1.0000 0.2462210979
Ag  Ag23      1.0  0.94826  0.96434  0.04430  1.0000 0.2462210979
Ag  Ag24      1.0  0.55174  0.59604  0.01608  1.0000 0.2462210979
Ag  Ag25      1.0  0.36419  0.41530  0.00839  1.0000 0.2427327267
Ag  Ag26      1.0  0.90691  0.35580  0.49161  1.0000 0.2427327267
Ag  Ag27      1.0  0.59309  0.08470  0.44889  1.0000 0.2427327267
Ag  Ag28      1.0  0.13581  0.14420  0.05111  1.0000 0.2427327267
Ag  Ag29      1.0  0.00839  0.36419  0.41530  1.0000 0.2427327267
Ag  Ag30      1.0  0.49161  0.90691  0.35580  1.0000 0.2427327267
Ag  Ag31      1.0  0.44889  0.59309  0.08470  1.0000 0.2427327267
Ag  Ag32      1.0  0.05111  0.13581  0.14420  1.0000 0.2427327267
Ag  Ag33      1.0  0.41530  0.00839  0.36419  1.0000 0.2427327267
Ag  Ag34      1.0  0.35580  0.49161  0.90691  1.0000 0.2427327267
Ag  Ag35      1.0  0.08470  0.44889  0.59309  1.0000 0.2427327267
Ag  Ag36      1.0  0.14420  0.05111  0.13581  1.0000 0.2427327267
Ag  Ag37      1.0  0.91530  0.86419  0.50839  1.0000 0.2427327267
Ag  Ag38      1.0  0.85580  0.40691  0.99161  1.0000 0.2427327267
Ag  Ag39      1.0  0.58470  0.09309  0.94889  1.0000 0.2427327267
Ag  Ag40      1.0  0.64420  0.63581  0.55111  1.0000 0.2427327267
Ag  Ag41      1.0  0.86419  0.50839  0.91530  1.0000 0.2427327267
Ag  Ag42      1.0  0.40691  0.99161  0.85580  1.0000 0.2427327267
Ag  Ag43      1.0  0.09309  0.94889  0.58470  1.0000 0.2427327267
Ag  Ag44      1.0  0.63581  0.55111  0.64420  1.0000 0.2427327267
Ag  Ag45      1.0  0.50839  0.91530  0.86419  1.0000 0.2427327267
Ag  Ag46      1.0  0.99161  0.85580  0.40691  1.0000 0.2427327267
Ag  Ag47      1.0  0.94889  0.58470  0.09309  1.0000 0.2427327267
Ag  Ag48      1.0  0.55111  0.64420  0.63581  1.0000 0.2427327267
H   H1        1.0  0.11200  0.20860  0.79300  1.0000 0.1485789199
H   H2        1.0  0.91560  0.31900  0.70700  1.0000 0.1485789199
H   H3        1.0  0.58440  0.29140  0.40340  1.0000 0.1485789199
H   H4        1.0  0.38800  0.18100  0.09660  1.0000 0.1485789199
H   H5        1.0  0.79300  0.11200  0.20860  1.0000 0.1485789199
H   H6        1.0  0.70700  0.91560  0.31900  1.0000 0.1485789199
H   H7        1.0  0.40340  0.58440  0.29140  1.0000 0.1485789199
H   H8        1.0  0.09660  0.38800  0.18100  1.0000 0.1485789199
H   H9        1.0  0.20860  0.79300  0.11200  1.0000 0.1485789199
H   H10       1.0  0.31900  0.70700  0.91560  1.0000 0.1485789199
H   H11       1.0  0.29140  0.40340  0.58440  1.0000 0.1485789199
H   H12       1.0  0.18100  0.09660  0.38800  1.0000 0.1485789199
H   H13       1.0  0.70860  0.61200  0.29300  1.0000 0.1485789199
H   H14       1.0  0.81900  0.41560  0.20700  1.0000 0.1485789199
H   H15       1.0  0.79140  0.08440  0.90340  1.0000 0.1485789199
H   H16       1.0  0.68100  0.88800  0.59660  1.0000 0.1485789199
H   H17       1.0  0.61200  0.29300  0.70860  1.0000 0.1485789199
H   H18       1.0  0.41560  0.20700  0.81900  1.0000 0.1485789199
H   H19       1.0  0.08440  0.90340  0.79140  1.0000 0.1485789199
H   H20       1.0  0.88800  0.59660  0.68100  1.0000 0.1485789199
H   H21       1.0  0.29300  0.70860  0.61200  1.0000 0.1485789199
H   H22       1.0  0.20700  0.81900  0.41560  1.0000 0.1485789199
H   H23       1.0  0.90340  0.79140  0.08440  1.0000 0.1485789199
H   H24       1.0  0.59660  0.68100  0.88800  1.0000 0.1485789199
H   H25       1.0  0.08480  0.12890  0.77030  1.0000 0.1485789199
H   H26       1.0  0.85860  0.31450  0.72970  1.0000 0.1485789199
H   H27       1.0  0.64140  0.37110  0.45590  1.0000 0.1485789199
H   H28       1.0  0.41520  0.18550  0.04410  1.0000 0.1485789199
H   H29       1.0  0.77030  0.08480  0.12890  1.0000 0.1485789199
H   H30       1.0  0.72970  0.85860  0.31450  1.0000 0.1485789199
H   H31       1.0  0.45590  0.64140  0.37110  1.0000 0.1485789199
H   H32       1.0  0.04410  0.41520  0.18550  1.0000 0.1485789199
H   H33       1.0  0.12890  0.77030  0.08480  1.0000 0.1485789199
H   H34       1.0  0.31450  0.72970  0.85860  1.0000 0.1485789199
H   H35       1.0  0.37110  0.45590  0.64140  1.0000 0.1485789199
H   H36       1.0  0.18550  0.04410  0.41520  1.0000 0.1485789199
H   H37       1.0  0.62890  0.58480  0.27030  1.0000 0.1485789199
H   H38       1.0  0.81450  0.35860  0.22970  1.0000 0.1485789199
H   H39       1.0  0.87110  0.14140  0.95590  1.0000 0.1485789199
H   H40       1.0  0.68550  0.91520  0.54410  1.0000 0.1485789199
H   H41       1.0  0.58480  0.27030  0.62890  1.0000 0.1485789199
H   H42       1.0  0.35860  0.22970  0.81450  1.0000 0.1485789199
H   H43       1.0  0.14140  0.95590  0.87110  1.0000 0.1485789199
H   H44       1.0  0.91520  0.54410  0.68550  1.0000 0.1485789199
H   H45       1.0  0.27030  0.62890  0.58480  1.0000 0.1485789199
H   H46       1.0  0.22970  0.81450  0.35860  1.0000 0.1485789199
H   H47       1.0  0.95590  0.87110  0.14140  1.0000 0.1485789199
H   H48       1.0  0.54410  0.68550  0.91520  1.0000 0.1485789199
H   H49       1.0  0.03860  0.15070  0.72590  1.0000 0.1485789199
H   H50       1.0  0.92480  0.31270  0.77410  1.0000 0.1485789199
H   H51       1.0  0.57520  0.34930  0.38790  1.0000 0.1485789199
H   H52       1.0  0.46140  0.18730  0.11210  1.0000 0.1485789199
H   H53       1.0  0.72590  0.03860  0.15070  1.0000 0.1485789199
H   H54       1.0  0.77410  0.92480  0.31270  1.0000 0.1485789199
H   H55       1.0  0.38790  0.57520  0.34930  1.0000 0.1485789199
H   H56       1.0  0.11210  0.46140  0.18730  1.0000 0.1485789199
H   H57       1.0  0.15070  0.72590  0.03860  1.0000 0.1485789199
H   H58       1.0  0.31270  0.77410  0.92480  1.0000 0.1485789199
H   H59       1.0  0.34930  0.38790  0.57520  1.0000 0.1485789199
H   H60       1.0  0.18730  0.11210  0.46140  1.0000 0.1485789199
H   H61       1.0  0.65070  0.53860  0.22590  1.0000 0.1485789199
H   H62       1.0  0.81270  0.42480  0.27410  1.0000 0.1485789199
H   H63       1.0  0.84930  0.07520  0.88790  1.0000 0.1485789199
H   H64       1.0  0.68730  0.96140  0.61210  1.0000 0.1485789199
H   H65       1.0  0.53860  0.22590  0.65070  1.0000 0.1485789199
H   H66       1.0  0.42480  0.27410  0.81270  1.0000 0.1485789199
H   H67       1.0  0.07520  0.88790  0.84930  1.0000 0.1485789199
H   H68       1.0  0.96140  0.61210  0.68730  1.0000 0.1485789199
H   H69       1.0  0.22590  0.65070  0.53860  1.0000 0.1485789199
H   H70       1.0  0.27410  0.81270  0.42480  1.0000 0.1485789199
H   H71       1.0  0.88790  0.84930  0.07520  1.0000 0.1485789199
H   H72       1.0  0.61210  0.68730  0.96140  1.0000 0.1485789199
H   H73       1.0  0.29080  0.24230  0.69730  1.0000 0.1410331733
H   H74       1.0  0.04500  0.59350  0.80270  1.0000 0.1410331733
H   H75       1.0  0.45500  0.25770  0.54850  1.0000 0.1410331733
H   H76       1.0  0.20920  0.90650  0.95150  1.0000 0.1410331733
H   H77       1.0  0.69730  0.29080  0.24230  1.0000 0.1410331733
H   H78       1.0  0.80270  0.04500  0.59350  1.0000 0.1410331733
H   H79       1.0  0.54850  0.45500  0.25770  1.0000 0.1410331733
H   H80       1.0  0.95150  0.20920  0.90650  1.0000 0.1410331733
H   H81       1.0  0.24230  0.69730  0.29080  1.0000 0.1410331733
H   H82       1.0  0.59350  0.80270  0.04500  1.0000 0.1410331733
H   H83       1.0  0.25770  0.54850  0.45500  1.0000 0.1410331733
H   H84       1.0  0.90650  0.95150  0.20920  1.0000 0.1410331733
H   H85       1.0  0.74230  0.79080  0.19730  1.0000 0.1410331733
H   H86       1.0  0.09350  0.54500  0.30270  1.0000 0.1410331733
H   H87       1.0  0.75770  0.95500  0.04850  1.0000 0.1410331733
H   H88       1.0  0.40650  0.70920  0.45150  1.0000 0.1410331733
H   H89       1.0  0.79080  0.19730  0.74230  1.0000 0.1410331733
H   H90       1.0  0.54500  0.30270  0.09350  1.0000 0.1410331733
H   H91       1.0  0.95500  0.04850  0.75770  1.0000 0.1410331733
H   H92       1.0  0.70920  0.45150  0.40650  1.0000 0.1410331733
H   H93       1.0  0.19730  0.74230  0.79080  1.0000 0.1410331733
H   H94       1.0  0.30270  0.09350  0.54500  1.0000 0.1410331733
H   H95       1.0  0.04850  0.75770  0.95500  1.0000 0.1410331733
H   H96       1.0  0.45150  0.40650  0.70920  1.0000 0.1410331733
H   H97       1.0  0.23750  0.19820  0.61610  1.0000 0.1485789199
H   H98       1.0  0.08210  0.62140  0.88390  1.0000 0.1485789199
H   H99       1.0  0.41790  0.30180  0.53930  1.0000 0.1485789199
H   H100      1.0  0.26250  0.87860  0.96070  1.0000 0.1485789199
H   H101      1.0  0.61610  0.23750  0.19820  1.0000 0.1485789199
H   H102      1.0  0.88390  0.08210  0.62140  1.0000 0.1485789199
H   H103      1.0  0.53930  0.41790  0.30180  1.0000 0.1485789199
H   H104      1.0  0.96070  0.26250  0.87860  1.0000 0.1485789199
H   H105      1.0  0.19820  0.61610  0.23750  1.0000 0.1485789199
H   H106      1.0  0.62140  0.88390  0.08210  1.0000 0.1485789199
H   H107      1.0  0.30180  0.53930  0.41790  1.0000 0.1485789199
H   H108      1.0  0.87860  0.96070  0.26250  1.0000 0.1485789199
H   H109      1.0  0.69820  0.73750  0.11610  1.0000 0.1485789199
H   H110      1.0  0.12140  0.58210  0.38390  1.0000 0.1485789199
H   H111      1.0  0.80180  0.91790  0.03930  1.0000 0.1485789199
H   H112      1.0  0.37860  0.76250  0.46070  1.0000 0.1485789199
H   H113      1.0  0.73750  0.11610  0.69820  1.0000 0.1485789199
H   H114      1.0  0.58210  0.38390  0.12140  1.0000 0.1485789199
H   H115      1.0  0.91790  0.03930  0.80180  1.0000 0.1410331733
H   H116      1.0  0.76250  0.46070  0.37860  1.0000 0.1485789199
H   H117      1.0  0.11610  0.69820  0.73750  1.0000 0.1485789199
H   H118      1.0  0.38390  0.12140  0.58210  1.0000 0.1485789199
H   H119      1.0  0.03930  0.80180  0.91790  1.0000 0.1485789199
H   H120      1.0  0.46070  0.37860  0.76250  1.0000 0.1485789199
H   H121      1.0  0.27340  0.16490  0.65350  1.0000 0.1410331733
H   H122      1.0  0.01140  0.61990  0.84650  1.0000 0.1410331733
H   H123      1.0  0.48860  0.33510  0.60850  1.0000 0.1410331733
H   H124      1.0  0.22660  0.88010  0.89150  1.0000 0.1410331733
H   H125      1.0  0.65350  0.27340  0.16490  1.0000 0.1410331733
H   H126      1.0  0.84650  0.01140  0.61990  1.0000 0.1410331733
H   H127      1.0  0.60850  0.48860  0.33510  1.0000 0.1410331733
H   H128      1.0  0.89150  0.22660  0.88010  1.0000 0.1410331733
H   H129      1.0  0.16490  0.65350  0.27340  1.0000 0.1410331733
H   H130      1.0  0.61990  0.84650  0.01140  1.0000 0.1410331733
H   H131      1.0  0.33510  0.60850  0.48860  1.0000 0.1410331733
H   H132      1.0  0.88010  0.89150  0.22660  1.0000 0.1410331733
H   H133      1.0  0.66490  0.77340  0.15350  1.0000 0.1410331733
H   H134      1.0  0.11990  0.51140  0.34650  1.0000 0.1410331733
H   H135      1.0  0.83510  0.98860  0.10850  1.0000 0.1410331733
H   H136      1.0  0.38010  0.72660  0.39150  1.0000 0.1410331733
H   H137      1.0  0.77340  0.15350  0.66490  1.0000 0.1410331733
H   H138      1.0  0.51140  0.34650  0.11990  1.0000 0.1410331733
H   H139      1.0  0.98860  0.10850  0.83510  1.0000 0.1410331733
H   H140      1.0  0.72660  0.39150  0.38010  1.0000 0.1410331733
H   H141      1.0  0.15350  0.66490  0.77340  1.0000 0.1410331733
H   H142      1.0  0.34650  0.11990  0.51140  1.0000 0.1410331733
H   H143      1.0  0.10850  0.83510  0.98860  1.0000 0.1410331733
H   H144      1.0  0.39150  0.38010  0.72660  1.0000 0.1410331733
H   H145      1.0  0.30670  0.25600  0.92910  1.0000 0.1410331733
H   H146      1.0  0.82690  0.37760  0.57090  1.0000 0.1410331733
H   H147      1.0  0.67310  0.24400  0.55070  1.0000 0.1410331733
H   H148      1.0  0.19330  0.12240  0.94930  1.0000 0.1410331733
H   H149      1.0  0.92910  0.30670  0.25600  1.0000 0.1410331733
H   H150      1.0  0.57090  0.82690  0.37760  1.0000 0.1410331733
H   H151      1.0  0.55070  0.67310  0.24400  1.0000 0.1410331733
H   H152      1.0  0.94930  0.19330  0.12240  1.0000 0.1410331733
H   H153      1.0  0.25600  0.92910  0.30670  1.0000 0.1410331733
H   H154      1.0  0.37760  0.57090  0.82690  1.0000 0.1410331733
H   H155      1.0  0.24400  0.55070  0.67310  1.0000 0.1410331733
H   H156      1.0  0.12240  0.94930  0.19330  1.0000 0.1410331733
H   H157      1.0  0.75600  0.80670  0.42910  1.0000 0.1410331733
H   H158      1.0  0.87760  0.32690  0.07090  1.0000 0.1410331733
H   H159      1.0  0.74400  0.17310  0.05070  1.0000 0.1410331733
H   H160      1.0  0.62240  0.69330  0.44930  1.0000 0.1410331733
H   H161      1.0  0.80670  0.42910  0.75600  1.0000 0.1410331733
H   H162      1.0  0.32690  0.07090  0.87760  1.0000 0.1410331733
H   H163      1.0  0.17310  0.05070  0.74400  1.0000 0.1410331733
H   H164      1.0  0.69330  0.44930  0.62240  1.0000 0.1410331733
H   H165      1.0  0.42910  0.75600  0.80670  1.0000 0.1410331733
H   H166      1.0  0.07090  0.87760  0.32690  1.0000 0.1410331733
H   H167      1.0  0.05070  0.74400  0.17310  1.0000 0.1410331733
H   H168      1.0  0.44930  0.62240  0.69330  1.0000 0.1410331733
H   H169      1.0  0.24650  0.19220  0.85430  1.0000 0.1485789199
H   H170      1.0  0.83790  0.39220  0.64570  1.0000 0.1485789199
H   H171      1.0  0.66210  0.30780  0.55430  1.0000 0.1485789199
H   H172      1.0  0.25350  0.10780  0.94570  1.0000 0.1485789199
H   H173      1.0  0.85430  0.24650  0.19220  1.0000 0.1485789199
H   H174      1.0  0.64570  0.83790  0.39220  1.0000 0.1485789199
H   H175      1.0  0.55430  0.66210  0.30780  1.0000 0.1485789199
H   H176      1.0  0.94570  0.25350  0.10780  1.0000 0.1485789199
H   H177      1.0  0.19220  0.85430  0.24650  1.0000 0.1485789199
H   H178      1.0  0.39220  0.64570  0.83790  1.0000 0.1485789199
H   H179      1.0  0.30780  0.55430  0.66210  1.0000 0.1485789199
H   H180      1.0  0.10780  0.94570  0.25350  1.0000 0.1485789199
H   H181      1.0  0.69220  0.74650  0.35430  1.0000 0.1485789199
H   H182      1.0  0.89220  0.33790  0.14570  1.0000 0.1485789199
H   H183      1.0  0.80780  0.16210  0.05430  1.0000 0.1485789199
H   H184      1.0  0.60780  0.75350  0.44570  1.0000 0.1485789199
H   H185      1.0  0.74650  0.35430  0.69220  1.0000 0.1485789199
H   H186      1.0  0.33790  0.14570  0.89220  1.0000 0.1485789199
H   H187      1.0  0.16210  0.05430  0.80780  1.0000 0.1485789199
H   H188      1.0  0.75350  0.44570  0.60780  1.0000 0.1485789199
H   H189      1.0  0.35430  0.69220  0.74650  1.0000 0.1485789199
H   H190      1.0  0.14570  0.89220  0.33790  1.0000 0.1485789199
H   H191      1.0  0.05430  0.80780  0.16210  1.0000 0.1485789199
H   H192      1.0  0.44570  0.60780  0.75350  1.0000 0.1485789199
H   H193      1.0  0.22800  0.23640  0.90500  1.0000 0.1485789199
H   H194      1.0  0.83140  0.32300  0.59500  1.0000 0.1485789199
H   H195      1.0  0.66860  0.26360  0.49160  1.0000 0.1485789199
H   H196      1.0  0.27200  0.17700  0.00840  1.0000 0.1485789199
H   H197      1.0  0.90500  0.22800  0.23640  1.0000 0.1485789199
H   H198      1.0  0.59500  0.83140  0.32300  1.0000 0.1485789199
H   H199      1.0  0.49160  0.66860  0.26360  1.0000 0.1485789199
H   H200      1.0  0.00840  0.27200  0.17700  1.0000 0.1485789199
H   H201      1.0  0.23640  0.90500  0.22800  1.0000 0.1485789199
H   H202      1.0  0.32300  0.59500  0.83140  1.0000 0.1485789199
H   H203      1.0  0.26360  0.49160  0.66860  1.0000 0.1485789199
H   H204      1.0  0.17700  0.00840  0.27200  1.0000 0.1485789199
H   H205      1.0  0.73640  0.72800  0.40500  1.0000 0.1485789199
H   H206      1.0  0.82300  0.33140  0.09500  1.0000 0.1485789199
H   H207      1.0  0.76360  0.16860  0.99160  1.0000 0.1485789199
H   H208      1.0  0.67700  0.77200  0.50840  1.0000 0.1485789199
H   H209      1.0  0.72800  0.40500  0.73640  1.0000 0.1485789199
H   H210      1.0  0.33140  0.09500  0.82300  1.0000 0.1485789199
H   H211      1.0  0.16860  0.99160  0.76360  1.0000 0.1485789199
H   H212      1.0  0.77200  0.50840  0.67700  1.0000 0.1485789199
H   H213      1.0  0.40500  0.73640  0.72800  1.0000 0.1485789199
H   H214      1.0  0.09500  0.82300  0.33140  1.0000 0.1485789199
H   H215      1.0  0.99160  0.76360  0.16860  1.0000 0.1485789199
H   H216      1.0  0.50840  0.67700  0.77200  1.0000 0.1485789199
H   H217      1.0  0.29160  0.37900  0.74280  1.0000 0.1410331733
H   H218      1.0  0.13620  0.54880  0.75720  1.0000 0.1410331733
H   H219      1.0  0.36380  0.12100  0.41260  1.0000 0.1410331733
H   H220      1.0  0.20840  0.95120  0.08740  1.0000 0.1410331733
H   H221      1.0  0.74280  0.29160  0.37900  1.0000 0.1410331733
H   H222      1.0  0.75720  0.13620  0.54880  1.0000 0.1410331733
H   H223      1.0  0.41260  0.36380  0.12100  1.0000 0.1410331733
H   H224      1.0  0.08740  0.20840  0.95120  1.0000 0.1410331733
H   H225      1.0  0.37900  0.74280  0.29160  1.0000 0.1410331733
H   H226      1.0  0.54880  0.75720  0.13620  1.0000 0.1410331733
H   H227      1.0  0.12100  0.41260  0.36380  1.0000 0.1410331733
H   H228      1.0  0.95120  0.08740  0.20840  1.0000 0.1410331733
H   H229      1.0  0.87900  0.79160  0.24280  1.0000 0.1410331733
H   H230      1.0  0.04880  0.63620  0.25720  1.0000 0.1410331733
H   H231      1.0  0.62100  0.86380  0.91260  1.0000 0.1410331733
H   H232      1.0  0.45120  0.70840  0.58740  1.0000 0.1410331733
H   H233      1.0  0.79160  0.24280  0.87900  1.0000 0.1410331733
H   H234      1.0  0.63620  0.25720  0.04880  1.0000 0.1410331733
H   H235      1.0  0.86380  0.91260  0.62100  1.0000 0.1410331733
H   H236      1.0  0.70840  0.58740  0.45120  1.0000 0.1410331733
H   H237      1.0  0.24280  0.87900  0.79160  1.0000 0.1410331733
H   H238      1.0  0.25720  0.04880  0.63620  1.0000 0.1410331733
H   H239      1.0  0.91260  0.62100  0.86380  1.0000 0.1410331733
H   H240      1.0  0.58740  0.45120  0.70840  1.0000 0.1410331733
H   H241      1.0  0.22410  0.37720  0.74390  1.0000 0.1485789199
H   H242      1.0  0.13330  0.48020  0.75610  1.0000 0.1485789199
H   H243      1.0  0.36670  0.12280  0.34690  1.0000 0.1485789199
H   H244      1.0  0.27590  0.01980  0.15310  1.0000 0.1485789199
H   H245      1.0  0.74390  0.22410  0.37720  1.0000 0.1485789199
H   H246      1.0  0.75610  0.13330  0.48020  1.0000 0.1485789199
H   H247      1.0  0.34690  0.36670  0.12280  1.0000 0.1485789199
H   H248      1.0  0.15310  0.27590  0.01980  1.0000 0.1485789199
H   H249      1.0  0.37720  0.74390  0.22410  1.0000 0.1485789199
H   H250      1.0  0.48020  0.75610  0.13330  1.0000 0.1485789199
H   H251      1.0  0.12280  0.34690  0.36670  1.0000 0.1485789199
H   H252      1.0  0.01980  0.15310  0.27590  1.0000 0.1485789199
H   H253      1.0  0.87720  0.72410  0.24390  1.0000 0.1485789199
H   H254      1.0  0.98020  0.63330  0.25610  1.0000 0.1485789199
H   H255      1.0  0.62280  0.86670  0.84690  1.0000 0.1485789199
H   H256      1.0  0.51980  0.77590  0.65310  1.0000 0.1485789199
H   H257      1.0  0.72410  0.24390  0.87720  1.0000 0.1485789199
H   H258      1.0  0.63330  0.25610  0.98020  1.0000 0.1485789199
H   H259      1.0  0.86670  0.84690  0.62280  1.0000 0.1485789199
H   H260      1.0  0.77590  0.65310  0.51980  1.0000 0.1485789199
H   H261      1.0  0.24390  0.87720  0.72410  1.0000 0.1485789199
H   H262      1.0  0.25610  0.98020  0.63330  1.0000 0.1485789199
H   H263      1.0  0.84690  0.62280  0.86670  1.0000 0.1485789199
H   H264      1.0  0.65310  0.51980  0.77590  1.0000 0.1485789199
H   H265      1.0  0.21930  0.30850  0.69460  1.0000 0.1485789199
H   H266      1.0  0.11390  0.52470  0.80540  1.0000 0.1485789199
H   H267      1.0  0.38610  0.19150  0.41080  1.0000 0.1485789199
H   H268      1.0  0.28070  0.97530  0.08920  1.0000 0.1485789199
H   H269      1.0  0.69460  0.21930  0.30850  1.0000 0.1485789199
H   H270      1.0  0.80540  0.11390  0.52470  1.0000 0.1485789199
H   H271      1.0  0.41080  0.38610  0.19150  1.0000 0.1485789199
H   H272      1.0  0.08920  0.28070  0.97530  1.0000 0.1485789199
H   H273      1.0  0.30850  0.69460  0.21930  1.0000 0.1485789199
H   H274      1.0  0.52470  0.80540  0.11390  1.0000 0.1485789199
H   H275      1.0  0.19150  0.41080  0.38610  1.0000 0.1485789199
H   H276      1.0  0.97530  0.08920  0.28070  1.0000 0.1485789199
H   H277      1.0  0.80850  0.71930  0.19460  1.0000 0.1485789199
H   H278      1.0  0.02470  0.61390  0.30540  1.0000 0.1485789199
H   H279      1.0  0.69150  0.88610  0.91080  1.0000 0.1485789199
H   H280      1.0  0.47530  0.78070  0.58920  1.0000 0.1485789199
H   H281      1.0  0.71930  0.19460  0.80850  1.0000 0.1485789199
H   H282      1.0  0.61390  0.30540  0.02470  1.0000 0.1485789199
H   H283      1.0  0.88610  0.91080  0.69150  1.0000 0.1485789199
H   H284      1.0  0.78070  0.58920  0.47530  1.0000 0.1485789199
H   H285      1.0  0.19460  0.80850  0.71930  1.0000 0.1485789199
H   H286      1.0  0.30540  0.02470  0.61390  1.0000 0.1485789199
H   H287      1.0  0.91080  0.69150  0.88610  1.0000 0.1485789199
H   H288      1.0  0.58920  0.47530  0.78070  1.0000 0.1485789199
C   C1        1.0  0.08580  0.16160  0.75360  1.0000 -0.4906976198
C   C2        1.0  0.90800  0.33220  0.74640  1.0000 -0.4906976198
C   C3        1.0  0.59200  0.33840  0.42420  1.0000 -0.4906976198
C   C4        1.0  0.41420  0.16780  0.07580  1.0000 -0.4906976198
C   C5        1.0  0.75360  0.08580  0.16160  1.0000 -0.4906976198
C   C6        1.0  0.74640  0.90800  0.33220  1.0000 -0.4906976198
C   C7        1.0  0.42420  0.59200  0.33840  1.0000 -0.4906976198
C   C8        1.0  0.07580  0.41420  0.16780  1.0000 -0.4906976198
C   C9        1.0  0.16160  0.75360  0.08580  1.0000 -0.4906976198
C   C10       1.0  0.33220  0.74640  0.90800  1.0000 -0.4906976198
C   C11       1.0  0.33840  0.42420  0.59200  1.0000 -0.4906976198
C   C12       1.0  0.16780  0.07580  0.41420  1.0000 -0.4906976198
C   C13       1.0  0.66160  0.58580  0.25360  1.0000 -0.4906976198
C   C14       1.0  0.83220  0.40800  0.24640  1.0000 -0.4906976198
C   C15       1.0  0.83840  0.09200  0.92420  1.0000 -0.4906976198
C   C16       1.0  0.66780  0.91420  0.57580  1.0000 -0.4906976198
C   C17       1.0  0.58580  0.25360  0.66160  1.0000 -0.4906976198
C   C18       1.0  0.40800  0.24640  0.83220  1.0000 -0.4906976198
C   C19       1.0  0.09200  0.92420  0.83840  1.0000 -0.4906976198
C   C20       1.0  0.91420  0.57580  0.66780  1.0000 -0.4906976198
C   C21       1.0  0.25360  0.66160  0.58580  1.0000 -0.4906976198
C   C22       1.0  0.24640  0.83220  0.40800  1.0000 -0.4906976198
C   C23       1.0  0.92420  0.83840  0.09200  1.0000 -0.4906976198
C   C24       1.0  0.57580  0.66780  0.91420  1.0000 -0.4906976198
C   C25       1.0  0.11980  0.15640  0.71000  1.0000 0.1989998011
C   C26       1.0  0.94640  0.40980  0.79000  1.0000 0.1989998011
C   C27       1.0  0.55360  0.34360  0.46340  1.0000 0.1989998011
C   C28       1.0  0.38020  0.09020  0.03660  1.0000 0.1989998011
C   C29       1.0  0.71000  0.11980  0.15640  1.0000 0.1989998011
C   C30       1.0  0.79000  0.94640  0.40980  1.0000 0.1989998011
C   C31       1.0  0.46340  0.55360  0.34360  1.0000 0.1989998011
C   C32       1.0  0.03660  0.38020  0.09020  1.0000 0.1989998011
C   C33       1.0  0.15640  0.71000  0.11980  1.0000 0.1989998011
C   C34       1.0  0.40980  0.79000  0.94640  1.0000 0.1989998011
C   C35       1.0  0.34360  0.46340  0.55360  1.0000 0.1989998011
C   C36       1.0  0.09020  0.03660  0.38020  1.0000 0.1989998011
C   C37       1.0  0.65640  0.61980  0.21000  1.0000 0.1989998011
C   C38       1.0  0.90980  0.44640  0.29000  1.0000 0.1989998011
C   C39       1.0  0.84360  0.05360  0.96340  1.0000 0.1989998011
C   C40       1.0  0.59020  0.88020  0.53660  1.0000 0.1989998011
C   C41       1.0  0.61980  0.21000  0.65640  1.0000 0.1989998011
C   C42       1.0  0.44640  0.29000  0.90980  1.0000 0.1989998011
C   C43       1.0  0.05360  0.96340  0.84360  1.0000 0.1989998011
C   C44       1.0  0.88020  0.53660  0.59020  1.0000 0.1989998011
C   C45       1.0  0.21000  0.65640  0.61980  1.0000 0.1989998011
C   C46       1.0  0.29000  0.90980  0.44640  1.0000 0.1989998011
C   C47       1.0  0.96340  0.84360  0.05360  1.0000 0.1989998011
C   C48       1.0  0.53660  0.59020  0.88020  1.0000 0.1989998011
C   C49       1.0  0.18850  0.20140  0.72810  1.0000 -0.0866719757
C   C50       1.0  0.97330  0.46040  0.77190  1.0000 -0.0866719757
C   C51       1.0  0.52670  0.29860  0.48710  1.0000 -0.0866719757
C   C52       1.0  0.31150  0.03960  0.01290  1.0000 -0.0866719757
C   C53       1.0  0.72810  0.18850  0.20140  1.0000 -0.0866719757
C   C54       1.0  0.77190  0.97330  0.46040  1.0000 -0.0866719757
C   C55       1.0  0.48710  0.52670  0.29860  1.0000 -0.0866719757
C   C56       1.0  0.01290  0.31150  0.03960  1.0000 -0.0866719757
C   C57       1.0  0.20140  0.72810  0.18850  1.0000 -0.0866719757
C   C58       1.0  0.46040  0.77190  0.97330  1.0000 -0.0866719757
C   C59       1.0  0.29860  0.48710  0.52670  1.0000 -0.0866719757
C   C60       1.0  0.03960  0.01290  0.31150  1.0000 -0.0866719757
C   C61       1.0  0.70140  0.68850  0.22810  1.0000 -0.0866719757
C   C62       1.0  0.96040  0.47330  0.27190  1.0000 -0.0866719757
C   C63       1.0  0.79860  0.02670  0.98710  1.0000 -0.0866719757
C   C64       1.0  0.53960  0.81150  0.51290  1.0000 -0.0866719757
C   C65       1.0  0.68850  0.22810  0.70140  1.0000 -0.0866719757
C   C66       1.0  0.47330  0.27190  0.96040  1.0000 -0.0866719757
C   C67       1.0  0.02670  0.98710  0.79860  1.0000 -0.0866719757
C   C68       1.0  0.81150  0.51290  0.53960  1.0000 -0.0866719757
C   C69       1.0  0.22810  0.70140  0.68850  1.0000 -0.0866719757
C   C70       1.0  0.27190  0.96040  0.47330  1.0000 -0.0866719757
C   C71       1.0  0.98710  0.79860  0.02670  1.0000 -0.0866719757
C   C72       1.0  0.51290  0.53960  0.81150  1.0000 -0.0866719757
C   C73       1.0  0.19360  0.16850  0.67270  1.0000 0.1811542723
C   C74       1.0  0.99580  0.52090  0.82730  1.0000 0.1811542723
C   C75       1.0  0.50420  0.33150  0.52510  1.0000 0.1811542723
C   C76       1.0  0.30640  0.97910  0.97490  1.0000 0.1811542723
C   C77       1.0  0.67270  0.19360  0.16850  1.0000 0.1811542723
C   C78       1.0  0.82730  0.99580  0.52090  1.0000 0.1811542723
C   C79       1.0  0.52510  0.50420  0.33150  1.0000 0.1811542723
C   C80       1.0  0.97490  0.30640  0.97910  1.0000 0.1811542723
C   C81       1.0  0.16850  0.67270  0.19360  1.0000 0.1811542723
C   C82       1.0  0.52090  0.82730  0.99580  1.0000 0.1811542723
C   C83       1.0  0.33150  0.52510  0.50420  1.0000 0.1811542723
C   C84       1.0  0.97910  0.97490  0.30640  1.0000 0.1811542723
C   C85       1.0  0.66850  0.69360  0.17270  1.0000 0.1811542723
C   C86       1.0  0.02090  0.49580  0.32730  1.0000 0.1811542723
C   C87       1.0  0.83150  0.00420  0.02510  1.0000 0.1811542723
C   C88       1.0  0.47910  0.80640  0.47490  1.0000 0.1811542723
C   C89       1.0  0.69360  0.17270  0.66850  1.0000 0.1811542723
C   C90       1.0  0.49580  0.32730  0.02090  1.0000 0.1811542723
C   C91       1.0  0.00420  0.02510  0.83150  1.0000 0.1811542723
C   C92       1.0  0.80640  0.47490  0.47910  1.0000 0.1811542723
C   C93       1.0  0.17270  0.66850  0.69360  1.0000 0.1811542723
C   C94       1.0  0.32730  0.02090  0.49580  1.0000 0.1811542723
C   C95       1.0  0.02510  0.83150  0.00420  1.0000 0.1811542723
C   C96       1.0  0.47490  0.47910  0.80640  1.0000 0.1811542723
C   C97       1.0  0.25460  0.19610  0.65850  1.0000 -0.4739029253
C   C98       1.0  0.03760  0.59610  0.84150  1.0000 -0.4739029253
C   C99       1.0  0.46240  0.30390  0.55850  1.0000 -0.4739029253
C   C100      1.0  0.24540  0.90390  0.94150  1.0000 -0.4739029253
C   C101      1.0  0.65850  0.25460  0.19610  1.0000 -0.4739029253
C   C102      1.0  0.84150  0.03760  0.59610  1.0000 -0.4739029253
C   C103      1.0  0.55850  0.46240  0.30390  1.0000 -0.4739029253
C   C104      1.0  0.94150  0.24540  0.90390  1.0000 -0.4739029253
C   C105      1.0  0.19610  0.65850  0.25460  1.0000 -0.4739029253
C   C106      1.0  0.59610  0.84150  0.03760  1.0000 -0.4739029253
C   C107      1.0  0.30390  0.55850  0.46240  1.0000 -0.4739029253
C   C108      1.0  0.90390  0.94150  0.24540  1.0000 -0.4739029253
C   C109      1.0  0.69610  0.75460  0.15850  1.0000 -0.4739029253
C   C110      1.0  0.09610  0.53760  0.34150  1.0000 -0.4739029253
C   C111      1.0  0.80390  0.96240  0.05850  1.0000 -0.4739029253
C   C112      1.0  0.40390  0.74540  0.44150  1.0000 -0.4739029253
C   C113      1.0  0.75460  0.15850  0.69610  1.0000 -0.4739029253
C   C114      1.0  0.53760  0.34150  0.09610  1.0000 -0.4739029253
C   C115      1.0  0.96240  0.05850  0.80390  1.0000 -0.4739029253
C   C116      1.0  0.74540  0.44150  0.40390  1.0000 -0.4739029253
C   C117      1.0  0.15850  0.69610  0.75460  1.0000 -0.4739029253
C   C118      1.0  0.34150  0.09610  0.53760  1.0000 -0.4739029253
C   C119      1.0  0.05850  0.80390  0.96240  1.0000 -0.4739029253
C   C120      1.0  0.44150  0.40390  0.74540  1.0000 -0.4739029253
C   C121      1.0  0.26190  0.23840  0.88970  1.0000 -0.4956418424
C   C122      1.0  0.84870  0.37220  0.61030  1.0000 -0.4956418424
C   C123      1.0  0.65130  0.26160  0.52350  1.0000 -0.4956418424
C   C124      1.0  0.23810  0.12780  0.97650  1.0000 -0.4956418424
C   C125      1.0  0.88970  0.26190  0.23840  1.0000 -0.4956418424
C   C126      1.0  0.61030  0.84870  0.37220  1.0000 -0.4956418424
C   C127      1.0  0.52350  0.65130  0.26160  1.0000 -0.4956418424
C   C128      1.0  0.97650  0.23810  0.12780  1.0000 -0.4956418424
C   C129      1.0  0.23840  0.88970  0.26190  1.0000 -0.4956418424
C   C130      1.0  0.37220  0.61030  0.84870  1.0000 -0.4956418424
C   C131      1.0  0.26160  0.52350  0.65130  1.0000 -0.4956418424
C   C132      1.0  0.12780  0.97650  0.23810  1.0000 -0.4956418424
C   C133      1.0  0.73840  0.76190  0.38970  1.0000 -0.4956418424
C   C134      1.0  0.87220  0.34870  0.11030  1.0000 -0.4956418424
C   C135      1.0  0.76160  0.15130  0.02350  1.0000 -0.4956418424
C   C136      1.0  0.62780  0.73810  0.47650  1.0000 -0.4956418424
C   C137      1.0  0.76190  0.38970  0.73840  1.0000 -0.4956418424
C   C138      1.0  0.34870  0.11030  0.87220  1.0000 -0.4956418424
C   C139      1.0  0.15130  0.02350  0.76160  1.0000 -0.4956418424
C   C140      1.0  0.73810  0.47650  0.62780  1.0000 -0.4956418424
C   C141      1.0  0.38970  0.73840  0.76190  1.0000 -0.4956418424
C   C142      1.0  0.11030  0.87220  0.34870  1.0000 -0.4956418424
C   C143      1.0  0.02350  0.76160  0.15130  1.0000 -0.4956418424
C   C144      1.0  0.47650  0.62780  0.73810  1.0000 -0.4956418424
C   C145      1.0  0.26870  0.28600  0.86010  1.0000 0.1869147228
C   C146      1.0  0.92590  0.40860  0.63990  1.0000 0.1869147228
C   C147      1.0  0.57410  0.21400  0.48270  1.0000 0.1869147228
C   C148      1.0  0.23130  0.09140  0.01730  1.0000 0.1869147228
C   C149      1.0  0.86010  0.26870  0.28600  1.0000 0.1869147228
C   C150      1.0  0.63990  0.92590  0.40860  1.0000 0.1869147228
C   C151      1.0  0.48270  0.57410  0.21400  1.0000 0.1869147228
C   C152      1.0  0.01730  0.23130  0.09140  1.0000 0.1869147228
C   C153      1.0  0.28600  0.86010  0.26870  1.0000 0.1869147228
C   C154      1.0  0.40860  0.63990  0.92590  1.0000 0.1869147228
C   C155      1.0  0.21400  0.48270  0.57410  1.0000 0.1869147228
C   C156      1.0  0.09140  0.01730  0.23130  1.0000 0.1869147228
C   C157      1.0  0.78600  0.76870  0.36010  1.0000 0.1869147228
C   C158      1.0  0.90860  0.42590  0.13990  1.0000 0.1869147228
C   C159      1.0  0.71400  0.07410  0.98270  1.0000 0.1869147228
C   C160      1.0  0.59140  0.73130  0.51730  1.0000 0.1869147228
C   C161      1.0  0.76870  0.36010  0.78600  1.0000 0.1869147228
C   C162      1.0  0.42590  0.13990  0.90860  1.0000 0.1869147228
C   C163      1.0  0.07410  0.98270  0.71400  1.0000 0.1869147228
C   C164      1.0  0.73130  0.51730  0.59140  1.0000 0.1869147228
C   C165      1.0  0.36010  0.78600  0.76870  1.0000 0.1869147228
C   C166      1.0  0.13990  0.90860  0.42590  1.0000 0.1869147228
C   C167      1.0  0.98270  0.71400  0.07410  1.0000 0.1869147228
C   C168      1.0  0.51730  0.59140  0.73130  1.0000 0.1869147228
C   C169      1.0  0.24020  0.27150  0.79270  1.0000 -0.1217678064
C   C170      1.0  0.97880  0.44750  0.70730  1.0000 -0.1217678064
C   C171      1.0  0.52120  0.22850  0.46870  1.0000 -0.1217678064
C   C172      1.0  0.25980  0.05250  0.03130  1.0000 -0.1217678064
C   C173      1.0  0.79270  0.24020  0.27150  1.0000 -0.1217678064
C   C174      1.0  0.70730  0.97880  0.44750  1.0000 -0.1217678064
C   C175      1.0  0.46870  0.52120  0.22850  1.0000 -0.1217678064
C   C176      1.0  0.03130  0.25980  0.05250  1.0000 -0.1217678064
C   C177      1.0  0.27150  0.79270  0.24020  1.0000 -0.1217678064
C   C178      1.0  0.44750  0.70730  0.97880  1.0000 -0.1217678064
C   C179      1.0  0.22850  0.46870  0.52120  1.0000 -0.1217678064
C   C180      1.0  0.05250  0.03130  0.25980  1.0000 -0.1217678064
C   C181      1.0  0.77150  0.74020  0.29270  1.0000 -0.1217678064
C   C182      1.0  0.94750  0.47880  0.20730  1.0000 -0.1217678064
C   C183      1.0  0.72850  0.02120  0.96870  1.0000 -0.1217678064
C   C184      1.0  0.55250  0.75980  0.53130  1.0000 -0.1217678064
C   C185      1.0  0.74020  0.29270  0.77150  1.0000 -0.1217678064
C   C186      1.0  0.47880  0.20730  0.94750  1.0000 -0.1217678064
C   C187      1.0  0.02120  0.96870  0.72850  1.0000 -0.1217678064
C   C188      1.0  0.75980  0.53130  0.55250  1.0000 -0.1217678064
C   C189      1.0  0.29270  0.77150  0.74020  1.0000 -0.1217678064
C   C190      1.0  0.20730  0.94750  0.47880  1.0000 -0.1217678064
C   C191      1.0  0.96870  0.72850  0.02120  1.0000 -0.1217678064
C   C192      1.0  0.53130  0.55250  0.75980  1.0000 -0.1217678064
C   C193      1.0  0.26310  0.33390  0.79540  1.0000 0.1811542723
C   C194      1.0  0.03850  0.46770  0.70460  1.0000 0.1811542723
C   C195      1.0  0.46150  0.16610  0.42920  1.0000 0.1811542723
C   C196      1.0  0.23690  0.03230  0.07080  1.0000 0.1811542723
C   C197      1.0  0.79540  0.26310  0.33390  1.0000 0.1811542723
C   C198      1.0  0.70460  0.03850  0.46770  1.0000 0.1811542723
C   C199      1.0  0.42920  0.46150  0.16610  1.0000 0.1811542723
C   C200      1.0  0.07080  0.23690  0.03230  1.0000 0.1811542723
C   C201      1.0  0.33390  0.79540  0.26310  1.0000 0.1811542723
C   C202      1.0  0.46770  0.70460  0.03850  1.0000 0.1811542723
C   C203      1.0  0.16610  0.42920  0.46150  1.0000 0.1811542723
C   C204      1.0  0.03230  0.07080  0.23690  1.0000 0.1811542723
C   C205      1.0  0.83390  0.76310  0.29540  1.0000 0.1811542723
C   C206      1.0  0.96770  0.53850  0.20460  1.0000 0.1811542723
C   C207      1.0  0.66610  0.96150  0.92920  1.0000 0.1811542723
C   C208      1.0  0.53230  0.73690  0.57080  1.0000 0.1811542723
C   C209      1.0  0.76310  0.29540  0.83390  1.0000 0.1811542723
C   C210      1.0  0.53850  0.20460  0.96770  1.0000 0.1811542723
C   C211      1.0  0.96150  0.92920  0.66610  1.0000 0.1811542723
C   C212      1.0  0.73690  0.57080  0.53230  1.0000 0.1811542723
C   C213      1.0  0.29540  0.83390  0.76310  1.0000 0.1811542723
C   C214      1.0  0.20460  0.96770  0.53850  1.0000 0.1811542723
C   C215      1.0  0.92920  0.66610  0.96150  1.0000 0.1811542723
C   C216      1.0  0.57080  0.53230  0.73690  1.0000 0.1811542723
C   C217      1.0  0.24830  0.35110  0.73940  1.0000 -0.4739029253
C   C218      1.0  0.11170  0.50890  0.76060  1.0000 -0.4754056768
C   C219      1.0  0.38830  0.14890  0.39720  1.0000 -0.4754056768
C   C220      1.0  0.25170  0.99110  0.10280  1.0000 -0.4754056768
C   C221      1.0  0.73940  0.24830  0.35110  1.0000 -0.4739029253
C   C222      1.0  0.76060  0.11170  0.50890  1.0000 -0.4754056768
C   C223      1.0  0.39720  0.38830  0.14890  1.0000 -0.4739029253
C   C224      1.0  0.10280  0.25170  0.99110  1.0000 -0.4754056768
C   C225      1.0  0.35110  0.73940  0.24830  1.0000 -0.4739029253
C   C226      1.0  0.50890  0.76060  0.11170  1.0000 -0.4739029253
C   C227      1.0  0.14890  0.39720  0.38830  1.0000 -0.4739029253
C   C228      1.0  0.99110  0.10280  0.25170  1.0000 -0.4754056768
C   C229      1.0  0.85110  0.74830  0.23940  1.0000 -0.4739029253
C   C230      1.0  0.00890  0.61170  0.26060  1.0000 -0.4754056768
C   C231      1.0  0.64890  0.88830  0.89720  1.0000 -0.4739029253
C   C232      1.0  0.49110  0.75170  0.60280  1.0000 -0.4739029253
C   C233      1.0  0.74830  0.23940  0.85110  1.0000 -0.4754056768
C   C234      1.0  0.61170  0.26060  0.00890  1.0000 -0.4739029253
C   C235      1.0  0.88830  0.89720  0.64890  1.0000 -0.4739029253
C   C236      1.0  0.75170  0.60280  0.49110  1.0000 -0.4754056768
C   C237      1.0  0.23940  0.85110  0.74830  1.0000 -0.4739029253
C   C238      1.0  0.26060  0.00890  0.61170  1.0000 -0.4739029253
C   C239      1.0  0.89720  0.64890  0.88830  1.0000 -0.4739029253
C   C240      1.0  0.60280  0.49110  0.75170  1.0000 -0.4739029253
N   N1        1.0  0.08840  0.10030  0.64590  1.0000 -0.2077068506
N   N2        1.0  0.95440  0.44250  0.85410  1.0000 -0.2077068506
N   N3        1.0  0.54560  0.39970  0.48810  1.0000 -0.2077068506
N   N4        1.0  0.41160  0.05750  0.01190  1.0000 -0.2077068506
N   N5        1.0  0.64590  0.08840  0.10030  1.0000 -0.2077068506
N   N6        1.0  0.85410  0.95440  0.44250  1.0000 -0.2077068506
N   N7        1.0  0.48810  0.54560  0.39970  1.0000 -0.2077068506
N   N8        1.0  0.01190  0.41160  0.05750  1.0000 -0.2077068506
N   N9        1.0  0.10030  0.64590  0.08840  1.0000 -0.2077068506
N   N10       1.0  0.44250  0.85410  0.95440  1.0000 -0.2077068506
N   N11       1.0  0.39970  0.48810  0.54560  1.0000 -0.2077068506
N   N12       1.0  0.05750  0.01190  0.41160  1.0000 -0.2077068506
N   N13       1.0  0.60030  0.58840  0.14590  1.0000 -0.2077068506
N   N14       1.0  0.94250  0.45440  0.35410  1.0000 -0.2077068506
N   N15       1.0  0.89970  0.04560  0.98810  1.0000 -0.2077068506
N   N16       1.0  0.55750  0.91160  0.51190  1.0000 -0.2077068506
N   N17       1.0  0.58840  0.14590  0.60030  1.0000 -0.2077068506
N   N18       1.0  0.45440  0.35410  0.94250  1.0000 -0.2077068506
N   N19       1.0  0.04560  0.98810  0.89970  1.0000 -0.2077068506
N   N20       1.0  0.91160  0.51190  0.55750  1.0000 -0.2077068506
N   N21       1.0  0.14590  0.60030  0.58840  1.0000 -0.2077068506
N   N22       1.0  0.35410  0.94250  0.45440  1.0000 -0.2077068506
N   N23       1.0  0.98810  0.89970  0.04560  1.0000 -0.2077068506
N   N24       1.0  0.51190  0.55750  0.91160  1.0000 -0.2077068506
N   N25       1.0  0.13410  0.10890  0.62060  1.0000 -0.2263082507
N   N26       1.0  0.98830  0.51350  0.87940  1.0000 -0.2263082507
N   N27       1.0  0.51170  0.39110  0.52520  1.0000 -0.2263082507
N   N28       1.0  0.36590  0.98650  0.97480  1.0000 -0.2263082507
N   N29       1.0  0.62060  0.13410  0.10890  1.0000 -0.2263082507
N   N30       1.0  0.87940  0.98830  0.51350  1.0000 -0.2263082507
N   N31       1.0  0.52520  0.51170  0.39110  1.0000 -0.2263082507
N   N32       1.0  0.97480  0.36590  0.98650  1.0000 -0.2263082507
N   N33       1.0  0.10890  0.62060  0.13410  1.0000 -0.2263082507
N   N34       1.0  0.51350  0.87940  0.98830  1.0000 -0.2263082507
N   N35       1.0  0.39110  0.52520  0.51170  1.0000 -0.2263082507
N   N36       1.0  0.98650  0.97480  0.36590  1.0000 -0.2263082507
N   N37       1.0  0.60890  0.63410  0.12060  1.0000 -0.2263082507
N   N38       1.0  0.01350  0.48830  0.37940  1.0000 -0.2263082507
N   N39       1.0  0.89110  0.01170  0.02520  1.0000 -0.2263082507
N   N40       1.0  0.48650  0.86590  0.47480  1.0000 -0.2263082507
N   N41       1.0  0.63410  0.12060  0.60890  1.0000 -0.2263082507
N   N42       1.0  0.48830  0.37940  0.01350  1.0000 -0.2263082507
N   N43       1.0  0.01170  0.02520  0.89110  1.0000 -0.2263082507
N   N44       1.0  0.86590  0.47480  0.48650  1.0000 -0.2263082507
N   N45       1.0  0.12060  0.60890  0.63410  1.0000 -0.2263082507
N   N46       1.0  0.37940  0.01350  0.48830  1.0000 -0.2263082507
N   N47       1.0  0.02520  0.89110  0.01170  1.0000 -0.2263082507
N   N48       1.0  0.47480  0.48650  0.86590  1.0000 -0.2263082507
N   N49       1.0  0.30590  0.35600  0.90230  1.0000 -0.2077068506
N   N50       1.0  0.95370  0.40360  0.59770  1.0000 -0.2077068506
N   N51       1.0  0.54630  0.14400  0.44990  1.0000 -0.2047559606
N   N52       1.0  0.19410  0.09640  0.05010  1.0000 -0.2047559606
N   N53       1.0  0.90230  0.30590  0.35600  1.0000 -0.2077068506
N   N54       1.0  0.59770  0.95370  0.40360  1.0000 -0.2077068506
N   N55       1.0  0.44990  0.54630  0.14400  1.0000 -0.2077068506
N   N56       1.0  0.05010  0.19410  0.09640  1.0000 -0.2047559606
N   N57       1.0  0.35600  0.90230  0.30590  1.0000 -0.2077068506
N   N58       1.0  0.40360  0.59770  0.95370  1.0000 -0.2077068506
N   N59       1.0  0.14400  0.44990  0.54630  1.0000 -0.2077068506
N   N60       1.0  0.09640  0.05010  0.19410  1.0000 -0.2047559606
N   N61       1.0  0.85600  0.80590  0.40230  1.0000 -0.2077068506
N   N62       1.0  0.90360  0.45370  0.09770  1.0000 -0.2047559606
N   N63       1.0  0.64400  0.04630  0.94990  1.0000 -0.2077068506
N   N64       1.0  0.59640  0.69410  0.55010  1.0000 -0.2077068506
N   N65       1.0  0.80590  0.40230  0.85600  1.0000 -0.2047559606
N   N66       1.0  0.45370  0.09770  0.90360  1.0000 -0.2077068506
N   N67       1.0  0.04630  0.94990  0.64400  1.0000 -0.2047559606
N   N68       1.0  0.69410  0.55010  0.59640  1.0000 -0.2077068506
N   N69       1.0  0.40230  0.85600  0.80590  1.0000 -0.2077068506
N   N70       1.0  0.09770  0.90360  0.45370  1.0000 -0.2047559606
N   N71       1.0  0.94990  0.64400  0.04630  1.0000 -0.2047559606
N   N72       1.0  0.55010  0.59640  0.69410  1.0000 -0.2047559606
N   N73       1.0  0.30240  0.38530  0.86030  1.0000 -0.2077068506
N   N74       1.0  0.02500  0.44210  0.63970  1.0000 -0.2077068506
N   N75       1.0  0.47500  0.11470  0.41710  1.0000 -0.2047559606
N   N76       1.0  0.19760  0.05790  0.08290  1.0000 -0.2047559606
N   N77       1.0  0.86030  0.30240  0.38530  1.0000 -0.2077068506
N   N78       1.0  0.63970  0.02500  0.44210  1.0000 -0.2047559606
N   N79       1.0  0.41710  0.47500  0.11470  1.0000 -0.2047559606
N   N80       1.0  0.08290  0.19760  0.05790  1.0000 -0.2047559606
N   N81       1.0  0.38530  0.86030  0.30240  1.0000 -0.2077068506
N   N82       1.0  0.44210  0.63970  0.02500  1.0000 -0.2047559606
N   N83       1.0  0.11470  0.41710  0.47500  1.0000 -0.2047559606
N   N84       1.0  0.05790  0.08290  0.19760  1.0000 -0.2047559606
N   N85       1.0  0.88530  0.80240  0.36030  1.0000 -0.2047559606
N   N86       1.0  0.94210  0.52500  0.13970  1.0000 -0.2047559606
N   N87       1.0  0.61470  0.97500  0.91710  1.0000 -0.2077068506
N   N88       1.0  0.55790  0.69760  0.58290  1.0000 -0.2077068506
N   N89       1.0  0.80240  0.36030  0.88530  1.0000 -0.2077068506
N   N90       1.0  0.52500  0.13970  0.94210  1.0000 -0.2077068506
N   N91       1.0  0.97500  0.91710  0.61470  1.0000 -0.2047559606
N   N92       1.0  0.69760  0.58290  0.55790  1.0000 -0.2077068506
N   N93       1.0  0.36030  0.88530  0.80240  1.0000 -0.2047559606
N   N94       1.0  0.13970  0.94210  0.52500  1.0000 -0.2047559606
N   N95       1.0  0.91710  0.61470  0.97500  1.0000 -0.2047559606
N   N96       1.0  0.58290  0.55790  0.69760  1.0000 -0.2077068506
