# DDEC6 charges by PACMAN v1.1 (https://github.com/mtap-research/PACMAN-charge/)
data_2006[In][qtz]3[ASR]1
_chemical_formula_sum              "In3 C12 O24"
_cell_length_a       9.0148
_cell_length_b       9.0148
_cell_length_c       11.4645
_cell_angle_alpha    90
_cell_angle_beta     90
_cell_angle_gamma    120

_symmetry_space_group_name_H-M    "P 1"
_symmetry_Int_Tables_number       1

loop_
  _symmetry_equiv_pos_as_xyz
  'x, y, z'

loop_
  _atom_site_type_symbol
  _atom_site_label
  _atom_site_symmetry_multiplicity
  _atom_site_fract_x
  _atom_site_fract_y
  _atom_site_fract_z
  _atom_site_occupancy
  _atom_site_charge
In  In1       1.0  0.50000  0.50000  0.33333  1.0000 1.3678488869
In  In2       1.0  0.00000  0.50000  0.66667  1.0000 1.3678488869
In  In3       1.0  0.50000  0.00000  0.00000  1.0000 1.3678488869
C   C1        1.0  0.20900  0.41800  0.50000  1.0000 0.5221174894
C   C2        1.0  0.79100  0.58200  0.50000  1.0000 0.5221174894
C   C3        1.0  0.58200  0.79100  0.16667  1.0000 0.5221174894
C   C4        1.0  0.41800  0.20900  0.16667  1.0000 0.5221174894
C   C5        1.0  0.20900  0.79100  0.83333  1.0000 0.5221174894
C   C6        1.0  0.79100  0.20900  0.83333  1.0000 0.5221174894
C   C7        1.0  0.30845  0.61690  0.50000  1.0000 0.5063623328
C   C8        1.0  0.69155  0.38310  0.50000  1.0000 0.5063623328
C   C9        1.0  0.38310  0.69155  0.16667  1.0000 0.5063623328
C   C10       1.0  0.61690  0.30845  0.16667  1.0000 0.5063623328
C   C11       1.0  0.30845  0.69155  0.83333  1.0000 0.5063623328
C   C12       1.0  0.69155  0.30845  0.83333  1.0000 0.5063623328
O   O1        1.0  0.26550  0.34070  0.43710  1.0000 -0.4174057952
O   O2        1.0  0.73450  0.65930  0.43710  1.0000 -0.4174057952
O   O3        1.0  0.65930  0.73450  0.22957  1.0000 -0.4174057952
O   O4        1.0  0.34070  0.26550  0.22957  1.0000 -0.4174057952
O   O5        1.0  0.92480  0.65930  0.56290  1.0000 -0.4174057952
O   O6        1.0  0.07520  0.34070  0.56290  1.0000 -0.4174057952
O   O7        1.0  0.26550  0.92480  0.89623  1.0000 -0.4174057952
O   O8        1.0  0.73450  0.07520  0.89623  1.0000 -0.4174057952
O   O9        1.0  0.65930  0.92480  0.10377  1.0000 -0.4174057952
O   O10       1.0  0.34070  0.07520  0.10377  1.0000 -0.4174057952
O   O11       1.0  0.92480  0.26550  0.77043  1.0000 -0.4174057952
O   O12       1.0  0.07520  0.73450  0.77043  1.0000 -0.4174057952
O   O13       1.0  0.44330  0.68680  0.44310  1.0000 -0.4387963376
O   O14       1.0  0.55670  0.31320  0.44310  1.0000 -0.4387963376
O   O15       1.0  0.31320  0.55670  0.22357  1.0000 -0.4387963376
O   O16       1.0  0.68680  0.44330  0.22357  1.0000 -0.4387963376
O   O17       1.0  0.75650  0.31320  0.55690  1.0000 -0.4387963376
O   O18       1.0  0.24350  0.68680  0.55690  1.0000 -0.4387963376
O   O19       1.0  0.44330  0.75650  0.89023  1.0000 -0.4387963376
O   O20       1.0  0.55670  0.24350  0.89023  1.0000 -0.4387963376
O   O21       1.0  0.31320  0.75650  0.10977  1.0000 -0.4387963376
O   O22       1.0  0.68680  0.24350  0.10977  1.0000 -0.4387963376
O   O23       1.0  0.75650  0.44330  0.77643  1.0000 -0.4387963376
O   O24       1.0  0.24350  0.55670  0.77643  1.0000 -0.4387963376
