# DDEC6 charges by PACMAN v1.1 (https://github.com/mtap-research/PACMAN-charge/)
data_2006[CoAg][utp]3[ASR]3
_chemical_formula_sum              "Co8 Ag8 H240 C336 N72"
_cell_length_a       12.335
_cell_length_b       26.939
_cell_length_c       33.458
_cell_angle_alpha    90
_cell_angle_beta     90
_cell_angle_gamma    90

_symmetry_space_group_name_H-M    "P 1"
_symmetry_Int_Tables_number       1

loop_
  _symmetry_equiv_pos_as_xyz
  'x, y, z'

loop_
  _atom_site_type_symbol
  _atom_site_label
  _atom_site_symmetry_multiplicity
  _atom_site_fract_x
  _atom_site_fract_y
  _atom_site_fract_z
  _atom_site_occupancy
  _atom_site_charge
Co  Co1       1.0  0.02256  0.06877  0.11377  1.0000 0.5009170835
Co  Co2       1.0  0.47744  0.56877  0.88623  1.0000 0.5009170835
Co  Co3       1.0  0.52256  0.56877  0.38623  1.0000 0.5009170835
Co  Co4       1.0  0.97744  0.06877  0.61377  1.0000 0.5009170835
Co  Co5       1.0  0.47744  0.43123  0.61377  1.0000 0.5009170835
Co  Co6       1.0  0.02256  0.93123  0.38623  1.0000 0.5009170835
Co  Co7       1.0  0.97744  0.93123  0.88623  1.0000 0.5009170835
Co  Co8       1.0  0.52256  0.43123  0.11377  1.0000 0.5009170835
Ag  Ag1       1.0  0.23876  0.72111  0.13987  1.0000 0.202471665
Ag  Ag2       1.0  0.26124  0.22111  0.86013  1.0000 0.202471665
Ag  Ag3       1.0  0.73876  0.22111  0.36013  1.0000 0.202471665
Ag  Ag4       1.0  0.76124  0.72111  0.63987  1.0000 0.202471665
Ag  Ag5       1.0  0.26124  0.77889  0.63987  1.0000 0.202471665
Ag  Ag6       1.0  0.23876  0.27889  0.36013  1.0000 0.202471665
Ag  Ag7       1.0  0.76124  0.27889  0.86013  1.0000 0.202471665
Ag  Ag8       1.0  0.73876  0.77889  0.13987  1.0000 0.202471665
H   H1        1.0  0.78930  0.04000  0.14400  1.0000 0.1014549704
H   H2        1.0  0.71070  0.54000  0.85600  1.0000 0.1014549704
H   H3        1.0  0.28930  0.54000  0.35600  1.0000 0.1014549704
H   H4        1.0  0.21070  0.04000  0.64400  1.0000 0.1014549704
H   H5        1.0  0.73390  0.95590  0.16910  1.0000 0.1101171028
H   H6        1.0  0.76610  0.45590  0.83090  1.0000 0.1101171028
H   H7        1.0  0.23390  0.45590  0.33090  1.0000 0.1101171028
H   H8        1.0  0.26610  0.95590  0.66910  1.0000 0.1101171028
H   H9        1.0  0.89090  0.90040  0.15920  1.0000 0.1014549704
H   H10       1.0  0.60910  0.40040  0.84080  1.0000 0.1014549704
H   H11       1.0  0.39090  0.40040  0.34080  1.0000 0.1014549704
H   H12       1.0  0.10910  0.90040  0.65920  1.0000 0.1014549704
H   H13       1.0  0.29310  0.92850  0.09790  1.0000 0.1101171028
H   H14       1.0  0.20690  0.42850  0.90210  1.0000 0.1101171028
H   H15       1.0  0.79310  0.42850  0.40210  1.0000 0.1101171028
H   H16       1.0  0.70690  0.92850  0.59790  1.0000 0.1101171028
H   H17       1.0  0.38470  0.00520  0.07030  1.0000 0.1190739416
H   H18       1.0  0.11530  0.50520  0.92970  1.0000 0.1190739416
H   H19       1.0  0.88470  0.50520  0.42970  1.0000 0.1190739416
H   H20       1.0  0.61530  0.00520  0.57030  1.0000 0.1190739416
H   H21       1.0  0.25290  0.07380  0.07510  1.0000 0.1014549704
H   H22       1.0  0.24710  0.57380  0.92490  1.0000 0.1014549704
H   H23       1.0  0.75290  0.57380  0.42490  1.0000 0.1014549704
H   H24       1.0  0.74710  0.07380  0.57510  1.0000 0.1014549704
H   H25       1.0  0.21780  0.90530  0.17640  1.0000 0.1383695685
H   H26       1.0  0.28220  0.40530  0.82360  1.0000 0.1383695685
H   H27       1.0  0.71780  0.40530  0.32360  1.0000 0.1383695685
H   H28       1.0  0.78220  0.90530  0.67640  1.0000 0.1383695685
H   H29       1.0  0.26160  0.82380  0.18460  1.0000 0.1014549704
H   H30       1.0  0.23840  0.32380  0.81540  1.0000 0.1014549704
H   H31       1.0  0.76160  0.32380  0.31540  1.0000 0.1014549704
H   H32       1.0  0.73840  0.82380  0.68460  1.0000 0.1014549704
H   H33       1.0  0.04750  0.78310  0.10500  1.0000 0.0914338854
H   H34       1.0  0.45250  0.28310  0.89500  1.0000 0.0914338854
H   H35       1.0  0.54750  0.28310  0.39500  1.0000 0.0914338854
H   H36       1.0  0.95250  0.78310  0.60500  1.0000 0.0914338854
H   H37       1.0  0.99780  0.86320  0.09300  1.0000 0.1190739416
H   H38       1.0  0.50220  0.36320  0.90700  1.0000 0.1190739416
H   H39       1.0  0.49780  0.36320  0.40700  1.0000 0.1190739416
H   H40       1.0  0.00220  0.86320  0.59300  1.0000 0.1190739416
H   H41       1.0  0.64100  0.50670  0.93790  1.0000 0.1101171028
H   H42       1.0  0.85900  0.00670  0.06210  1.0000 0.1101171028
H   H43       1.0  0.14100  0.00670  0.56210  1.0000 0.1101171028
H   H44       1.0  0.35900  0.50670  0.43790  1.0000 0.1101171028
H   H45       1.0  0.66420  0.51580  0.01210  1.0000 0.1190739416
H   H46       1.0  0.83580  0.01580  0.98790  1.0000 0.1190739416
H   H47       1.0  0.16420  0.01580  0.48790  1.0000 0.1190739416
H   H48       1.0  0.33580  0.51580  0.51210  1.0000 0.1190739416
H   H49       1.0  0.53450  0.57870  0.03530  1.0000 0.1190739416
H   H50       1.0  0.96550  0.07870  0.96470  1.0000 0.1190739416
H   H51       1.0  0.03450  0.07870  0.46470  1.0000 0.1190739416
H   H52       1.0  0.46550  0.57870  0.53530  1.0000 0.1190739416
H   H53       1.0  0.27260  0.70760  0.95480  1.0000 0.1190739416
H   H54       1.0  0.22740  0.20760  0.04520  1.0000 0.1190739416
H   H55       1.0  0.77260  0.20760  0.54520  1.0000 0.1190739416
H   H56       1.0  0.72740  0.70760  0.45480  1.0000 0.1190739416
H   H57       1.0  0.24850  0.72130  0.88140  1.0000 0.1190739416
H   H58       1.0  0.25150  0.22130  0.11860  1.0000 0.1190739416
H   H59       1.0  0.74850  0.22130  0.61860  1.0000 0.1190739416
H   H60       1.0  0.75150  0.72130  0.38140  1.0000 0.1190739416
H   H61       1.0  0.34820  0.65220  0.84620  1.0000 0.1014549704
H   H62       1.0  0.15180  0.15220  0.15380  1.0000 0.1101171028
H   H63       1.0  0.84820  0.15220  0.65380  1.0000 0.1014549704
H   H64       1.0  0.65180  0.65220  0.34620  1.0000 0.1014549704
H   H65       1.0  0.29460  0.58580  0.03140  1.0000 0.1383695685
H   H66       1.0  0.20540  0.08580  0.96860  1.0000 0.1383695685
H   H67       1.0  0.79460  0.08580  0.46860  1.0000 0.1383695685
H   H68       1.0  0.70540  0.58580  0.53140  1.0000 0.1383695685
H   H69       1.0  0.23310  0.62170  0.09010  1.0000 0.1014549704
H   H70       1.0  0.26690  0.12170  0.90990  1.0000 0.1014549704
H   H71       1.0  0.73310  0.12170  0.40990  1.0000 0.1014549704
H   H72       1.0  0.76690  0.62170  0.59010  1.0000 0.1014549704
H   H73       1.0  0.38210  0.74700  0.06510  1.0000 0.0914338854
H   H74       1.0  0.11790  0.24700  0.93490  1.0000 0.0914338854
H   H75       1.0  0.88210  0.24700  0.43490  1.0000 0.0914338854
H   H76       1.0  0.61790  0.74700  0.56510  1.0000 0.0914338854
H   H77       1.0  0.45000  0.71600  0.00660  1.0000 0.1383695685
H   H78       1.0  0.05000  0.21600  0.99340  1.0000 0.1383695685
H   H79       1.0  0.95000  0.21600  0.49340  1.0000 0.1383695685
H   H80       1.0  0.55000  0.71600  0.50660  1.0000 0.1383695685
H   H81       1.0  0.33410  0.62460  0.42880  1.0000 0.1101171028
H   H82       1.0  0.16590  0.12460  0.57120  1.0000 0.1101171028
H   H83       1.0  0.83410  0.12460  0.07120  1.0000 0.1101171028
H   H84       1.0  0.66590  0.62460  0.92880  1.0000 0.1101171028
H   H85       1.0  0.20050  0.68130  0.39530  1.0000 0.1190739416
H   H86       1.0  0.29950  0.18130  0.60470  1.0000 0.1190739416
H   H87       1.0  0.70050  0.18130  0.10470  1.0000 0.1190739416
H   H88       1.0  0.79950  0.68130  0.89530  1.0000 0.1190739416
H   H89       1.0  0.24610  0.67920  0.32190  1.0000 0.1101171028
H   H90       1.0  0.25390  0.17920  0.67810  1.0000 0.1101171028
H   H91       1.0  0.74610  0.17920  0.17810  1.0000 0.1101171028
H   H92       1.0  0.75390  0.67920  0.82190  1.0000 0.1101171028
H   H93       1.0  0.56410  0.59470  0.23730  1.0000 0.1101171028
H   H94       1.0  0.93590  0.09470  0.76270  1.0000 0.1101171028
H   H95       1.0  0.06410  0.09470  0.26270  1.0000 0.1101171028
H   H96       1.0  0.43590  0.59470  0.73730  1.0000 0.1101171028
H   H97       1.0  0.72710  0.54480  0.25820  1.0000 0.1190739416
H   H98       1.0  0.77290  0.04480  0.74180  1.0000 0.1190739416
H   H99       1.0  0.22710  0.04480  0.24180  1.0000 0.1190739416
H   H100      1.0  0.27290  0.54480  0.75820  1.0000 0.1190739416
H   H101      1.0  0.71870  0.53590  0.33250  1.0000 0.1014549704
H   H102      1.0  0.78130  0.03590  0.66750  1.0000 0.1014549704
H   H103      1.0  0.21870  0.03590  0.16750  1.0000 0.1014549704
H   H104      1.0  0.28130  0.53590  0.83250  1.0000 0.1014549704
H   H105      1.0  0.50980  0.68860  0.25280  1.0000 0.1309699622
H   H106      1.0  0.99020  0.18860  0.74720  1.0000 0.1309699622
H   H107      1.0  0.00980  0.18860  0.24720  1.0000 0.1309699622
H   H108      1.0  0.49020  0.68860  0.75280  1.0000 0.1309699622
H   H109      1.0  0.43390  0.72440  0.19600  1.0000 0.0914338854
H   H110      1.0  0.06610  0.22440  0.80400  1.0000 0.0914338854
H   H111      1.0  0.93390  0.22440  0.30400  1.0000 0.0914338854
H   H112      1.0  0.56610  0.72440  0.69600  1.0000 0.0914338854
H   H113      1.0  0.17310  0.64070  0.20420  1.0000 0.0914338854
H   H114      1.0  0.32690  0.14070  0.79580  1.0000 0.0914338854
H   H115      1.0  0.67310  0.14070  0.29580  1.0000 0.0914338854
H   H116      1.0  0.82690  0.64070  0.70420  1.0000 0.0914338854
H   H117      1.0  0.23640  0.60340  0.26380  1.0000 0.1383695685
H   H118      1.0  0.26360  0.10340  0.73620  1.0000 0.1383695685
H   H119      1.0  0.73640  0.10340  0.23620  1.0000 0.1383695685
H   H120      1.0  0.76360  0.60340  0.76380  1.0000 0.1383695685
H   H121      1.0  0.71070  0.46000  0.64400  1.0000 0.1014549704
H   H122      1.0  0.78930  0.96000  0.35600  1.0000 0.1014549704
H   H123      1.0  0.21070  0.96000  0.85600  1.0000 0.1014549704
H   H124      1.0  0.28930  0.46000  0.14400  1.0000 0.1014549704
H   H125      1.0  0.76610  0.54410  0.66910  1.0000 0.1101171028
H   H126      1.0  0.73390  0.04410  0.33090  1.0000 0.1101171028
H   H127      1.0  0.26610  0.04410  0.83090  1.0000 0.1101171028
H   H128      1.0  0.23390  0.54410  0.16910  1.0000 0.1101171028
H   H129      1.0  0.60910  0.59960  0.65920  1.0000 0.1014549704
H   H130      1.0  0.89090  0.09960  0.34080  1.0000 0.1014549704
H   H131      1.0  0.10910  0.09960  0.84080  1.0000 0.1014549704
H   H132      1.0  0.39090  0.59960  0.15920  1.0000 0.1014549704
H   H133      1.0  0.20690  0.57150  0.59790  1.0000 0.1101171028
H   H134      1.0  0.29310  0.07150  0.40210  1.0000 0.1101171028
H   H135      1.0  0.70690  0.07150  0.90210  1.0000 0.1101171028
H   H136      1.0  0.79310  0.57150  0.09790  1.0000 0.1101171028
H   H137      1.0  0.11530  0.49480  0.57030  1.0000 0.1190739416
H   H138      1.0  0.38470  0.99480  0.42970  1.0000 0.1190739416
H   H139      1.0  0.61530  0.99480  0.92970  1.0000 0.1190739416
H   H140      1.0  0.88470  0.49480  0.07030  1.0000 0.1190739416
H   H141      1.0  0.24710  0.42620  0.57510  1.0000 0.1014549704
H   H142      1.0  0.25290  0.92620  0.42490  1.0000 0.1014549704
H   H143      1.0  0.74710  0.92620  0.92490  1.0000 0.1014549704
H   H144      1.0  0.75290  0.42620  0.07510  1.0000 0.1014549704
H   H145      1.0  0.28220  0.59470  0.67640  1.0000 0.1383695685
H   H146      1.0  0.21780  0.09470  0.32360  1.0000 0.1383695685
H   H147      1.0  0.78220  0.09470  0.82360  1.0000 0.1383695685
H   H148      1.0  0.71780  0.59470  0.17640  1.0000 0.1383695685
H   H149      1.0  0.23840  0.67620  0.68460  1.0000 0.1014549704
H   H150      1.0  0.26160  0.17620  0.31540  1.0000 0.1014549704
H   H151      1.0  0.73840  0.17620  0.81540  1.0000 0.1014549704
H   H152      1.0  0.76160  0.67620  0.18460  1.0000 0.1014549704
H   H153      1.0  0.45250  0.71690  0.60500  1.0000 0.0914338854
H   H154      1.0  0.04750  0.21690  0.39500  1.0000 0.0914338854
H   H155      1.0  0.95250  0.21690  0.89500  1.0000 0.0914338854
H   H156      1.0  0.54750  0.71690  0.10500  1.0000 0.0914338854
H   H157      1.0  0.50220  0.63680  0.59300  1.0000 0.1190739416
H   H158      1.0  0.99780  0.13680  0.40700  1.0000 0.1190739416
H   H159      1.0  0.00220  0.13680  0.90700  1.0000 0.1190739416
H   H160      1.0  0.49780  0.63680  0.09300  1.0000 0.1190739416
H   H161      1.0  0.85900  0.99330  0.43790  1.0000 0.1101171028
H   H162      1.0  0.64100  0.49330  0.56210  1.0000 0.1101171028
H   H163      1.0  0.35900  0.49330  0.06210  1.0000 0.1101171028
H   H164      1.0  0.14100  0.99330  0.93790  1.0000 0.1101171028
H   H165      1.0  0.83580  0.98420  0.51210  1.0000 0.1190739416
H   H166      1.0  0.66420  0.48420  0.48790  1.0000 0.1190739416
H   H167      1.0  0.33580  0.48420  0.98790  1.0000 0.1190739416
H   H168      1.0  0.16420  0.98420  0.01210  1.0000 0.1190739416
H   H169      1.0  0.96550  0.92130  0.53530  1.0000 0.1190739416
H   H170      1.0  0.53450  0.42130  0.46470  1.0000 0.1190739416
H   H171      1.0  0.46550  0.42130  0.96470  1.0000 0.1190739416
H   H172      1.0  0.03450  0.92130  0.03530  1.0000 0.1190739416
H   H173      1.0  0.22740  0.79240  0.45480  1.0000 0.1190739416
H   H174      1.0  0.27260  0.29240  0.54520  1.0000 0.1190739416
H   H175      1.0  0.72740  0.29240  0.04520  1.0000 0.1190739416
H   H176      1.0  0.77260  0.79240  0.95480  1.0000 0.1190739416
H   H177      1.0  0.25150  0.77870  0.38140  1.0000 0.1190739416
H   H178      1.0  0.24850  0.27870  0.61860  1.0000 0.1190739416
H   H179      1.0  0.75150  0.27870  0.11860  1.0000 0.1190739416
H   H180      1.0  0.74850  0.77870  0.88140  1.0000 0.1190739416
H   H181      1.0  0.15180  0.84780  0.34620  1.0000 0.1101171028
H   H182      1.0  0.34820  0.34780  0.65380  1.0000 0.1014549704
H   H183      1.0  0.65180  0.34780  0.15380  1.0000 0.1014549704
H   H184      1.0  0.84820  0.84780  0.84620  1.0000 0.1014549704
H   H185      1.0  0.20540  0.91420  0.53140  1.0000 0.1383695685
H   H186      1.0  0.29460  0.41420  0.46860  1.0000 0.1383695685
H   H187      1.0  0.70540  0.41420  0.96860  1.0000 0.1383695685
H   H188      1.0  0.79460  0.91420  0.03140  1.0000 0.1383695685
H   H189      1.0  0.26690  0.87830  0.59010  1.0000 0.1014549704
H   H190      1.0  0.23310  0.37830  0.40990  1.0000 0.1014549704
H   H191      1.0  0.76690  0.37830  0.90990  1.0000 0.1014549704
H   H192      1.0  0.73310  0.87830  0.09010  1.0000 0.1014549704
H   H193      1.0  0.11790  0.75300  0.56510  1.0000 0.0914338854
H   H194      1.0  0.38210  0.25300  0.43490  1.0000 0.0914338854
H   H195      1.0  0.61790  0.25300  0.93490  1.0000 0.0914338854
H   H196      1.0  0.88210  0.75300  0.06510  1.0000 0.0914338854
H   H197      1.0  0.05000  0.78400  0.50660  1.0000 0.1383695685
H   H198      1.0  0.45000  0.28400  0.49340  1.0000 0.1383695685
H   H199      1.0  0.55000  0.28400  0.99340  1.0000 0.1383695685
H   H200      1.0  0.95000  0.78400  0.00660  1.0000 0.1383695685
H   H201      1.0  0.16590  0.87540  0.92880  1.0000 0.1101171028
H   H202      1.0  0.33410  0.37540  0.07120  1.0000 0.1101171028
H   H203      1.0  0.66590  0.37540  0.57120  1.0000 0.1101171028
H   H204      1.0  0.83410  0.87540  0.42880  1.0000 0.1101171028
H   H205      1.0  0.29950  0.81870  0.89530  1.0000 0.1190739416
H   H206      1.0  0.20050  0.31870  0.10470  1.0000 0.1190739416
H   H207      1.0  0.79950  0.31870  0.60470  1.0000 0.1190739416
H   H208      1.0  0.70050  0.81870  0.39530  1.0000 0.1190739416
H   H209      1.0  0.25390  0.82080  0.82190  1.0000 0.1101171028
H   H210      1.0  0.24610  0.32080  0.17810  1.0000 0.1101171028
H   H211      1.0  0.75390  0.32080  0.67810  1.0000 0.1101171028
H   H212      1.0  0.74610  0.82080  0.32190  1.0000 0.1101171028
H   H213      1.0  0.93590  0.90530  0.73730  1.0000 0.1101171028
H   H214      1.0  0.56410  0.40530  0.26270  1.0000 0.1101171028
H   H215      1.0  0.43590  0.40530  0.76270  1.0000 0.1101171028
H   H216      1.0  0.06410  0.90530  0.23730  1.0000 0.1101171028
H   H217      1.0  0.77290  0.95520  0.75820  1.0000 0.1190739416
H   H218      1.0  0.72710  0.45520  0.24180  1.0000 0.1190739416
H   H219      1.0  0.27290  0.45520  0.74180  1.0000 0.1190739416
H   H220      1.0  0.22710  0.95520  0.25820  1.0000 0.1190739416
H   H221      1.0  0.78130  0.96410  0.83250  1.0000 0.1014549704
H   H222      1.0  0.71870  0.46410  0.16750  1.0000 0.1014549704
H   H223      1.0  0.28130  0.46410  0.66750  1.0000 0.1014549704
H   H224      1.0  0.21870  0.96410  0.33250  1.0000 0.1014549704
H   H225      1.0  0.99020  0.81140  0.75280  1.0000 0.1309699622
H   H226      1.0  0.50980  0.31140  0.24720  1.0000 0.1309699622
H   H227      1.0  0.49020  0.31140  0.74720  1.0000 0.1309699622
H   H228      1.0  0.00980  0.81140  0.25280  1.0000 0.1309699622
H   H229      1.0  0.06610  0.77560  0.69600  1.0000 0.0914338854
H   H230      1.0  0.43390  0.27560  0.30400  1.0000 0.0914338854
H   H231      1.0  0.56610  0.27560  0.80400  1.0000 0.0914338854
H   H232      1.0  0.93390  0.77560  0.19600  1.0000 0.0914338854
H   H233      1.0  0.32690  0.85930  0.70420  1.0000 0.0914338854
H   H234      1.0  0.17310  0.35930  0.29580  1.0000 0.0914338854
H   H235      1.0  0.82690  0.35930  0.79580  1.0000 0.0914338854
H   H236      1.0  0.67310  0.85930  0.20420  1.0000 0.0914338854
H   H237      1.0  0.26360  0.89660  0.76380  1.0000 0.1383695685
H   H238      1.0  0.23640  0.39660  0.23620  1.0000 0.1383695685
H   H239      1.0  0.76360  0.39660  0.73620  1.0000 0.1383695685
H   H240      1.0  0.73640  0.89660  0.26380  1.0000 0.1383695685
C   C1        1.0  0.83510  0.01170  0.14419  1.0000 0.0280123719
C   C2        1.0  0.66490  0.51170  0.85581  1.0000 0.0280123719
C   C3        1.0  0.33510  0.51170  0.35581  1.0000 0.0280123719
C   C4        1.0  0.16490  0.01170  0.64419  1.0000 0.0280123719
C   C5        1.0  0.80240  0.96460  0.15820  1.0000 -0.1790692941
C   C6        1.0  0.69760  0.46460  0.84180  1.0000 -0.1790692941
C   C7        1.0  0.30240  0.46460  0.34180  1.0000 -0.1790692941
C   C8        1.0  0.19760  0.96460  0.65820  1.0000 -0.1790692941
C   C9        1.0  0.88810  0.93480  0.15300  1.0000 -0.2218949485
C   C10       1.0  0.61190  0.43480  0.84700  1.0000 -0.2218949485
C   C11       1.0  0.38810  0.43480  0.34700  1.0000 -0.2218949485
C   C12       1.0  0.11190  0.93480  0.65300  1.0000 -0.2273962188
C   C13       1.0  0.97400  0.96330  0.13676  1.0000 0.1383695685
C   C14       1.0  0.52600  0.46330  0.86324  1.0000 0.1383695685
C   C15       1.0  0.47400  0.46330  0.36324  1.0000 0.1383695685
C   C16       1.0  0.02600  0.96330  0.63676  1.0000 0.1383695685
C   C17       1.0  0.07900  0.94750  0.12579  1.0000 -0.0855424414
C   C18       1.0  0.42100  0.44750  0.87421  1.0000 -0.0849105875
C   C19       1.0  0.57900  0.44750  0.37421  1.0000 -0.0849105875
C   C20       1.0  0.92100  0.94750  0.62579  1.0000 -0.0849105875
C   C21       1.0  0.15700  0.97610  0.10873  1.0000 0.1309699622
C   C22       1.0  0.34300  0.47610  0.89127  1.0000 0.1309699622
C   C23       1.0  0.65700  0.47610  0.39127  1.0000 0.1309699622
C   C24       1.0  0.84300  0.97610  0.60873  1.0000 0.1190739416
C   C25       1.0  0.26310  0.96090  0.09610  1.0000 -0.2091024268
C   C26       1.0  0.23690  0.46090  0.90390  1.0000 -0.2091024268
C   C27       1.0  0.76310  0.46090  0.40390  1.0000 -0.2091024268
C   C28       1.0  0.73690  0.96090  0.59610  1.0000 -0.2091024268
C   C29       1.0  0.31330  0.00300  0.08080  1.0000 -0.1790692941
C   C30       1.0  0.18670  0.50300  0.91920  1.0000 -0.1790692941
C   C31       1.0  0.81330  0.50300  0.41920  1.0000 -0.1790692941
C   C32       1.0  0.68670  0.00300  0.58080  1.0000 -0.1790692941
C   C33       1.0  0.23870  0.04090  0.08390  1.0000 0.0053163072
C   C34       1.0  0.26130  0.54090  0.91610  1.0000 0.0053163072
C   C35       1.0  0.73870  0.54090  0.41610  1.0000 0.0053163072
C   C36       1.0  0.76130  0.04090  0.58390  1.0000 0.0053163072
C   C37       1.0  0.10520  0.89420  0.13340  1.0000 0.1309699622
C   C38       1.0  0.39480  0.39420  0.86660  1.0000 0.1309699622
C   C39       1.0  0.60520  0.39420  0.36660  1.0000 0.1309699622
C   C40       1.0  0.89480  0.89420  0.63340  1.0000 0.1309699622
C   C41       1.0  0.18240  0.88080  0.16072  1.0000 -0.1907784636
C   C42       1.0  0.31760  0.38080  0.83928  1.0000 -0.1907784636
C   C43       1.0  0.68240  0.38080  0.33928  1.0000 -0.1907784636
C   C44       1.0  0.81760  0.88080  0.66072  1.0000 -0.1907784636
C   C45       1.0  0.20810  0.83220  0.16528  1.0000 0.0280123719
C   C46       1.0  0.29190  0.33220  0.83472  1.0000 0.0280123719
C   C47       1.0  0.70810  0.33220  0.33472  1.0000 0.0280123719
C   C48       1.0  0.79190  0.83220  0.66528  1.0000 0.0280123719
C   C49       1.0  0.08420  0.80870  0.11900  1.0000 0.0214337648
C   C50       1.0  0.41580  0.30870  0.88100  1.0000 0.0214337648
C   C51       1.0  0.58420  0.30870  0.38100  1.0000 0.0214337648
C   C52       1.0  0.91580  0.80870  0.61900  1.0000 0.0214337648
C   C53       1.0  0.05310  0.85590  0.11190  1.0000 -0.1907784636
C   C54       1.0  0.44690  0.35590  0.88810  1.0000 -0.1907784636
C   C55       1.0  0.55310  0.35590  0.38810  1.0000 -0.1907784636
C   C56       1.0  0.94690  0.85590  0.61190  1.0000 -0.1907784636
C   C57       1.0  0.60190  0.52920  0.95432  1.0000 0.0280123719
C   C58       1.0  0.89810  0.02920  0.04568  1.0000 0.0280123719
C   C59       1.0  0.10190  0.02920  0.54568  1.0000 0.0280123719
C   C60       1.0  0.39810  0.52920  0.45432  1.0000 0.0280123719
C   C61       1.0  0.61480  0.53390  0.99590  1.0000 -0.1314964919
C   C62       1.0  0.88520  0.03390  0.00410  1.0000 -0.1314964919
C   C63       1.0  0.11480  0.03390  0.50410  1.0000 -0.1314964919
C   C64       1.0  0.38520  0.53390  0.49590  1.0000 -0.1314964919
C   C65       1.0  0.54530  0.56820  0.00850  1.0000 -0.2091024268
C   C66       1.0  0.95470  0.06820  0.99150  1.0000 -0.2091024268
C   C67       1.0  0.04530  0.06820  0.49150  1.0000 -0.2091024268
C   C68       1.0  0.45470  0.56820  0.50850  1.0000 -0.2091024268
C   C69       1.0  0.49090  0.58610  0.97450  1.0000 0.1383695685
C   C70       1.0  0.00910  0.08610  0.02550  1.0000 0.1383695685
C   C71       1.0  0.99090  0.08610  0.52550  1.0000 0.1383695685
C   C72       1.0  0.50910  0.58610  0.47450  1.0000 0.1383695685
C   C73       1.0  0.41370  0.62670  0.97210  1.0000 -0.0684151881
C   C74       1.0  0.08630  0.12670  0.02790  1.0000 -0.0684151881
C   C75       1.0  0.91370  0.12670  0.52790  1.0000 -0.0684151881
C   C76       1.0  0.58630  0.62670  0.47210  1.0000 -0.0684151881
C   C77       1.0  0.37450  0.64620  0.93770  1.0000 0.1383695685
C   C78       1.0  0.12550  0.14620  0.06230  1.0000 0.1383695685
C   C79       1.0  0.87450  0.14620  0.56230  1.0000 0.1383695685
C   C80       1.0  0.62550  0.64620  0.43770  1.0000 0.1383695685
C   C81       1.0  0.30330  0.68850  0.93370  1.0000 -0.2023802773
C   C82       1.0  0.19670  0.18850  0.06630  1.0000 -0.2023802773
C   C83       1.0  0.80330  0.18850  0.56630  1.0000 -0.2023802773
C   C84       1.0  0.69670  0.68850  0.43370  1.0000 -0.2023802773
C   C85       1.0  0.28890  0.69560  0.89380  1.0000 -0.1617596383
C   C86       1.0  0.21110  0.19560  0.10620  1.0000 -0.1617596383
C   C87       1.0  0.78890  0.19560  0.60620  1.0000 -0.1617596383
C   C88       1.0  0.71110  0.69560  0.39380  1.0000 -0.1617596383
C   C89       1.0  0.34630  0.65690  0.87430  1.0000 0.052431737
C   C90       1.0  0.15370  0.15690  0.12570  1.0000 0.052431737
C   C91       1.0  0.84630  0.15690  0.62570  1.0000 0.052431737
C   C92       1.0  0.65370  0.65690  0.37430  1.0000 0.052431737
C   C93       1.0  0.37970  0.64850  0.01064  1.0000 0.1190739416
C   C94       1.0  0.12030  0.14850  0.98936  1.0000 0.1190739416
C   C95       1.0  0.87970  0.14850  0.48936  1.0000 0.1190739416
C   C96       1.0  0.62030  0.64850  0.51064  1.0000 0.1190739416
C   C97       1.0  0.31240  0.61930  0.03750  1.0000 -0.2023802773
C   C98       1.0  0.18760  0.11930  0.96250  1.0000 -0.2023802773
C   C99       1.0  0.81240  0.11930  0.46250  1.0000 -0.2023802773
C   C100      1.0  0.68760  0.61930  0.53750  1.0000 -0.2023802773
C   C101      1.0  0.27500  0.64120  0.07220  1.0000 0.052431737
C   C102      1.0  0.22500  0.14120  0.92780  1.0000 0.052431737
C   C103      1.0  0.77500  0.14120  0.42780  1.0000 0.052431737
C   C104      1.0  0.72500  0.64120  0.57220  1.0000 0.052431737
C   C105      1.0  0.36240  0.71430  0.05750  1.0000 0.0214337648
C   C106      1.0  0.13760  0.21430  0.94250  1.0000 0.0214337648
C   C107      1.0  0.86240  0.21430  0.44250  1.0000 0.0214337648
C   C108      1.0  0.63760  0.71430  0.55750  1.0000 0.0214337648
C   C109      1.0  0.40400  0.69588  0.02260  1.0000 -0.1907784636
C   C110      1.0  0.09600  0.19588  0.97740  1.0000 -0.1907784636
C   C111      1.0  0.90400  0.19588  0.47740  1.0000 -0.1907784636
C   C112      1.0  0.59600  0.69588  0.52260  1.0000 -0.1907784636
C   C113      1.0  0.33250  0.63170  0.40100  1.0000 0.0214337648
C   C114      1.0  0.16750  0.13170  0.59900  1.0000 0.0214337648
C   C115      1.0  0.83250  0.13170  0.09900  1.0000 0.0214337648
C   C116      1.0  0.66750  0.63170  0.90100  1.0000 0.0214337648
C   C117      1.0  0.25690  0.66300  0.38280  1.0000 -0.1617596383
C   C118      1.0  0.24310  0.16300  0.61720  1.0000 -0.1650243486
C   C119      1.0  0.75690  0.16300  0.11720  1.0000 -0.1617596383
C   C120      1.0  0.74310  0.66300  0.88280  1.0000 -0.1617596383
C   C121      1.0  0.28200  0.66150  0.34260  1.0000 -0.2273962188
C   C122      1.0  0.21800  0.16150  0.65740  1.0000 -0.2273962188
C   C123      1.0  0.78200  0.16150  0.15740  1.0000 -0.2273962188
C   C124      1.0  0.71800  0.66150  0.84260  1.0000 -0.2273962188
C   C125      1.0  0.37060  0.62890  0.33780  1.0000 0.1455564116
C   C126      1.0  0.12940  0.12890  0.66220  1.0000 0.1455564116
C   C127      1.0  0.87060  0.12890  0.16220  1.0000 0.1455564116
C   C128      1.0  0.62940  0.62890  0.83780  1.0000 0.1455564116
C   C129      1.0  0.42610  0.61870  0.30230  1.0000 -0.0684151881
C   C130      1.0  0.07390  0.11870  0.69770  1.0000 -0.0684151881
C   C131      1.0  0.92610  0.11870  0.19770  1.0000 -0.0684151881
C   C132      1.0  0.57390  0.61870  0.80230  1.0000 -0.0684151881
C   C133      1.0  0.51990  0.59200  0.29920  1.0000 0.1309699622
C   C134      1.0  0.98010  0.09200  0.70080  1.0000 0.1309699622
C   C135      1.0  0.01990  0.09200  0.20080  1.0000 0.1309699622
C   C136      1.0  0.48010  0.59200  0.79920  1.0000 0.1309699622
C   C137      1.0  0.58160  0.58390  0.26360  1.0000 -0.2023802773
C   C138      1.0  0.91840  0.08390  0.73640  1.0000 -0.2023802773
C   C139      1.0  0.08160  0.08390  0.23640  1.0000 -0.2023802773
C   C140      1.0  0.41840  0.58390  0.76360  1.0000 -0.2023802773
C   C141      1.0  0.67160  0.55730  0.27510  1.0000 -0.1790692941
C   C142      1.0  0.82840  0.05730  0.72490  1.0000 -0.1790692941
C   C143      1.0  0.17160  0.05730  0.22490  1.0000 -0.1790692941
C   C144      1.0  0.32840  0.55730  0.77510  1.0000 -0.1790692941
C   C145      1.0  0.66530  0.55210  0.31670  1.0000 0.070581295
C   C146      1.0  0.83470  0.05210  0.68330  1.0000 0.070581295
C   C147      1.0  0.16530  0.05210  0.18330  1.0000 0.070581295
C   C148      1.0  0.33470  0.55210  0.81670  1.0000 0.070581295
C   C149      1.0  0.37910  0.64150  0.26450  1.0000 0.1309699622
C   C150      1.0  0.12090  0.14150  0.73550  1.0000 0.1309699622
C   C151      1.0  0.87910  0.14150  0.23550  1.0000 0.1309699622
C   C152      1.0  0.62090  0.64150  0.76450  1.0000 0.1309699622
C   C153      1.0  0.44040  0.67850  0.24360  1.0000 -0.2218949485
C   C154      1.0  0.05960  0.17850  0.75640  1.0000 -0.2218949485
C   C155      1.0  0.94040  0.17850  0.25640  1.0000 -0.2218949485
C   C156      1.0  0.55960  0.67850  0.74360  1.0000 -0.2218949485
C   C157      1.0  0.39550  0.69890  0.20960  1.0000 0.070581295
C   C158      1.0  0.10450  0.19890  0.79040  1.0000 0.070581295
C   C159      1.0  0.89550  0.19890  0.29040  1.0000 0.070581295
C   C160      1.0  0.60450  0.69890  0.70960  1.0000 0.070581295
C   C161      1.0  0.24170  0.64990  0.21480  1.0000 0.0437543512
C   C162      1.0  0.25830  0.14990  0.78520  1.0000 0.0437543512
C   C163      1.0  0.74170  0.14990  0.28520  1.0000 0.0437543512
C   C164      1.0  0.75830  0.64990  0.71480  1.0000 0.0437543512
C   C165      1.0  0.27890  0.62750  0.25020  1.0000 -0.1907784636
C   C166      1.0  0.22110  0.12750  0.74980  1.0000 -0.1907784636
C   C167      1.0  0.77890  0.12750  0.24980  1.0000 -0.1907784636
C   C168      1.0  0.72110  0.62750  0.75020  1.0000 -0.1907784636
C   C169      1.0  0.66490  0.48830  0.64419  1.0000 0.0280123719
C   C170      1.0  0.83510  0.98830  0.35581  1.0000 0.0280123719
C   C171      1.0  0.16490  0.98830  0.85581  1.0000 0.0280123719
C   C172      1.0  0.33510  0.48830  0.14419  1.0000 0.0280123719
C   C173      1.0  0.69760  0.53540  0.65820  1.0000 -0.1790692941
C   C174      1.0  0.80240  0.03540  0.34180  1.0000 -0.1790692941
C   C175      1.0  0.19760  0.03540  0.84180  1.0000 -0.1790692941
C   C176      1.0  0.30240  0.53540  0.15820  1.0000 -0.1790692941
C   C177      1.0  0.61190  0.56520  0.65300  1.0000 -0.2218949485
C   C178      1.0  0.88810  0.06520  0.34700  1.0000 -0.2218949485
C   C179      1.0  0.11190  0.06520  0.84700  1.0000 -0.2218949485
C   C180      1.0  0.38810  0.56520  0.15300  1.0000 -0.2218949485
C   C181      1.0  0.52600  0.53670  0.63676  1.0000 0.1383695685
C   C182      1.0  0.97400  0.03670  0.36324  1.0000 0.1383695685
C   C183      1.0  0.02600  0.03670  0.86324  1.0000 0.1383695685
C   C184      1.0  0.47400  0.53670  0.13676  1.0000 0.1383695685
C   C185      1.0  0.42100  0.55250  0.62579  1.0000 -0.0855424414
C   C186      1.0  0.07900  0.05250  0.37421  1.0000 -0.0849105875
C   C187      1.0  0.92100  0.05250  0.87421  1.0000 -0.0849105875
C   C188      1.0  0.57900  0.55250  0.12579  1.0000 -0.0849105875
C   C189      1.0  0.34300  0.52390  0.60873  1.0000 0.1190739416
C   C190      1.0  0.15700  0.02390  0.39127  1.0000 0.1309699622
C   C191      1.0  0.84300  0.02390  0.89127  1.0000 0.1309699622
C   C192      1.0  0.65700  0.52390  0.10873  1.0000 0.1309699622
C   C193      1.0  0.23690  0.53910  0.59610  1.0000 -0.2091024268
C   C194      1.0  0.26310  0.03910  0.40390  1.0000 -0.2091024268
C   C195      1.0  0.73690  0.03910  0.90390  1.0000 -0.2091024268
C   C196      1.0  0.76310  0.53910  0.09610  1.0000 -0.2091024268
C   C197      1.0  0.18670  0.49700  0.58080  1.0000 -0.1790692941
C   C198      1.0  0.31330  0.99700  0.41920  1.0000 -0.1790692941
C   C199      1.0  0.68670  0.99700  0.91920  1.0000 -0.1790692941
C   C200      1.0  0.81330  0.49700  0.08080  1.0000 -0.1790692941
C   C201      1.0  0.26130  0.45910  0.58390  1.0000 0.0046581877
C   C202      1.0  0.23870  0.95910  0.41610  1.0000 0.0046581877
C   C203      1.0  0.76130  0.95910  0.91610  1.0000 0.0053163072
C   C204      1.0  0.73870  0.45910  0.08390  1.0000 0.0053163072
C   C205      1.0  0.39480  0.60580  0.63340  1.0000 0.1309699622
C   C206      1.0  0.10520  0.10580  0.36660  1.0000 0.1309699622
C   C207      1.0  0.89480  0.10580  0.86660  1.0000 0.1309699622
C   C208      1.0  0.60520  0.60580  0.13340  1.0000 0.1309699622
C   C209      1.0  0.31760  0.61920  0.66072  1.0000 -0.1907784636
C   C210      1.0  0.18240  0.11920  0.33928  1.0000 -0.1907784636
C   C211      1.0  0.81760  0.11920  0.83928  1.0000 -0.1907784636
C   C212      1.0  0.68240  0.61920  0.16072  1.0000 -0.1907784636
C   C213      1.0  0.29190  0.66780  0.66528  1.0000 0.0280123719
C   C214      1.0  0.20810  0.16780  0.33472  1.0000 0.0280123719
C   C215      1.0  0.79190  0.16780  0.83472  1.0000 0.0280123719
C   C216      1.0  0.70810  0.66780  0.16528  1.0000 0.0280123719
C   C217      1.0  0.41580  0.69130  0.61900  1.0000 0.0214337648
C   C218      1.0  0.08420  0.19130  0.38100  1.0000 0.0214337648
C   C219      1.0  0.91580  0.19130  0.88100  1.0000 0.0280123719
C   C220      1.0  0.58420  0.69130  0.11900  1.0000 0.0214337648
C   C221      1.0  0.44690  0.64410  0.61190  1.0000 -0.1907784636
C   C222      1.0  0.05310  0.14410  0.38810  1.0000 -0.1907784636
C   C223      1.0  0.94690  0.14410  0.88810  1.0000 -0.1907784636
C   C224      1.0  0.55310  0.64410  0.11190  1.0000 -0.1907784636
C   C225      1.0  0.89810  0.97080  0.45432  1.0000 0.0280123719
C   C226      1.0  0.60190  0.47080  0.54568  1.0000 0.0280123719
C   C227      1.0  0.39810  0.47080  0.04568  1.0000 0.0280123719
C   C228      1.0  0.10190  0.97080  0.95432  1.0000 0.0280123719
C   C229      1.0  0.88520  0.96610  0.49590  1.0000 -0.1314964919
C   C230      1.0  0.61480  0.46610  0.50410  1.0000 -0.1314964919
C   C231      1.0  0.38520  0.46610  0.00410  1.0000 -0.1314964919
C   C232      1.0  0.11480  0.96610  0.99590  1.0000 -0.1314964919
C   C233      1.0  0.95470  0.93180  0.50850  1.0000 -0.2091024268
C   C234      1.0  0.54530  0.43180  0.49150  1.0000 -0.2091024268
C   C235      1.0  0.45470  0.43180  0.99150  1.0000 -0.2091024268
C   C236      1.0  0.04530  0.93180  0.00850  1.0000 -0.2091024268
C   C237      1.0  0.00910  0.91390  0.47450  1.0000 0.1383695685
C   C238      1.0  0.49090  0.41390  0.52550  1.0000 0.1383695685
C   C239      1.0  0.50910  0.41390  0.02550  1.0000 0.1383695685
C   C240      1.0  0.99090  0.91390  0.97450  1.0000 0.1383695685
C   C241      1.0  0.08630  0.87330  0.47210  1.0000 -0.0684151881
C   C242      1.0  0.41370  0.37330  0.52790  1.0000 -0.0684151881
C   C243      1.0  0.58630  0.37330  0.02790  1.0000 -0.0684151881
C   C244      1.0  0.91370  0.87330  0.97210  1.0000 -0.0684151881
C   C245      1.0  0.12550  0.85380  0.43770  1.0000 0.1383695685
C   C246      1.0  0.37450  0.35380  0.56230  1.0000 0.1383695685
C   C247      1.0  0.62550  0.35380  0.06230  1.0000 0.1383695685
C   C248      1.0  0.87450  0.85380  0.93770  1.0000 0.1383695685
C   C249      1.0  0.19670  0.81150  0.43370  1.0000 -0.2023802773
C   C250      1.0  0.30330  0.31150  0.56630  1.0000 -0.2023802773
C   C251      1.0  0.69670  0.31150  0.06630  1.0000 -0.2023802773
C   C252      1.0  0.80330  0.81150  0.93370  1.0000 -0.2023802773
C   C253      1.0  0.21110  0.80440  0.39380  1.0000 -0.1617596383
C   C254      1.0  0.28890  0.30440  0.60620  1.0000 -0.1617596383
C   C255      1.0  0.71110  0.30440  0.10620  1.0000 -0.1617596383
C   C256      1.0  0.78890  0.80440  0.89380  1.0000 -0.1617596383
C   C257      1.0  0.15370  0.84310  0.37430  1.0000 0.052431737
C   C258      1.0  0.34630  0.34310  0.62570  1.0000 0.052431737
C   C259      1.0  0.65370  0.34310  0.12570  1.0000 0.052431737
C   C260      1.0  0.84630  0.84310  0.87430  1.0000 0.052431737
C   C261      1.0  0.12030  0.85150  0.51064  1.0000 0.1190739416
C   C262      1.0  0.37970  0.35150  0.48936  1.0000 0.1190739416
C   C263      1.0  0.62030  0.35150  0.98936  1.0000 0.1190739416
C   C264      1.0  0.87970  0.85150  0.01064  1.0000 0.1190739416
C   C265      1.0  0.18760  0.88070  0.53750  1.0000 -0.2023802773
C   C266      1.0  0.31240  0.38070  0.46250  1.0000 -0.2023802773
C   C267      1.0  0.68760  0.38070  0.96250  1.0000 -0.2023802773
C   C268      1.0  0.81240  0.88070  0.03750  1.0000 -0.2023802773
C   C269      1.0  0.22500  0.85880  0.57220  1.0000 0.052431737
C   C270      1.0  0.27500  0.35880  0.42780  1.0000 0.052431737
C   C271      1.0  0.72500  0.35880  0.92780  1.0000 0.052431737
C   C272      1.0  0.77500  0.85880  0.07220  1.0000 0.052431737
C   C273      1.0  0.13760  0.78570  0.55750  1.0000 0.0214337648
C   C274      1.0  0.36240  0.28570  0.44250  1.0000 0.0214337648
C   C275      1.0  0.63760  0.28570  0.94250  1.0000 0.0214337648
C   C276      1.0  0.86240  0.78570  0.05750  1.0000 0.0214337648
C   C277      1.0  0.09600  0.80412  0.52260  1.0000 -0.1907784636
C   C278      1.0  0.40400  0.30412  0.47740  1.0000 -0.1907784636
C   C279      1.0  0.59600  0.30412  0.97740  1.0000 -0.1907784636
C   C280      1.0  0.90400  0.80412  0.02260  1.0000 -0.1907784636
C   C281      1.0  0.16750  0.86830  0.90100  1.0000 0.0214337648
C   C282      1.0  0.33250  0.36830  0.09900  1.0000 0.0214337648
C   C283      1.0  0.66750  0.36830  0.59900  1.0000 0.0214337648
C   C284      1.0  0.83250  0.86830  0.40100  1.0000 0.0214337648
C   C285      1.0  0.24310  0.83700  0.88280  1.0000 -0.1617596383
C   C286      1.0  0.25690  0.33700  0.11720  1.0000 -0.1617596383
C   C287      1.0  0.74310  0.33700  0.61720  1.0000 -0.1650243486
C   C288      1.0  0.75690  0.83700  0.38280  1.0000 -0.1617596383
C   C289      1.0  0.21800  0.83850  0.84260  1.0000 -0.2273962188
C   C290      1.0  0.28200  0.33850  0.15740  1.0000 -0.2273962188
C   C291      1.0  0.71800  0.33850  0.65740  1.0000 -0.2273962188
C   C292      1.0  0.78200  0.83850  0.34260  1.0000 -0.2273962188
C   C293      1.0  0.12940  0.87110  0.83780  1.0000 0.1455564116
C   C294      1.0  0.37060  0.37110  0.16220  1.0000 0.1455564116
C   C295      1.0  0.62940  0.37110  0.66220  1.0000 0.1455564116
C   C296      1.0  0.87060  0.87110  0.33780  1.0000 0.1455564116
C   C297      1.0  0.07390  0.88130  0.80230  1.0000 -0.0684151881
C   C298      1.0  0.42610  0.38130  0.19770  1.0000 -0.0684151881
C   C299      1.0  0.57390  0.38130  0.69770  1.0000 -0.0684151881
C   C300      1.0  0.92610  0.88130  0.30230  1.0000 -0.0684151881
C   C301      1.0  0.98010  0.90800  0.79920  1.0000 0.1309699622
C   C302      1.0  0.51990  0.40800  0.20080  1.0000 0.1309699622
C   C303      1.0  0.48010  0.40800  0.70080  1.0000 0.1309699622
C   C304      1.0  0.01990  0.90800  0.29920  1.0000 0.1309699622
C   C305      1.0  0.91840  0.91610  0.76360  1.0000 -0.2023802773
C   C306      1.0  0.58160  0.41610  0.23640  1.0000 -0.2023802773
C   C307      1.0  0.41840  0.41610  0.73640  1.0000 -0.2023802773
C   C308      1.0  0.08160  0.91610  0.26360  1.0000 -0.2023802773
C   C309      1.0  0.82840  0.94270  0.77510  1.0000 -0.1790692941
C   C310      1.0  0.67160  0.44270  0.22490  1.0000 -0.1790692941
C   C311      1.0  0.32840  0.44270  0.72490  1.0000 -0.1790692941
C   C312      1.0  0.17160  0.94270  0.27510  1.0000 -0.1790692941
C   C313      1.0  0.83470  0.94790  0.81670  1.0000 0.070581295
C   C314      1.0  0.66530  0.44790  0.18330  1.0000 0.070581295
C   C315      1.0  0.33470  0.44790  0.68330  1.0000 0.070581295
C   C316      1.0  0.16530  0.94790  0.31670  1.0000 0.070581295
C   C317      1.0  0.12090  0.85850  0.76450  1.0000 0.1309699622
C   C318      1.0  0.37910  0.35850  0.23550  1.0000 0.1309699622
C   C319      1.0  0.62090  0.35850  0.73550  1.0000 0.1309699622
C   C320      1.0  0.87910  0.85850  0.26450  1.0000 0.1309699622
C   C321      1.0  0.05960  0.82150  0.74360  1.0000 -0.2218949485
C   C322      1.0  0.44040  0.32150  0.25640  1.0000 -0.2218949485
C   C323      1.0  0.55960  0.32150  0.75640  1.0000 -0.2218949485
C   C324      1.0  0.94040  0.82150  0.24360  1.0000 -0.2218949485
C   C325      1.0  0.10450  0.80110  0.70960  1.0000 0.070581295
C   C326      1.0  0.39550  0.30110  0.29040  1.0000 0.070581295
C   C327      1.0  0.60450  0.30110  0.79040  1.0000 0.070581295
C   C328      1.0  0.89550  0.80110  0.20960  1.0000 0.070581295
C   C329      1.0  0.25830  0.85010  0.71480  1.0000 0.0437543512
C   C330      1.0  0.24170  0.35010  0.28520  1.0000 0.0437543512
C   C331      1.0  0.75830  0.35010  0.78520  1.0000 0.0437543512
C   C332      1.0  0.74170  0.85010  0.21480  1.0000 0.0437543512
C   C333      1.0  0.22110  0.87250  0.75020  1.0000 -0.1907784636
C   C334      1.0  0.27890  0.37250  0.24980  1.0000 -0.1907784636
C   C335      1.0  0.72110  0.37250  0.74980  1.0000 -0.1907784636
C   C336      1.0  0.77890  0.87250  0.25020  1.0000 -0.1907784636
N   N1        1.0  0.93700  0.01198  0.13123  1.0000 -0.2419984533
N   N2        1.0  0.56300  0.51198  0.86877  1.0000 -0.2489705932
N   N3        1.0  0.43700  0.51198  0.36877  1.0000 -0.2489705932
N   N4        1.0  0.06300  0.01198  0.63123  1.0000 -0.2489705932
N   N5        1.0  0.14430  0.02713  0.10028  1.0000 -0.2419984533
N   N6        1.0  0.35570  0.52713  0.89972  1.0000 -0.2419984533
N   N7        1.0  0.64430  0.52713  0.39972  1.0000 -0.2419984533
N   N8        1.0  0.85570  0.02713  0.60028  1.0000 -0.2419984533
N   N9        1.0  0.16280  0.79520  0.14432  1.0000 -0.1907784636
N   N10       1.0  0.33720  0.29520  0.85568  1.0000 -0.1907784636
N   N11       1.0  0.66280  0.29520  0.35568  1.0000 -0.1907784636
N   N12       1.0  0.83720  0.79520  0.64432  1.0000 -0.1907784636
N   N13       1.0  0.52650  0.56088  0.94143  1.0000 -0.2555991496
N   N14       1.0  0.97350  0.06088  0.05857  1.0000 -0.2489705932
N   N15       1.0  0.02650  0.06088  0.55857  1.0000 -0.2489705932
N   N16       1.0  0.47350  0.56088  0.44143  1.0000 -0.2555991496
N   N17       1.0  0.39630  0.62853  0.90012  1.0000 -0.2218949485
N   N18       1.0  0.10370  0.12853  0.09988  1.0000 -0.2218949485
N   N19       1.0  0.89630  0.12853  0.59988  1.0000 -0.2218949485
N   N20       1.0  0.60370  0.62853  0.40012  1.0000 -0.2218949485
N   N21       1.0  0.29500  0.68886  0.08192  1.0000 -0.2218949485
N   N22       1.0  0.20500  0.18886  0.91808  1.0000 -0.2218949485
N   N23       1.0  0.79500  0.18886  0.41808  1.0000 -0.2218949485
N   N24       1.0  0.70500  0.68886  0.58192  1.0000 -0.2218949485
N   N25       1.0  0.40280  0.61286  0.37432  1.0000 -0.2419984533
N   N26       1.0  0.09720  0.11286  0.62568  1.0000 -0.2419984533
N   N27       1.0  0.90280  0.11286  0.12568  1.0000 -0.2419984533
N   N28       1.0  0.59720  0.61286  0.87432  1.0000 -0.2419984533
N   N29       1.0  0.57860  0.57198  0.33121  1.0000 -0.2273962188
N   N30       1.0  0.92140  0.07198  0.66879  1.0000 -0.2273962188
N   N31       1.0  0.07860  0.07198  0.16879  1.0000 -0.2273962188
N   N32       1.0  0.42140  0.57198  0.83121  1.0000 -0.2273962188
N   N33       1.0  0.30260  0.68460  0.19556  1.0000 -0.2023802773
N   N34       1.0  0.19740  0.18460  0.80444  1.0000 -0.2023802773
N   N35       1.0  0.80260  0.18460  0.30444  1.0000 -0.2023802773
N   N36       1.0  0.69740  0.68460  0.69556  1.0000 -0.2023802773
N   N37       1.0  0.56300  0.48802  0.63123  1.0000 -0.2489705932
N   N38       1.0  0.93700  0.98802  0.36877  1.0000 -0.2489705932
N   N39       1.0  0.06300  0.98802  0.86877  1.0000 -0.2489705932
N   N40       1.0  0.43700  0.48802  0.13123  1.0000 -0.2419984533
N   N41       1.0  0.35570  0.47287  0.60028  1.0000 -0.2419984533
N   N42       1.0  0.14430  0.97287  0.39972  1.0000 -0.2419984533
N   N43       1.0  0.85570  0.97287  0.89972  1.0000 -0.2419984533
N   N44       1.0  0.64430  0.47287  0.10028  1.0000 -0.2419984533
N   N45       1.0  0.33720  0.70480  0.64432  1.0000 -0.1907784636
N   N46       1.0  0.16280  0.20480  0.35568  1.0000 -0.1907784636
N   N47       1.0  0.83720  0.20480  0.85568  1.0000 -0.1907784636
N   N48       1.0  0.66280  0.70480  0.14432  1.0000 -0.1907784636
N   N49       1.0  0.97350  0.93912  0.44143  1.0000 -0.2555991496
N   N50       1.0  0.52650  0.43912  0.55857  1.0000 -0.2555991496
N   N51       1.0  0.47350  0.43912  0.05857  1.0000 -0.2489705932
N   N52       1.0  0.02650  0.93912  0.94143  1.0000 -0.2555991496
N   N53       1.0  0.10370  0.87147  0.40012  1.0000 -0.2218949485
N   N54       1.0  0.39630  0.37147  0.59988  1.0000 -0.2218949485
N   N55       1.0  0.60370  0.37147  0.09988  1.0000 -0.2218949485
N   N56       1.0  0.89630  0.87147  0.90012  1.0000 -0.2218949485
N   N57       1.0  0.20500  0.81114  0.58192  1.0000 -0.2218949485
N   N58       1.0  0.29500  0.31114  0.41808  1.0000 -0.2218949485
N   N59       1.0  0.70500  0.31114  0.91808  1.0000 -0.2218949485
N   N60       1.0  0.79500  0.81114  0.08192  1.0000 -0.2218949485
N   N61       1.0  0.09720  0.88714  0.87432  1.0000 -0.2419984533
N   N62       1.0  0.40280  0.38714  0.12568  1.0000 -0.2419984533
N   N63       1.0  0.59720  0.38714  0.62568  1.0000 -0.2419984533
N   N64       1.0  0.90280  0.88714  0.37432  1.0000 -0.2419984533
N   N65       1.0  0.92140  0.92802  0.83121  1.0000 -0.2273962188
N   N66       1.0  0.57860  0.42802  0.16879  1.0000 -0.2273962188
N   N67       1.0  0.42140  0.42802  0.66879  1.0000 -0.2273962188
N   N68       1.0  0.07860  0.92802  0.33121  1.0000 -0.2273962188
N   N69       1.0  0.19740  0.81540  0.69556  1.0000 -0.2023802773
N   N70       1.0  0.30260  0.31540  0.30444  1.0000 -0.2023802773
N   N71       1.0  0.69740  0.31540  0.80444  1.0000 -0.2023802773
N   N72       1.0  0.80260  0.81540  0.19556  1.0000 -0.2023802773
