# DDEC6 charges by PACMAN v1.1 (https://github.com/mtap-research/PACMAN-charge/)
data_2006[Cu][ins]3[ASR]1
_chemical_formula_sum              "Cu4 H28 C48 N12 O16"
_cell_length_a       4.7109
_cell_length_b       31.858
_cell_length_c       11.002
_cell_angle_alpha    90
_cell_angle_beta     96.008
_cell_angle_gamma    90

_symmetry_space_group_name_H-M    "P 1"
_symmetry_Int_Tables_number       1

loop_
  _symmetry_equiv_pos_as_xyz
  'x, y, z'

loop_
  _atom_site_type_symbol
  _atom_site_label
  _atom_site_symmetry_multiplicity
  _atom_site_fract_x
  _atom_site_fract_y
  _atom_site_fract_z
  _atom_site_occupancy
  _atom_site_charge
Cu  Cu1       1.0  0.50100  0.80420  0.41100  1.0000 0.6756678783
Cu  Cu2       1.0  0.49900  0.30420  0.08900  1.0000 0.6756678783
Cu  Cu3       1.0  0.49900  0.19580  0.58900  1.0000 0.6756678783
Cu  Cu4       1.0  0.50100  0.69580  0.91100  1.0000 0.6756678783
H   H1        1.0  0.63130  0.70810  0.46100  1.0000 0.1314547324
H   H2        1.0  0.36870  0.20810  0.03900  1.0000 0.1314547324
H   H3        1.0  0.36870  0.29190  0.53900  1.0000 0.1314547324
H   H4        1.0  0.63130  0.79190  0.96100  1.0000 0.1314547324
H   H5        1.0  0.44890  0.64680  0.36410  1.0000 0.1122103
H   H6        1.0  0.55110  0.14680  0.13590  1.0000 0.1122103
H   H7        1.0  0.55110  0.35320  0.63590  1.0000 0.1122103
H   H8        1.0  0.44890  0.85320  0.86410  1.0000 0.1122103
H   H9        1.0  0.73330  0.01300  0.46060  1.0000 0.121641215
H   H10       1.0  0.26670  0.51300  0.03940  1.0000 0.121641215
H   H11       1.0  0.26670  0.98700  0.53940  1.0000 0.121641215
H   H12       1.0  0.73330  0.48700  0.96060  1.0000 0.121641215
H   H13       1.0  0.45210  0.87140  0.59090  1.0000 0.0979102739
H   H14       1.0  0.54790  0.37140  0.90910  1.0000 0.0979102739
H   H15       1.0  0.54790  0.12860  0.40910  1.0000 0.0979102739
H   H16       1.0  0.45210  0.62860  0.09090  1.0000 0.0979102739
H   H17       1.0  0.61630  0.94040  0.62380  1.0000 0.1314547324
H   H18       1.0  0.38370  0.44040  0.87620  1.0000 0.1314547324
H   H19       1.0  0.38370  0.05960  0.37620  1.0000 0.1314547324
H   H20       1.0  0.61630  0.55960  0.12380  1.0000 0.1314547324
H   H21       1.0  0.78250  0.86940  0.26440  1.0000 0.1314547324
H   H22       1.0  0.21750  0.36940  0.23560  1.0000 0.1314547324
H   H23       1.0  0.21750  0.13060  0.73560  1.0000 0.1314547324
H   H24       1.0  0.78250  0.63060  0.76440  1.0000 0.1314547324
H   H25       1.0  0.94680  0.93840  0.29730  1.0000 0.1426484847
H   H26       1.0  0.05320  0.43840  0.20270  1.0000 0.1426484847
H   H27       1.0  0.05320  0.06160  0.70270  1.0000 0.1426484847
H   H28       1.0  0.94680  0.56160  0.79730  1.0000 0.1426484847
C   C1        1.0  0.88268  0.99341  0.48055  1.0000 -0.1200653686
C   C2        1.0  0.11732  0.49341  0.01945  1.0000 -0.1200653686
C   C3        1.0  0.11732  0.00659  0.51945  1.0000 -0.1200653686
C   C4        1.0  0.88268  0.50659  0.98055  1.0000 -0.1200653686
C   C5        1.0  0.21650  0.79470  0.17700  1.0000 0.5226457828
C   C6        1.0  0.78350  0.29470  0.32300  1.0000 0.5226457828
C   C7        1.0  0.78350  0.20530  0.82300  1.0000 0.5226457828
C   C8        1.0  0.21650  0.70530  0.67700  1.0000 0.5226457828
C   C9        1.0  0.26740  0.74930  0.22940  1.0000 0.0767410175
C   C10       1.0  0.73260  0.24930  0.27060  1.0000 0.0767410175
C   C11       1.0  0.73260  0.25070  0.77060  1.0000 0.0767410175
C   C12       1.0  0.26740  0.75070  0.72940  1.0000 0.0767410175
C   C13       1.0  0.50950  0.70980  0.38670  1.0000 0.0598107265
C   C14       1.0  0.49050  0.20980  0.11330  1.0000 0.0598107265
C   C15       1.0  0.49050  0.29020  0.61330  1.0000 0.0598107265
C   C16       1.0  0.50950  0.79020  0.88670  1.0000 0.0598107265
C   C17       1.0  0.39750  0.67330  0.32860  1.0000 0.0687008054
C   C18       1.0  0.60250  0.17330  0.17140  1.0000 0.0687008054
C   C19       1.0  0.60250  0.32670  0.67140  1.0000 0.0687008054
C   C20       1.0  0.39750  0.82670  0.82860  1.0000 0.0687008054
C   C21       1.0  0.15520  0.71210  0.17530  1.0000 0.0598107265
C   C22       1.0  0.84480  0.21210  0.32470  1.0000 0.0598107265
C   C23       1.0  0.84480  0.28790  0.82470  1.0000 0.0598107265
C   C24       1.0  0.15520  0.78790  0.67530  1.0000 0.0598107265
C   C25       1.0  0.96830  0.70840  0.05720  1.0000 0.4670049736
C   C26       1.0  0.03170  0.20840  0.44280  1.0000 0.4670049736
C   C27       1.0  0.03170  0.29160  0.94280  1.0000 0.4670049736
C   C28       1.0  0.96830  0.79160  0.55720  1.0000 0.4670049736
C   C29       1.0  0.74890  0.88380  0.33720  1.0000 0.1122103
C   C30       1.0  0.25110  0.38380  0.16280  1.0000 0.1122103
C   C31       1.0  0.25110  0.11620  0.66280  1.0000 0.1122103
C   C32       1.0  0.74890  0.61620  0.83720  1.0000 0.1122103
C   C33       1.0  0.55230  0.88500  0.53150  1.0000 0.0687008054
C   C34       1.0  0.44770  0.38500  0.96850  1.0000 0.0687008054
C   C35       1.0  0.44770  0.11500  0.46850  1.0000 0.0687008054
C   C36       1.0  0.55230  0.61500  0.03150  1.0000 0.0687008054
C   C37       1.0  0.65000  0.92600  0.55100  1.0000 -0.231939297
C   C38       1.0  0.35000  0.42600  0.94900  1.0000 -0.231939297
C   C39       1.0  0.35000  0.07400  0.44900  1.0000 -0.231939297
C   C40       1.0  0.65000  0.57400  0.05100  1.0000 -0.231939297
C   C41       1.0  0.84660  0.92480  0.35680  1.0000 -0.2136237732
C   C42       1.0  0.15340  0.42480  0.14320  1.0000 -0.2136237732
C   C43       1.0  0.15340  0.07520  0.64320  1.0000 -0.2136237732
C   C44       1.0  0.84660  0.57520  0.85680  1.0000 -0.2136237732
C   C45       1.0  0.79710  0.94590  0.46370  1.0000 0.1534749345
C   C46       1.0  0.20290  0.44590  0.03630  1.0000 0.1534749345
C   C47       1.0  0.20290  0.05410  0.53630  1.0000 0.1534749345
C   C48       1.0  0.79710  0.55410  0.96370  1.0000 0.1534749345
N   N1        1.0  0.43950  0.74810  0.33400  1.0000 -0.2557082361
N   N2        1.0  0.56050  0.24810  0.16600  1.0000 -0.2557082361
N   N3        1.0  0.56050  0.25190  0.66600  1.0000 -0.2557082361
N   N4        1.0  0.43950  0.75190  0.83400  1.0000 -0.2557082361
N   N5        1.0  0.22330  0.67430  0.22640  1.0000 -0.2427205405
N   N6        1.0  0.77670  0.17430  0.27360  1.0000 -0.2427205405
N   N7        1.0  0.77670  0.32570  0.77360  1.0000 -0.2427205405
N   N8        1.0  0.22330  0.82570  0.72640  1.0000 -0.2427205405
N   N9        1.0  0.60170  0.86390  0.42460  1.0000 -0.2901901937
N   N10       1.0  0.39830  0.36390  0.07540  1.0000 -0.2901901937
N   N11       1.0  0.39830  0.13610  0.57540  1.0000 -0.2901901937
N   N12       1.0  0.60170  0.63610  0.92460  1.0000 -0.2901901937
O   O1        1.0  0.31485  0.82296  0.24416  1.0000 -0.4693891442
O   O2        1.0  0.68515  0.32296  0.25584  1.0000 -0.4693891442
O   O3        1.0  0.68515  0.17704  0.75584  1.0000 -0.4693891442
O   O4        1.0  0.31485  0.67704  0.74416  1.0000 -0.4693891442
O   O5        1.0  0.01927  0.80030  0.06993  1.0000 -0.6463962532
O   O6        1.0  0.98073  0.30030  0.43007  1.0000 -0.6463962532
O   O7        1.0  0.98073  0.19970  0.93007  1.0000 -0.6463962532
O   O8        1.0  0.01927  0.69970  0.56993  1.0000 -0.6463962532
O   O9        1.0  0.70819  0.71735  0.00789  1.0000 -0.3891775048
O   O10       1.0  0.29181  0.21735  0.49211  1.0000 -0.3891775048
O   O11       1.0  0.29181  0.28265  0.99211  1.0000 -0.3891775048
O   O12       1.0  0.70819  0.78265  0.50789  1.0000 -0.3891775048
O   O13       1.0  0.10582  0.69724  0.98899  1.0000 -0.2736255265
O   O14       1.0  0.89418  0.19724  0.51101  1.0000 -0.2736255265
O   O15       1.0  0.89418  0.30276  0.01101  1.0000 -0.2764518595
O   O16       1.0  0.10582  0.80276  0.48899  1.0000 -0.2736255265
