# DDEC6 charges by PACMAN v1.1 (https://github.com/mtap-research/PACMAN-charge/)
data_2006[Cu][bcu]3[ASR]1
_chemical_formula_sum              "Cu8 H32 C48 N8 O20"
_cell_length_a       12.389
_cell_length_b       14.146
_cell_length_c       14.2349
_cell_angle_alpha    90
_cell_angle_beta     120.746
_cell_angle_gamma    90

_symmetry_space_group_name_H-M    "P 1"
_symmetry_Int_Tables_number       1

loop_
  _symmetry_equiv_pos_as_xyz
  'x, y, z'

loop_
  _atom_site_type_symbol
  _atom_site_label
  _atom_site_symmetry_multiplicity
  _atom_site_fract_x
  _atom_site_fract_y
  _atom_site_fract_z
  _atom_site_occupancy
  _atom_site_charge
Cu  Cu1       1.0  0.25693  0.40738  0.42159  1.0000 0.7846245549
Cu  Cu2       1.0  0.74307  0.90738  0.07841  1.0000 0.7846245549
Cu  Cu3       1.0  0.74307  0.59262  0.57841  1.0000 0.7846245549
Cu  Cu4       1.0  0.25693  0.09262  0.92159  1.0000 0.7861141544
Cu  Cu5       1.0  0.56662  0.06816  0.09291  1.0000 0.9127639514
Cu  Cu6       1.0  0.43338  0.56816  0.40709  1.0000 0.9127639514
Cu  Cu7       1.0  0.43338  0.93184  0.90709  1.0000 0.9127639514
Cu  Cu8       1.0  0.56662  0.43184  0.59291  1.0000 0.9127639514
H   H1        1.0  0.50960  0.26990  0.07630  1.0000 0.1105589519
H   H2        1.0  0.49040  0.76990  0.42370  1.0000 0.1105589519
H   H3        1.0  0.49040  0.73010  0.92370  1.0000 0.1105589519
H   H4        1.0  0.50960  0.23010  0.57630  1.0000 0.1105589519
H   H5        1.0  0.44280  0.38250  0.14890  1.0000 0.1322505505
H   H6        1.0  0.55720  0.88250  0.35110  1.0000 0.1322505505
H   H7        1.0  0.55720  0.61750  0.85110  1.0000 0.1322505505
H   H8        1.0  0.44280  0.11750  0.64890  1.0000 0.1322505505
H   H9        1.0  0.42340  0.18360  0.33890  1.0000 0.1322505505
H   H10       1.0  0.57660  0.68360  0.16110  1.0000 0.1322505505
H   H11       1.0  0.57660  0.81640  0.66110  1.0000 0.1322505505
H   H12       1.0  0.42340  0.31640  0.83890  1.0000 0.1322505505
H   H13       1.0  0.48900  0.07470  0.25890  1.0000 0.1105589519
H   H14       1.0  0.51100  0.57470  0.24110  1.0000 0.1105589519
H   H15       1.0  0.51100  0.92530  0.74110  1.0000 0.1105589519
H   H16       1.0  0.48900  0.42530  0.75890  1.0000 0.1105589519
H   H17       1.0  0.98380  0.39970  0.29700  1.0000 0.1105589519
H   H18       1.0  0.01620  0.89970  0.20300  1.0000 0.1105589519
H   H19       1.0  0.01620  0.60030  0.70300  1.0000 0.1105589519
H   H20       1.0  0.98380  0.10030  0.79700  1.0000 0.1105589519
H   H21       1.0  0.82180  0.29450  0.20890  1.0000 0.1376684588
H   H22       1.0  0.17820  0.79450  0.29110  1.0000 0.1376684588
H   H23       1.0  0.17820  0.70550  0.79110  1.0000 0.1376684588
H   H24       1.0  0.82180  0.20550  0.70890  1.0000 0.1376684588
H   H25       1.0  0.07750  0.08930  0.29520  1.0000 0.1322505505
H   H26       1.0  0.92250  0.58930  0.20480  1.0000 0.1322505505
H   H27       1.0  0.92250  0.91070  0.70480  1.0000 0.1322505505
H   H28       1.0  0.07750  0.41070  0.79520  1.0000 0.1322505505
H   H29       1.0  0.23030  0.20130  0.37710  1.0000 0.102697229
H   H30       1.0  0.76970  0.70130  0.12290  1.0000 0.102697229
H   H31       1.0  0.76970  0.79870  0.62290  1.0000 0.102697229
H   H32       1.0  0.23030  0.29870  0.87710  1.0000 0.102697229
C   C1        1.0  0.49170  0.25260  0.12990  1.0000 0.0439910945
C   C2        1.0  0.50830  0.75260  0.37010  1.0000 0.0439910945
C   C3        1.0  0.50830  0.74740  0.87010  1.0000 0.0439910945
C   C4        1.0  0.49170  0.24740  0.62990  1.0000 0.0439910945
C   C5        1.0  0.45260  0.32040  0.17340  1.0000 -0.1498465407
C   C6        1.0  0.54740  0.82040  0.32660  1.0000 -0.1498465407
C   C7        1.0  0.54740  0.67960  0.82660  1.0000 -0.1498465407
C   C8        1.0  0.45260  0.17960  0.67340  1.0000 -0.1498465407
C   C9        1.0  0.42780  0.29640  0.25340  1.0000 0.0477200709
C   C10       1.0  0.57220  0.79640  0.24660  1.0000 0.0477200709
C   C11       1.0  0.57220  0.70360  0.74660  1.0000 0.0477200709
C   C12       1.0  0.42780  0.20360  0.75340  1.0000 0.0477200709
C   C13       1.0  0.44090  0.20250  0.28550  1.0000 -0.1721033323
C   C14       1.0  0.55910  0.70250  0.21450  1.0000 -0.1721033323
C   C15       1.0  0.55910  0.79750  0.71450  1.0000 -0.1721033323
C   C16       1.0  0.44090  0.29750  0.78550  1.0000 -0.1721033323
C   C17       1.0  0.48040  0.13750  0.23700  1.0000 0.102697229
C   C18       1.0  0.51960  0.63750  0.26300  1.0000 0.102697229
C   C19       1.0  0.51960  0.86250  0.76300  1.0000 0.102697229
C   C20       1.0  0.48040  0.36250  0.73700  1.0000 0.102697229
C   C21       1.0  0.38530  0.37056  0.30520  1.0000 0.555860756
C   C22       1.0  0.61470  0.87056  0.19480  1.0000 0.555860756
C   C23       1.0  0.61470  0.62944  0.69480  1.0000 0.555860756
C   C24       1.0  0.38530  0.12944  0.80520  1.0000 0.555860756
C   C25       1.0  0.00280  0.33630  0.29540  1.0000 0.0734147262
C   C26       1.0  0.99720  0.83630  0.20460  1.0000 0.0734147262
C   C27       1.0  0.99720  0.66370  0.70460  1.0000 0.0734147262
C   C28       1.0  0.00280  0.16370  0.79540  1.0000 0.0734147262
C   C29       1.0  0.90440  0.27340  0.24310  1.0000 -0.156358121
C   C30       1.0  0.09560  0.77340  0.25690  1.0000 -0.156358121
C   C31       1.0  0.09560  0.72660  0.75690  1.0000 -0.156358121
C   C32       1.0  0.90440  0.22660  0.74310  1.0000 -0.156358121
C   C33       1.0  0.93050  0.17920  0.24230  1.0000 0.0269379946
C   C34       1.0  0.06950  0.67920  0.25770  1.0000 0.0269379946
C   C35       1.0  0.06950  0.82080  0.75770  1.0000 0.0269379946
C   C36       1.0  0.93050  0.32080  0.74230  1.0000 0.0269379946
C   C37       1.0  0.05570  0.15240  0.29380  1.0000 -0.156358121
C   C38       1.0  0.94430  0.65240  0.20620  1.0000 -0.156358121
C   C39       1.0  0.94430  0.84760  0.70620  1.0000 -0.156358121
C   C40       1.0  0.05570  0.34760  0.79380  1.0000 -0.156358121
C   C41       1.0  0.14680  0.22020  0.34260  1.0000 0.0625300762
C   C42       1.0  0.85320  0.72020  0.15740  1.0000 0.0625300762
C   C43       1.0  0.85320  0.77980  0.65740  1.0000 0.0625300762
C   C44       1.0  0.14680  0.27980  0.84260  1.0000 0.0625300762
C   C45       1.0  0.82800  0.10610  0.18970  1.0000 0.5702413749
C   C46       1.0  0.17200  0.60610  0.31030  1.0000 0.5702413749
C   C47       1.0  0.17200  0.89390  0.81030  1.0000 0.5702413749
C   C48       1.0  0.82800  0.39390  0.68970  1.0000 0.5702413749
N   N1        1.0  0.50606  0.16046  0.16136  1.0000 -0.2208541129
N   N2        1.0  0.49394  0.66046  0.33864  1.0000 -0.2208541129
N   N3        1.0  0.49394  0.83954  0.83864  1.0000 -0.2208541129
N   N4        1.0  0.50606  0.33954  0.66136  1.0000 -0.2208541129
N   N5        1.0  0.12230  0.31184  0.34330  1.0000 -0.2316061128
N   N6        1.0  0.87770  0.81184  0.15670  1.0000 -0.2316061128
N   N7        1.0  0.87770  0.68816  0.65670  1.0000 -0.2316061128
N   N8        1.0  0.12230  0.18816  0.84330  1.0000 -0.2316061128
O   O1        1.0  0.36020  0.33841  0.37684  1.0000 -0.5698052365
O   O2        1.0  0.63980  0.83841  0.12316  1.0000 -0.5698052365
O   O3        1.0  0.63980  0.66159  0.62316  1.0000 -0.5698052365
O   O4        1.0  0.36020  0.16159  0.87684  1.0000 -0.5698052365
O   O5        1.0  0.38220  0.45367  0.28079  1.0000 -0.5214745421
O   O6        1.0  0.61780  0.95367  0.21921  1.0000 -0.5214745421
O   O7        1.0  0.61780  0.54633  0.71921  1.0000 -0.5214745421
O   O8        1.0  0.38220  0.04633  0.78079  1.0000 -0.5214745421
O   O9        1.0  0.85605  0.02242  0.19025  1.0000 -0.5619913209
O   O10       1.0  0.14395  0.52242  0.30975  1.0000 -0.5619913209
O   O11       1.0  0.14395  0.97758  0.80975  1.0000 -0.5619913209
O   O12       1.0  0.85605  0.47758  0.69025  1.0000 -0.5619913209
O   O13       1.0  0.71749  0.14028  0.14826  1.0000 -0.5394794363
O   O14       1.0  0.28251  0.64028  0.35174  1.0000 -0.5394794363
O   O15       1.0  0.28251  0.85972  0.85174  1.0000 -0.5394794363
O   O16       1.0  0.71749  0.35972  0.64826  1.0000 -0.5394794363
O   O17       1.0  0.39839  0.49347  0.50698  1.0000 -0.8700715471
O   O18       1.0  0.60161  0.99347  0.99302  1.0000 -0.8700715471
O   O19       1.0  0.60161  0.50653  0.49302  1.0000 -0.8700715471
O   O20       1.0  0.39839  0.00653  0.00698  1.0000 -0.8700715471
