# DDEC6 charges by PACMAN v1.1 (https://github.com/mtap-research/PACMAN-charge/)
data_2006[V][bpq]3[ASR]2
_chemical_formula_sum              "V4 H16 C32 O20"
_cell_length_a       6.8094
_cell_length_b       12.422
_cell_length_c       17.1733
_cell_angle_alpha    90
_cell_angle_beta     90
_cell_angle_gamma    90

_symmetry_space_group_name_H-M    "P 1"
_symmetry_Int_Tables_number       1

loop_
  _symmetry_equiv_pos_as_xyz
  'x, y, z'

loop_
  _atom_site_type_symbol
  _atom_site_label
  _atom_site_symmetry_multiplicity
  _atom_site_fract_x
  _atom_site_fract_y
  _atom_site_fract_z
  _atom_site_occupancy
  _atom_site_charge
V   V1        1.0  0.06055  0.26567  0.00084  1.0000 1.8044336105
V   V2        1.0  0.43945  0.73433  0.50084  1.0000 1.8053469921
V   V3        1.0  0.93945  0.76567  0.49916  1.0000 1.8044336105
V   V4        1.0  0.56055  0.23433  0.99916  1.0000 1.8044336105
H   H1        1.0  0.96540  0.07580  0.80000  1.0000 0.1305742853
H   H2        1.0  0.53460  0.92420  0.30000  1.0000 0.1305742853
H   H3        1.0  0.03460  0.57580  0.70000  1.0000 0.1305742853
H   H4        1.0  0.46540  0.42420  0.20000  1.0000 0.1305742853
H   H5        1.0  0.94940  0.97640  0.68620  1.0000 0.1305742853
H   H6        1.0  0.55060  0.02360  0.18620  1.0000 0.1305742853
H   H7        1.0  0.05060  0.47640  0.81380  1.0000 0.1305742853
H   H8        1.0  0.44940  0.52360  0.31380  1.0000 0.1305742853
H   H9        1.0  0.55460  0.05570  0.79420  1.0000 0.1305742853
H   H10       1.0  0.94540  0.94430  0.29420  1.0000 0.1305742853
H   H11       1.0  0.44540  0.55570  0.70580  1.0000 0.1305742853
H   H12       1.0  0.05460  0.44430  0.20580  1.0000 0.1305742853
H   H13       1.0  0.53440  0.95790  0.68010  1.0000 0.1305742853
H   H14       1.0  0.96560  0.04210  0.18010  1.0000 0.1305742853
H   H15       1.0  0.46560  0.45790  0.81990  1.0000 0.1305742853
H   H16       1.0  0.03440  0.54210  0.31990  1.0000 0.1305742853
C   C1        1.0  0.27350  0.13860  0.88222  1.0000 0.6202320422
C   C2        1.0  0.22650  0.86140  0.38222  1.0000 0.6202320422
C   C3        1.0  0.72650  0.63860  0.61778  1.0000 0.6202320422
C   C4        1.0  0.77350  0.36140  0.11778  1.0000 0.6202320422
C   C5        1.0  0.26170  0.07640  0.80846  1.0000 -0.0261452811
C   C6        1.0  0.23830  0.92360  0.30846  1.0000 -0.0261452811
C   C7        1.0  0.73830  0.57640  0.69154  1.0000 -0.0261452811
C   C8        1.0  0.76170  0.42360  0.19154  1.0000 -0.0261452811
C   C9        1.0  0.08010  0.05220  0.77610  1.0000 -0.1005031986
C   C10       1.0  0.41990  0.94780  0.27610  1.0000 -0.1005031986
C   C11       1.0  0.91990  0.55220  0.72390  1.0000 -0.1005031986
C   C12       1.0  0.58010  0.44780  0.22390  1.0000 -0.1005031986
C   C13       1.0  0.07090  0.99260  0.70790  1.0000 -0.1005031986
C   C14       1.0  0.42910  0.00740  0.20790  1.0000 -0.1005031986
C   C15       1.0  0.92910  0.49260  0.79210  1.0000 -0.1005031986
C   C16       1.0  0.57090  0.50740  0.29210  1.0000 -0.1005031986
C   C17       1.0  0.43270  0.04030  0.77250  1.0000 -0.1054500079
C   C18       1.0  0.06730  0.95970  0.27250  1.0000 -0.1054500079
C   C19       1.0  0.56730  0.54030  0.72750  1.0000 -0.1054500079
C   C20       1.0  0.93270  0.45970  0.22750  1.0000 -0.1054500079
C   C21       1.0  0.42030  0.98150  0.70450  1.0000 -0.1005031986
C   C22       1.0  0.07970  0.01850  0.20450  1.0000 -0.1005031986
C   C23       1.0  0.57970  0.48150  0.79550  1.0000 -0.1005031986
C   C24       1.0  0.92030  0.51850  0.29550  1.0000 -0.1005031986
C   C25       1.0  0.27070  0.11300  0.10193  1.0000 0.6202320422
C   C26       1.0  0.22930  0.88700  0.60193  1.0000 0.6202320422
C   C27       1.0  0.72930  0.61300  0.39807  1.0000 0.6202320422
C   C28       1.0  0.77070  0.38700  0.89807  1.0000 0.6202320422
C   C29       1.0  0.23880  0.95740  0.67237  1.0000 -0.0223550962
C   C30       1.0  0.26120  0.04260  0.17237  1.0000 -0.0223550962
C   C31       1.0  0.76120  0.45740  0.82763  1.0000 -0.0223550962
C   C32       1.0  0.73880  0.54260  0.32763  1.0000 -0.0223550962
O   O1        1.0  0.27830  0.31685  0.00492  1.0000 -0.753794465
O   O2        1.0  0.22170  0.68315  0.50492  1.0000 -0.753794465
O   O3        1.0  0.72170  0.81685  0.49508  1.0000 -0.753794465
O   O4        1.0  0.77830  0.18315  0.99508  1.0000 -0.753794465
O   O5        1.0  0.11220  0.17110  0.91063  1.0000 -0.5903869008
O   O6        1.0  0.38780  0.82890  0.41063  1.0000 -0.5903869008
O   O7        1.0  0.88780  0.67110  0.58937  1.0000 -0.5903869008
O   O8        1.0  0.61220  0.32890  0.08937  1.0000 -0.5903869008
O   O9        1.0  0.11190  0.14830  0.07571  1.0000 -0.574181292
O   O10       1.0  0.38810  0.85170  0.57571  1.0000 -0.574181292
O   O11       1.0  0.88810  0.64830  0.42429  1.0000 -0.574181292
O   O12       1.0  0.61190  0.35170  0.92429  1.0000 -0.574181292
O   O13       1.0  0.93940  0.34460  0.08929  1.0000 -0.5903869008
O   O14       1.0  0.56060  0.65540  0.58929  1.0000 -0.5903869008
O   O15       1.0  0.06060  0.84460  0.41071  1.0000 -0.5903869008
O   O16       1.0  0.43940  0.15540  0.91071  1.0000 -0.5903869008
O   O17       1.0  0.93940  0.36720  0.92476  1.0000 -0.6032136416
O   O18       1.0  0.56060  0.63280  0.42476  1.0000 -0.6032136416
O   O19       1.0  0.06060  0.86720  0.57524  1.0000 -0.6032136416
O   O20       1.0  0.43940  0.13280  0.07524  1.0000 -0.6032136416
