# DDEC6 charges by PACMAN v1.1 (https://github.com/mtap-research/PACMAN-charge/)
data_2006[Er][tfz]3[ASR]1
_chemical_formula_sum              "Er4 C48 O24 F24"
_cell_length_a       11.671
_cell_length_b       11.8916
_cell_length_c       14.305
_cell_angle_alpha    110.633
_cell_angle_beta     99.92
_cell_angle_gamma    101.351

_symmetry_space_group_name_H-M    "P 1"
_symmetry_Int_Tables_number       1

loop_
  _symmetry_equiv_pos_as_xyz
  'x, y, z'

loop_
  _atom_site_type_symbol
  _atom_site_label
  _atom_site_symmetry_multiplicity
  _atom_site_fract_x
  _atom_site_fract_y
  _atom_site_fract_z
  _atom_site_occupancy
  _atom_site_charge
Er  Er1       1.0  0.09848  0.97220  0.10469  1.0000 2.0739467912
Er  Er2       1.0  0.90152  0.02780  0.89531  1.0000 2.0739467912
Er  Er3       1.0  0.41570  0.08160  0.43075  1.0000 2.0959966951
Er  Er4       1.0  0.58430  0.91840  0.56925  1.0000 2.0959966951
C   C1        1.0  0.10510  0.24980  0.09850  1.0000 0.6929095559
C   C2        1.0  0.89490  0.75020  0.90150  1.0000 0.6929095559
C   C3        1.0  0.17020  0.38790  0.15470  1.0000 -0.1935525811
C   C4        1.0  0.82980  0.61210  0.84530  1.0000 -0.1935525811
C   C5        1.0  0.28930  0.43330  0.15710  1.0000 0.1611371212
C   C6        1.0  0.71070  0.56670  0.84290  1.0000 0.1611371212
C   C7        1.0  0.35320  0.55700  0.21350  1.0000 0.1518125681
C   C8        1.0  0.64680  0.44300  0.78650  1.0000 0.1518125681
C   C9        1.0  0.29820  0.64150  0.27020  1.0000 -0.203251963
C   C10       1.0  0.70180  0.35850  0.72980  1.0000 -0.203251963
C   C11       1.0  0.17820  0.59640  0.26620  1.0000 0.1611371212
C   C12       1.0  0.82180  0.40360  0.73380  1.0000 0.1611371212
C   C13       1.0  0.11520  0.47150  0.20990  1.0000 0.1518125681
C   C14       1.0  0.88480  0.52850  0.79010  1.0000 0.1518125681
C   C15       1.0  0.37190  0.77180  0.34310  1.0000 0.6929095559
C   C16       1.0  0.62810  0.22820  0.65690  1.0000 0.6929095559
C   C17       1.0  0.85620  0.96730  0.10890  1.0000 0.6593938642
C   C18       1.0  0.14380  0.03270  0.89110  1.0000 0.6593938642
C   C19       1.0  0.73390  0.97990  0.12030  1.0000 -0.2106767249
C   C20       1.0  0.26610  0.02010  0.87970  1.0000 -0.2106767249
C   C21       1.0  0.70100  0.08830  0.13050  1.0000 0.181631021
C   C22       1.0  0.29900  0.91170  0.86950  1.0000 0.181631021
C   C23       1.0  0.58850  0.09980  0.14450  1.0000 0.1518125681
C   C24       1.0  0.41150  0.90020  0.85550  1.0000 0.1518125681
C   C25       1.0  0.50560  0.00420  0.14990  1.0000 -0.2106767249
C   C26       1.0  0.49440  0.99580  0.85010  1.0000 -0.2106767249
C   C27       1.0  0.53780  0.89610  0.13990  1.0000 0.1424712152
C   C28       1.0  0.46220  0.10390  0.86010  1.0000 0.1424712152
C   C29       1.0  0.64910  0.88390  0.12540  1.0000 0.1679791086
C   C30       1.0  0.35090  0.11610  0.87460  1.0000 0.1679791086
C   C31       1.0  0.38560  0.01680  0.17210  1.0000 0.7052062922
C   C32       1.0  0.61440  0.98320  0.82790  1.0000 0.7052062922
C   C33       1.0  0.13120  0.06580  0.35900  1.0000 0.6929095559
C   C34       1.0  0.86880  0.93420  0.64100  1.0000 0.6929095559
C   C35       1.0  0.01410  0.07310  0.38750  1.0000 -0.2106767249
C   C36       1.0  0.98590  0.92690  0.61250  1.0000 -0.2106767249
C   C37       1.0  0.98300  0.18360  0.41720  1.0000 0.1424712152
C   C38       1.0  0.01700  0.81640  0.58280  1.0000 0.1424712152
C   C39       1.0  0.86950  0.18930  0.42950  1.0000 0.181631021
C   C40       1.0  0.13050  0.81070  0.57050  1.0000 0.181631021
C   C41       1.0  0.77970  0.08180  0.41280  1.0000 -0.224516464
C   C42       1.0  0.22030  0.91820  0.58720  1.0000 -0.224516464
C   C43       1.0  0.81230  0.97040  0.38400  1.0000 0.181631021
C   C44       1.0  0.18770  0.02960  0.61600  1.0000 0.181631021
C   C45       1.0  0.92650  0.96680  0.37380  1.0000 0.1611371212
C   C46       1.0  0.07350  0.03320  0.62620  1.0000 0.1611371212
C   C47       1.0  0.65670  0.08750  0.42300  1.0000 0.6593938642
C   C48       1.0  0.34330  0.91250  0.57700  1.0000 0.6593938642
O   O1        1.0  0.15090  0.18130  0.13350  1.0000 -0.6325079925
O   O2        1.0  0.84910  0.81870  0.86650  1.0000 -0.6325079925
O   O3        1.0  0.01590  0.21770  0.02290  1.0000 -0.648764146
O   O4        1.0  0.98410  0.78230  0.97710  1.0000 -0.648764146
O   O5        1.0  0.33460  0.86140  0.33300  1.0000 -0.6325079925
O   O6        1.0  0.66540  0.13860  0.66700  1.0000 -0.6325079925
O   O7        1.0  0.46120  0.77780  0.40910  1.0000 -0.6582214064
O   O8        1.0  0.53880  0.22220  0.59090  1.0000 -0.6582214064
O   O9        1.0  0.90820  0.91130  0.15320  1.0000 -0.5615195758
O   O10       1.0  0.09180  0.08870  0.84680  1.0000 -0.5615195758
O   O11       1.0  0.90830  0.01850  0.05680  1.0000 -0.7493232316
O   O12       1.0  0.09170  0.98150  0.94320  1.0000 -0.7493232316
O   O13       1.0  0.29800  0.99350  0.09710  1.0000 -0.6325079925
O   O14       1.0  0.70200  0.00650  0.90290  1.0000 -0.6325079925
O   O15       1.0  0.38180  0.04640  0.26310  1.0000 -0.6684626765
O   O16       1.0  0.61820  0.95360  0.73690  1.0000 -0.6684626765
O   O17       1.0  0.13770  0.08030  0.27820  1.0000 -0.648764146
O   O18       1.0  0.86230  0.91970  0.72180  1.0000 -0.648764146
O   O19       1.0  0.21170  0.04910  0.41900  1.0000 -0.648764146
O   O20       1.0  0.78830  0.95090  0.58100  1.0000 -0.648764146
O   O21       1.0  0.59380  0.00730  0.44860  1.0000 -0.7679307885
O   O22       1.0  0.40620  0.99270  0.55140  1.0000 -0.7679307885
O   O23       1.0  0.61250  0.16650  0.40420  1.0000 -0.5480890698
O   O24       1.0  0.38750  0.83350  0.59580  1.0000 -0.5480890698
F   F1        1.0  0.34700  0.35620  0.10460  1.0000 -0.0988270213
F   F2        1.0  0.65300  0.64380  0.89540  1.0000 -0.0988270213
F   F3        1.0  0.46960  0.59520  0.21480  1.0000 -0.0988270213
F   F4        1.0  0.53040  0.40480  0.78520  1.0000 -0.0988270213
F   F5        1.0  0.12310  0.67240  0.32250  1.0000 -0.0988270213
F   F6        1.0  0.87690  0.32760  0.67750  1.0000 -0.0988270213
F   F7        1.0  0.00150  0.43150  0.21400  1.0000 -0.0988270213
F   F8        1.0  0.99850  0.56850  0.78600  1.0000 -0.0988270213
F   F9        1.0  0.77890  0.18690  0.13090  1.0000 -0.0933652698
F   F10       1.0  0.22110  0.81310  0.86910  1.0000 -0.0933652698
F   F11       1.0  0.56160  0.20700  0.15500  1.0000 -0.0933652698
F   F12       1.0  0.43840  0.79300  0.84500  1.0000 -0.0933652698
F   F13       1.0  0.45980  0.80070  0.14530  1.0000 -0.0933652698
F   F14       1.0  0.54020  0.19930  0.85470  1.0000 -0.0933652698
F   F15       1.0  0.67310  0.77600  0.11520  1.0000 -0.0988270213
F   F16       1.0  0.32690  0.22400  0.88480  1.0000 -0.0988270213
F   F17       1.0  0.06480  0.28960  0.43340  1.0000 -0.0933652698
F   F18       1.0  0.93520  0.71040  0.56660  1.0000 -0.0933652698
F   F19       1.0  0.84730  0.30040  0.45950  1.0000 -0.0988270213
F   F20       1.0  0.15270  0.69960  0.54050  1.0000 -0.0988270213
F   F21       1.0  0.72990  0.86220  0.36030  1.0000 -0.0988270213
F   F22       1.0  0.27010  0.13780  0.63970  1.0000 -0.0988270213
F   F23       1.0  0.95220  0.85690  0.34490  1.0000 -0.0933652698
F   F24       1.0  0.04780  0.14310  0.65510  1.0000 -0.0933652698
