# DDEC6 charges by PACMAN v1.1 (https://github.com/mtap-research/PACMAN-charge/)
data_2006[Ni][nan]3[ASR]1
_chemical_formula_sum              "Ni3 H20 C16 O10"
_cell_length_a       11.2234
_cell_length_b       11.2234
_cell_length_c       6.3722
_cell_angle_alpha    83.6591
_cell_angle_beta     96.3409
_cell_angle_gamma    127.094

_symmetry_space_group_name_H-M    "P 1"
_symmetry_Int_Tables_number       1

loop_
  _symmetry_equiv_pos_as_xyz
  'x, y, z'

loop_
  _atom_site_type_symbol
  _atom_site_label
  _atom_site_symmetry_multiplicity
  _atom_site_fract_x
  _atom_site_fract_y
  _atom_site_fract_z
  _atom_site_occupancy
  _atom_site_charge
Ni  Ni1       1.0  0.15118  0.15118  0.50000  1.0000 1.0778888067
Ni  Ni2       1.0  0.84882  0.84882  0.50000  1.0000 1.0778888067
Ni  Ni3       1.0  0.00000  0.00000  0.00000  1.0000 1.1528731188
H   H1        1.0  0.13830  0.47970  0.07660  1.0000 0.1004213815
H   H2        1.0  0.47970  0.13830  0.92340  1.0000 0.1004213815
H   H3        1.0  0.86170  0.52030  0.92340  1.0000 0.1004213815
H   H4        1.0  0.52030  0.86170  0.07660  1.0000 0.1004213815
H   H5        1.0  0.10150  0.44350  0.78780  1.0000 0.1185453684
H   H6        1.0  0.44350  0.10150  0.21220  1.0000 0.1185453684
H   H7        1.0  0.89850  0.55650  0.21220  1.0000 0.1185453684
H   H8        1.0  0.55650  0.89850  0.78780  1.0000 0.1185453684
H   H9        1.0  0.92820  0.32960  0.79670  1.0000 0.1185453684
H   H10       1.0  0.32960  0.92820  0.20330  1.0000 0.1185453684
H   H11       1.0  0.07180  0.67040  0.20330  1.0000 0.1185453684
H   H12       1.0  0.67040  0.07180  0.79670  1.0000 0.1185453684
H   H13       1.0  0.90670  0.37430  0.28640  1.0000 0.1185453684
H   H14       1.0  0.37430  0.90670  0.71360  1.0000 0.1185453684
H   H15       1.0  0.09330  0.62570  0.71360  1.0000 0.1185453684
H   H16       1.0  0.62570  0.09330  0.28640  1.0000 0.1185453684
H   H17       1.0  0.07780  0.49400  0.33540  1.0000 0.1092843259
H   H18       1.0  0.49400  0.07780  0.66460  1.0000 0.1092843259
H   H19       1.0  0.92220  0.50600  0.66460  1.0000 0.1092843259
H   H20       1.0  0.50600  0.92220  0.33540  1.0000 0.1092843259
C   C1        1.0  0.03157  0.39583  0.07030  1.0000 -0.1152800569
C   C2        1.0  0.39583  0.03157  0.92970  1.0000 -0.1140353133
C   C3        1.0  0.96843  0.60417  0.92970  1.0000 -0.1140353133
C   C4        1.0  0.60417  0.96843  0.07030  1.0000 -0.1140353133
C   C5        1.0  0.01564  0.42216  0.85190  1.0000 -0.1602862725
C   C6        1.0  0.42216  0.01564  0.14810  1.0000 -0.1602862725
C   C7        1.0  0.98436  0.57784  0.14810  1.0000 -0.1602862725
C   C8        1.0  0.57784  0.98436  0.85190  1.0000 -0.1602862725
C   C9        1.0  0.99921  0.45599  0.22380  1.0000 -0.1716679955
C   C10       1.0  0.45599  0.99921  0.77620  1.0000 -0.1716679955
C   C11       1.0  0.00079  0.54401  0.77620  1.0000 -0.1716679955
C   C12       1.0  0.54401  0.00079  0.22380  1.0000 -0.1716679955
C   C13       1.0  0.06102  0.28378  0.14970  1.0000 0.5823589762
C   C14       1.0  0.28378  0.06102  0.85030  1.0000 0.5823589762
C   C15       1.0  0.93898  0.71622  0.85030  1.0000 0.5823589762
C   C16       1.0  0.71622  0.93898  0.14970  1.0000 0.5823589762
O   O1        1.0  0.07019  0.26041  0.34510  1.0000 -0.5577545265
O   O2        1.0  0.26041  0.07019  0.65490  1.0000 -0.5577545265
O   O3        1.0  0.92981  0.73959  0.65490  1.0000 -0.5577545265
O   O4        1.0  0.73959  0.92981  0.34510  1.0000 -0.5577545265
O   O5        1.0  0.07506  0.22014  0.01120  1.0000 -0.5577545265
O   O6        1.0  0.22014  0.07506  0.98880  1.0000 -0.5577545265
O   O7        1.0  0.92494  0.77986  0.98880  1.0000 -0.5577545265
O   O8        1.0  0.77986  0.92494  0.01120  1.0000 -0.5577545265
O   O9        1.0  0.97101  0.02899  0.68300  1.0000 -0.8261073033
O   O10       1.0  0.02899  0.97101  0.31700  1.0000 -0.8261073033
