# DDEC6 charges by PACMAN v1.1 (https://github.com/mtap-research/PACMAN-charge/)
data_2006[NiMo][nan]3[ASR]1
_chemical_formula_sum              "Ni12 Mo48 P32 H64 C80 N16 O200"
_cell_length_a       16.1583
_cell_length_b       22.8192
_cell_length_c       27.745
_cell_angle_alpha    90
_cell_angle_beta     90
_cell_angle_gamma    90

_symmetry_space_group_name_H-M    "P 1"
_symmetry_Int_Tables_number       1

loop_
  _symmetry_equiv_pos_as_xyz
  'x, y, z'

loop_
  _atom_site_type_symbol
  _atom_site_label
  _atom_site_symmetry_multiplicity
  _atom_site_fract_x
  _atom_site_fract_y
  _atom_site_fract_z
  _atom_site_occupancy
  _atom_site_charge
Ni  Ni1       1.0  0.00000  0.50000  0.00000  1.0000 1.3196652731
Ni  Ni2       1.0  0.50000  0.50000  0.50000  1.0000 1.3196652731
Ni  Ni3       1.0  0.50000  0.00000  0.00000  1.0000 1.3196652731
Ni  Ni4       1.0  0.00000  0.00000  0.50000  1.0000 1.3196652731
Ni  Ni5       1.0  0.75000  0.65798  0.75000  1.0000 0.7643052141
Ni  Ni6       1.0  0.25000  0.84202  0.25000  1.0000 0.7659356793
Ni  Ni7       1.0  0.25000  0.34202  0.25000  1.0000 0.7643052141
Ni  Ni8       1.0  0.75000  0.15798  0.75000  1.0000 0.7643052141
Ni  Ni9       1.0  0.75000  0.66616  0.25000  1.0000 0.8099042823
Ni  Ni10      1.0  0.25000  0.83384  0.75000  1.0000 0.8099042823
Ni  Ni11      1.0  0.25000  0.33384  0.75000  1.0000 0.8099042823
Ni  Ni12      1.0  0.75000  0.16616  0.25000  1.0000 0.8099042823
Mo  Mo1       1.0  0.79899  0.56080  0.04952  1.0000 1.95132566
Mo  Mo2       1.0  0.70101  0.56080  0.45048  1.0000 1.95132566
Mo  Mo3       1.0  0.29899  0.93920  0.95048  1.0000 1.95132566
Mo  Mo4       1.0  0.20101  0.93920  0.54952  1.0000 1.95132566
Mo  Mo5       1.0  0.20101  0.43920  0.95048  1.0000 1.95132566
Mo  Mo6       1.0  0.29899  0.43920  0.54952  1.0000 1.95132566
Mo  Mo7       1.0  0.70101  0.06080  0.04952  1.0000 1.95132566
Mo  Mo8       1.0  0.79899  0.06080  0.45048  1.0000 1.95132566
Mo  Mo9       1.0  0.10353  0.62625  0.93319  1.0000 1.8937156877
Mo  Mo10      1.0  0.39647  0.62625  0.56681  1.0000 1.8963846492
Mo  Mo11      1.0  0.60353  0.87375  0.06681  1.0000 1.8963846492
Mo  Mo12      1.0  0.89647  0.87375  0.43319  1.0000 1.8963846492
Mo  Mo13      1.0  0.89647  0.37375  0.06681  1.0000 1.8963846492
Mo  Mo14      1.0  0.60353  0.37375  0.43319  1.0000 1.8963846492
Mo  Mo15      1.0  0.39647  0.12625  0.93319  1.0000 1.8963846492
Mo  Mo16      1.0  0.10353  0.12625  0.56681  1.0000 1.8963846492
Mo  Mo17      1.0  0.11225  0.63049  0.06018  1.0000 1.8937156877
Mo  Mo18      1.0  0.38775  0.63049  0.43982  1.0000 1.8937156877
Mo  Mo19      1.0  0.61225  0.86951  0.93982  1.0000 1.8937156877
Mo  Mo20      1.0  0.88775  0.86951  0.56018  1.0000 1.8963846492
Mo  Mo21      1.0  0.88775  0.36951  0.93982  1.0000 1.8963846492
Mo  Mo22      1.0  0.61225  0.36951  0.56018  1.0000 1.8963846492
Mo  Mo23      1.0  0.38775  0.13049  0.06018  1.0000 1.8963846492
Mo  Mo24      1.0  0.11225  0.13049  0.43982  1.0000 1.8937156877
Mo  Mo25      1.0  0.96777  0.59635  0.88931  1.0000 1.8579826214
Mo  Mo26      1.0  0.53223  0.59635  0.61069  1.0000 1.8579826214
Mo  Mo27      1.0  0.46777  0.90365  0.11069  1.0000 1.8579826214
Mo  Mo28      1.0  0.03223  0.90365  0.38931  1.0000 1.8548623523
Mo  Mo29      1.0  0.03223  0.40365  0.11069  1.0000 1.8579826214
Mo  Mo30      1.0  0.46777  0.40365  0.38931  1.0000 1.8579826214
Mo  Mo31      1.0  0.53223  0.09635  0.88931  1.0000 1.8579826214
Mo  Mo32      1.0  0.96777  0.09635  0.61069  1.0000 1.8579826214
Mo  Mo33      1.0  0.98124  0.60323  0.10993  1.0000 1.8280951699
Mo  Mo34      1.0  0.51876  0.60323  0.39007  1.0000 1.8280951699
Mo  Mo35      1.0  0.48124  0.89677  0.89007  1.0000 1.8230952621
Mo  Mo36      1.0  0.01876  0.89677  0.60993  1.0000 1.8230952621
Mo  Mo37      1.0  0.01876  0.39677  0.89007  1.0000 1.8230952621
Mo  Mo38      1.0  0.48124  0.39677  0.60993  1.0000 1.8280951699
Mo  Mo39      1.0  0.51876  0.10323  0.10993  1.0000 1.8280951699
Mo  Mo40      1.0  0.98124  0.10323  0.39007  1.0000 1.8280951699
Mo  Mo41      1.0  0.79250  0.55656  0.95576  1.0000 1.9667505464
Mo  Mo42      1.0  0.70750  0.55656  0.54424  1.0000 1.9667505464
Mo  Mo43      1.0  0.29250  0.94344  0.04424  1.0000 1.964188993
Mo  Mo44      1.0  0.20750  0.94344  0.45576  1.0000 1.964188993
Mo  Mo45      1.0  0.20750  0.44344  0.04424  1.0000 1.964188993
Mo  Mo46      1.0  0.29250  0.44344  0.45576  1.0000 1.9667505464
Mo  Mo47      1.0  0.70750  0.05656  0.95576  1.0000 1.9667505464
Mo  Mo48      1.0  0.79250  0.05656  0.54424  1.0000 1.9667505464
P   P1        1.0  0.78076  0.65679  0.86866  1.0000 1.4995105913
P   P2        1.0  0.71924  0.65679  0.63134  1.0000 1.4995105913
P   P3        1.0  0.28076  0.84321  0.13134  1.0000 1.4995105913
P   P4        1.0  0.21924  0.84321  0.36866  1.0000 1.4995105913
P   P5        1.0  0.21924  0.34321  0.13134  1.0000 1.4995105913
P   P6        1.0  0.28076  0.34321  0.36866  1.0000 1.4995105913
P   P7        1.0  0.71924  0.15679  0.86866  1.0000 1.4995105913
P   P8        1.0  0.78076  0.15679  0.63134  1.0000 1.4995105913
P   P9        1.0  0.79653  0.66486  0.13351  1.0000 1.5123880108
P   P10       1.0  0.70347  0.66486  0.36649  1.0000 1.5123880108
P   P11       1.0  0.29653  0.83514  0.86649  1.0000 1.5123880108
P   P12       1.0  0.20347  0.83514  0.63351  1.0000 1.5123880108
P   P13       1.0  0.20347  0.33514  0.86649  1.0000 1.5123880108
P   P14       1.0  0.29653  0.33514  0.63351  1.0000 1.5123880108
P   P15       1.0  0.70347  0.16486  0.13351  1.0000 1.5123880108
P   P16       1.0  0.79653  0.16486  0.36649  1.0000 1.5123880108
P   P17       1.0  0.18598  0.73897  0.99145  1.0000 1.4613285115
P   P18       1.0  0.31402  0.73897  0.50855  1.0000 1.4613285115
P   P19       1.0  0.68598  0.76103  0.00855  1.0000 1.4613285115
P   P20       1.0  0.81402  0.76103  0.49145  1.0000 1.4613285115
P   P21       1.0  0.81402  0.26103  0.00855  1.0000 1.4613285115
P   P22       1.0  0.68598  0.26103  0.49145  1.0000 1.4613285115
P   P23       1.0  0.31402  0.23897  0.99145  1.0000 1.4613285115
P   P24       1.0  0.18598  0.23897  0.50855  1.0000 1.4613285115
P   P25       1.0  0.93280  0.66044  0.99800  1.0000 1.5496277859
P   P26       1.0  0.56720  0.66044  0.50200  1.0000 1.5496277859
P   P27       1.0  0.43280  0.83956  0.00200  1.0000 1.5496277859
P   P28       1.0  0.06720  0.83956  0.49800  1.0000 1.5496277859
P   P29       1.0  0.06720  0.33956  0.00200  1.0000 1.5496277859
P   P30       1.0  0.43280  0.33956  0.49800  1.0000 1.5496277859
P   P31       1.0  0.56720  0.16044  0.99800  1.0000 1.5496277859
P   P32       1.0  0.93280  0.16044  0.50200  1.0000 1.5496277859
H   H1        1.0  0.66200  0.76120  0.79690  1.0000 0.1585194618
H   H2        1.0  0.83800  0.76120  0.70310  1.0000 0.1585194618
H   H3        1.0  0.16200  0.73880  0.20310  1.0000 0.1585194618
H   H4        1.0  0.33800  0.73880  0.29690  1.0000 0.1585194618
H   H5        1.0  0.33800  0.23880  0.20310  1.0000 0.1585194618
H   H6        1.0  0.16200  0.23880  0.29690  1.0000 0.1585194618
H   H7        1.0  0.83800  0.26120  0.79690  1.0000 0.1585194618
H   H8        1.0  0.66200  0.26120  0.70310  1.0000 0.1585194618
H   H9        1.0  0.65970  0.86130  0.79870  1.0000 0.1415876554
H   H10       1.0  0.84030  0.86130  0.70130  1.0000 0.1415876554
H   H11       1.0  0.15970  0.63870  0.20130  1.0000 0.1415876554
H   H12       1.0  0.34030  0.63870  0.29870  1.0000 0.1415876554
H   H13       1.0  0.34030  0.13870  0.20130  1.0000 0.1415876554
H   H14       1.0  0.15970  0.13870  0.29870  1.0000 0.1415876554
H   H15       1.0  0.84030  0.36130  0.79870  1.0000 0.1415876554
H   H16       1.0  0.65970  0.36130  0.70130  1.0000 0.1415876554
H   H17       1.0  0.68520  0.05320  0.80920  1.0000 0.1415876554
H   H18       1.0  0.81480  0.05320  0.69080  1.0000 0.1415876554
H   H19       1.0  0.18520  0.44680  0.19080  1.0000 0.1415876554
H   H20       1.0  0.31480  0.44680  0.30920  1.0000 0.1415876554
H   H21       1.0  0.31480  0.94680  0.19080  1.0000 0.1415876554
H   H22       1.0  0.18520  0.94680  0.30920  1.0000 0.1415876554
H   H23       1.0  0.81480  0.55320  0.80920  1.0000 0.1415876554
H   H24       1.0  0.68520  0.55320  0.69080  1.0000 0.1415876554
H   H25       1.0  0.68300  0.95260  0.81080  1.0000 0.149216331
H   H26       1.0  0.81700  0.95260  0.68920  1.0000 0.149216331
H   H27       1.0  0.18300  0.54740  0.18920  1.0000 0.149216331
H   H28       1.0  0.31700  0.54740  0.31080  1.0000 0.149216331
H   H29       1.0  0.31700  0.04740  0.18920  1.0000 0.149216331
H   H30       1.0  0.18300  0.04740  0.31080  1.0000 0.149216331
H   H31       1.0  0.81700  0.45260  0.81080  1.0000 0.149216331
H   H32       1.0  0.68300  0.45260  0.68920  1.0000 0.149216331
H   H33       1.0  0.68300  0.76950  0.19230  1.0000 0.1585194618
H   H34       1.0  0.81700  0.76950  0.30770  1.0000 0.1585194618
H   H35       1.0  0.18300  0.73050  0.80770  1.0000 0.1585194618
H   H36       1.0  0.31700  0.73050  0.69230  1.0000 0.1585194618
H   H37       1.0  0.31700  0.23050  0.80770  1.0000 0.1585194618
H   H38       1.0  0.18300  0.23050  0.69230  1.0000 0.1585194618
H   H39       1.0  0.81700  0.26950  0.19230  1.0000 0.1585194618
H   H40       1.0  0.68300  0.26950  0.30770  1.0000 0.1585194618
H   H41       1.0  0.67910  0.86980  0.19140  1.0000 0.149216331
H   H42       1.0  0.82090  0.86980  0.30860  1.0000 0.149216331
H   H43       1.0  0.17910  0.63020  0.80860  1.0000 0.149216331
H   H44       1.0  0.32090  0.63020  0.69140  1.0000 0.149216331
H   H45       1.0  0.32090  0.13020  0.80860  1.0000 0.149216331
H   H46       1.0  0.17910  0.13020  0.69140  1.0000 0.149216331
H   H47       1.0  0.82090  0.36980  0.19140  1.0000 0.149216331
H   H48       1.0  0.67910  0.36980  0.30860  1.0000 0.149216331
H   H49       1.0  0.70000  0.06150  0.18650  1.0000 0.149216331
H   H50       1.0  0.80000  0.06150  0.31350  1.0000 0.149216331
H   H51       1.0  0.20000  0.43850  0.81350  1.0000 0.149216331
H   H52       1.0  0.30000  0.43850  0.68650  1.0000 0.149216331
H   H53       1.0  0.30000  0.93850  0.81350  1.0000 0.149216331
H   H54       1.0  0.20000  0.93850  0.68650  1.0000 0.149216331
H   H55       1.0  0.80000  0.56150  0.18650  1.0000 0.149216331
H   H56       1.0  0.70000  0.56150  0.31350  1.0000 0.149216331
H   H57       1.0  0.69780  0.96070  0.18510  1.0000 0.1585194618
H   H58       1.0  0.80220  0.96070  0.31490  1.0000 0.1585194618
H   H59       1.0  0.19780  0.53930  0.81490  1.0000 0.1585194618
H   H60       1.0  0.30220  0.53930  0.68510  1.0000 0.1585194618
H   H61       1.0  0.30220  0.03930  0.81490  1.0000 0.1585194618
H   H62       1.0  0.19780  0.03930  0.68510  1.0000 0.1585194618
H   H63       1.0  0.80220  0.46070  0.18510  1.0000 0.1585194618
H   H64       1.0  0.69780  0.46070  0.31490  1.0000 0.1585194618
C   C1        1.0  0.69880  0.78150  0.77740  1.0000 0.1273408494
C   C2        1.0  0.80120  0.78150  0.72260  1.0000 0.1273408494
C   C3        1.0  0.19880  0.71850  0.22260  1.0000 0.1273408494
C   C4        1.0  0.30120  0.71850  0.27740  1.0000 0.1273408494
C   C5        1.0  0.30120  0.21850  0.22260  1.0000 0.1273408494
C   C6        1.0  0.19880  0.21850  0.27740  1.0000 0.1273408494
C   C7        1.0  0.80120  0.28150  0.77740  1.0000 0.1273408494
C   C8        1.0  0.69880  0.28150  0.72260  1.0000 0.1273408494
C   C9        1.0  0.69690  0.84210  0.77860  1.0000 -0.169431916
C   C10       1.0  0.80310  0.84210  0.72140  1.0000 -0.169431916
C   C11       1.0  0.19690  0.65790  0.22140  1.0000 -0.169431916
C   C12       1.0  0.30310  0.65790  0.27860  1.0000 -0.169431916
C   C13       1.0  0.30310  0.15790  0.22140  1.0000 -0.169431916
C   C14       1.0  0.19690  0.15790  0.27860  1.0000 -0.169431916
C   C15       1.0  0.80310  0.34210  0.77860  1.0000 -0.169431916
C   C16       1.0  0.69690  0.34210  0.72140  1.0000 -0.169431916
C   C17       1.0  0.75000  0.87440  0.75000  1.0000 0.1168571575
C   C18       1.0  0.25000  0.62560  0.25000  1.0000 0.1168571575
C   C19       1.0  0.25000  0.12560  0.25000  1.0000 0.1168571575
C   C20       1.0  0.75000  0.37440  0.75000  1.0000 0.1168571575
C   C21       1.0  0.71190  0.03280  0.78470  1.0000 0.1273408494
C   C22       1.0  0.78810  0.03280  0.71530  1.0000 0.1273408494
C   C23       1.0  0.21190  0.46720  0.21530  1.0000 0.1273408494
C   C24       1.0  0.28810  0.46720  0.28470  1.0000 0.1273408494
C   C25       1.0  0.28810  0.96720  0.21530  1.0000 0.1273408494
C   C26       1.0  0.21190  0.96720  0.28470  1.0000 0.1273408494
C   C27       1.0  0.78810  0.53280  0.78470  1.0000 0.1273408494
C   C28       1.0  0.71190  0.53280  0.71530  1.0000 0.1273408494
C   C29       1.0  0.71040  0.97200  0.78600  1.0000 -0.169431916
C   C30       1.0  0.78960  0.97200  0.71400  1.0000 -0.169431916
C   C31       1.0  0.21040  0.52800  0.21400  1.0000 -0.1751426557
C   C32       1.0  0.28960  0.52800  0.28600  1.0000 -0.169431916
C   C33       1.0  0.28960  0.02800  0.21400  1.0000 -0.169431916
C   C34       1.0  0.21040  0.02800  0.28600  1.0000 -0.169431916
C   C35       1.0  0.78960  0.47200  0.78600  1.0000 -0.169431916
C   C36       1.0  0.71040  0.47200  0.71400  1.0000 -0.169431916
C   C37       1.0  0.75000  0.94000  0.75000  1.0000 0.1168571575
C   C38       1.0  0.25000  0.56000  0.25000  1.0000 0.1168571575
C   C39       1.0  0.25000  0.06000  0.25000  1.0000 0.1168571575
C   C40       1.0  0.75000  0.44000  0.75000  1.0000 0.1168571575
C   C41       1.0  0.71070  0.78980  0.21640  1.0000 0.1273408494
C   C42       1.0  0.78930  0.78980  0.28360  1.0000 0.1273408494
C   C43       1.0  0.21070  0.71020  0.78360  1.0000 0.1273408494
C   C44       1.0  0.28930  0.71020  0.71640  1.0000 0.1273408494
C   C45       1.0  0.28930  0.21020  0.78360  1.0000 0.1273408494
C   C46       1.0  0.21070  0.21020  0.71640  1.0000 0.1273408494
C   C47       1.0  0.78930  0.28980  0.21640  1.0000 0.1273408494
C   C48       1.0  0.71070  0.28980  0.28360  1.0000 0.1273408494
C   C49       1.0  0.70860  0.85060  0.21550  1.0000 -0.169431916
C   C50       1.0  0.79140  0.85060  0.28450  1.0000 -0.169431916
C   C51       1.0  0.20860  0.64940  0.78450  1.0000 -0.169431916
C   C52       1.0  0.29140  0.64940  0.71550  1.0000 -0.169431916
C   C53       1.0  0.29140  0.14940  0.78450  1.0000 -0.169431916
C   C54       1.0  0.20860  0.14940  0.71550  1.0000 -0.169431916
C   C55       1.0  0.79140  0.35060  0.21550  1.0000 -0.169431916
C   C56       1.0  0.70860  0.35060  0.28450  1.0000 -0.169431916
C   C57       1.0  0.75000  0.88270  0.25000  1.0000 0.1168571575
C   C58       1.0  0.25000  0.61730  0.75000  1.0000 0.1168571575
C   C59       1.0  0.25000  0.11730  0.75000  1.0000 0.1168571575
C   C60       1.0  0.75000  0.38270  0.25000  1.0000 0.1168571575
C   C61       1.0  0.72070  0.04110  0.21290  1.0000 0.1273408494
C   C62       1.0  0.77930  0.04110  0.28710  1.0000 0.1273408494
C   C63       1.0  0.22070  0.45890  0.78710  1.0000 0.1273408494
C   C64       1.0  0.27930  0.45890  0.71290  1.0000 0.1273408494
C   C65       1.0  0.27930  0.95890  0.78710  1.0000 0.1273408494
C   C66       1.0  0.22070  0.95890  0.71290  1.0000 0.1273408494
C   C67       1.0  0.77930  0.54110  0.21290  1.0000 0.1273408494
C   C68       1.0  0.72070  0.54110  0.28710  1.0000 0.1273408494
C   C69       1.0  0.71930  0.98010  0.21170  1.0000 -0.169431916
C   C70       1.0  0.78070  0.98010  0.28830  1.0000 -0.169431916
C   C71       1.0  0.21930  0.51990  0.78830  1.0000 -0.169431916
C   C72       1.0  0.28070  0.51990  0.71170  1.0000 -0.169431916
C   C73       1.0  0.28070  0.01990  0.78830  1.0000 -0.169431916
C   C74       1.0  0.21930  0.01990  0.71170  1.0000 -0.169431916
C   C75       1.0  0.78070  0.48010  0.21170  1.0000 -0.169431916
C   C76       1.0  0.71930  0.48010  0.28830  1.0000 -0.169431916
C   C77       1.0  0.75000  0.94890  0.25000  1.0000 0.1168571575
C   C78       1.0  0.25000  0.55110  0.75000  1.0000 0.1142571991
C   C79       1.0  0.25000  0.05110  0.75000  1.0000 0.1142571991
C   C80       1.0  0.75000  0.44890  0.25000  1.0000 0.1168571575
N   N1        1.0  0.75000  0.75080  0.75000  1.0000 -0.2093688336
N   N2        1.0  0.25000  0.74920  0.25000  1.0000 -0.2093688336
N   N3        1.0  0.25000  0.24920  0.25000  1.0000 -0.2093688336
N   N4        1.0  0.75000  0.25080  0.75000  1.0000 -0.2093688336
N   N5        1.0  0.75000  0.06370  0.75000  1.0000 -0.220008182
N   N6        1.0  0.25000  0.43630  0.25000  1.0000 -0.220008182
N   N7        1.0  0.25000  0.93630  0.25000  1.0000 -0.220008182
N   N8        1.0  0.75000  0.56370  0.75000  1.0000 -0.220008182
N   N9        1.0  0.75000  0.75910  0.25000  1.0000 -0.2093688336
N   N10       1.0  0.25000  0.74090  0.75000  1.0000 -0.2093688336
N   N11       1.0  0.25000  0.24090  0.75000  1.0000 -0.2093688336
N   N12       1.0  0.75000  0.25910  0.25000  1.0000 -0.2093688336
N   N13       1.0  0.75000  0.07160  0.25000  1.0000 -0.2093688336
N   N14       1.0  0.25000  0.42840  0.75000  1.0000 -0.2093688336
N   N15       1.0  0.25000  0.92840  0.75000  1.0000 -0.2093688336
N   N16       1.0  0.75000  0.57160  0.25000  1.0000 -0.2093688336
O   O1        1.0  0.72990  0.65939  0.82337  1.0000 -0.8095556857
O   O2        1.0  0.77010  0.65939  0.67663  1.0000 -0.8095556857
O   O3        1.0  0.22990  0.84061  0.17663  1.0000 -0.8095556857
O   O4        1.0  0.27010  0.84061  0.32337  1.0000 -0.8095556857
O   O5        1.0  0.27010  0.34061  0.17663  1.0000 -0.8095556857
O   O6        1.0  0.22990  0.34061  0.32337  1.0000 -0.8095556857
O   O7        1.0  0.77010  0.15939  0.82337  1.0000 -0.8095556857
O   O8        1.0  0.72990  0.15939  0.67663  1.0000 -0.8095556857
O   O9        1.0  0.74510  0.61223  0.90436  1.0000 -0.7565861294
O   O10       1.0  0.75490  0.61223  0.59564  1.0000 -0.7565861294
O   O11       1.0  0.24510  0.88777  0.09564  1.0000 -0.7565861294
O   O12       1.0  0.25490  0.88777  0.40436  1.0000 -0.7565861294
O   O13       1.0  0.25490  0.38777  0.09564  1.0000 -0.7565861294
O   O14       1.0  0.24510  0.38777  0.40436  1.0000 -0.7565861294
O   O15       1.0  0.75490  0.11223  0.90436  1.0000 -0.7565861294
O   O16       1.0  0.74510  0.11223  0.59564  1.0000 -0.7565861294
O   O17       1.0  0.87280  0.64485  0.85739  1.0000 -0.7900553147
O   O18       1.0  0.62720  0.64485  0.64261  1.0000 -0.7900553147
O   O19       1.0  0.37280  0.85515  0.14261  1.0000 -0.7900553147
O   O20       1.0  0.12720  0.85515  0.35739  1.0000 -0.7900553147
O   O21       1.0  0.12720  0.35515  0.14261  1.0000 -0.7900553147
O   O22       1.0  0.37280  0.35515  0.35739  1.0000 -0.7900553147
O   O23       1.0  0.62720  0.14485  0.85739  1.0000 -0.7900553147
O   O24       1.0  0.87280  0.14485  0.64261  1.0000 -0.7900553147
O   O25       1.0  0.78160  0.71900  0.89435  1.0000 -0.6906596819
O   O26       1.0  0.71840  0.71900  0.60565  1.0000 -0.6906596819
O   O27       1.0  0.28160  0.78100  0.10565  1.0000 -0.6906596819
O   O28       1.0  0.21840  0.78100  0.39435  1.0000 -0.6906596819
O   O29       1.0  0.21840  0.28100  0.10565  1.0000 -0.6906596819
O   O30       1.0  0.28160  0.28100  0.39435  1.0000 -0.6906596819
O   O31       1.0  0.71840  0.21900  0.89435  1.0000 -0.6906596819
O   O32       1.0  0.78160  0.21900  0.60565  1.0000 -0.6906596819
O   O33       1.0  0.74430  0.66797  0.17809  1.0000 -0.8095556857
O   O34       1.0  0.75570  0.66797  0.32191  1.0000 -0.8095556857
O   O35       1.0  0.24430  0.83203  0.82191  1.0000 -0.8095556857
O   O36       1.0  0.25570  0.83203  0.67809  1.0000 -0.8095556857
O   O37       1.0  0.25570  0.33203  0.82191  1.0000 -0.8095556857
O   O38       1.0  0.24430  0.33203  0.67809  1.0000 -0.8095556857
O   O39       1.0  0.75570  0.16797  0.17809  1.0000 -0.8095556857
O   O40       1.0  0.74430  0.16797  0.32191  1.0000 -0.8095556857
O   O41       1.0  0.75810  0.62150  0.09782  1.0000 -0.7492975617
O   O42       1.0  0.74190  0.62150  0.40218  1.0000 -0.7492975617
O   O43       1.0  0.25810  0.87850  0.90218  1.0000 -0.7492975617
O   O44       1.0  0.24190  0.87850  0.59782  1.0000 -0.7492975617
O   O45       1.0  0.24190  0.37850  0.90218  1.0000 -0.7492975617
O   O46       1.0  0.25810  0.37850  0.59782  1.0000 -0.7492975617
O   O47       1.0  0.74190  0.12150  0.09782  1.0000 -0.7492975617
O   O48       1.0  0.75810  0.12150  0.40218  1.0000 -0.7492975617
O   O49       1.0  0.88760  0.64917  0.14546  1.0000 -0.797582964
O   O50       1.0  0.61240  0.64917  0.35454  1.0000 -0.797582964
O   O51       1.0  0.38760  0.85083  0.85454  1.0000 -0.797582964
O   O52       1.0  0.11240  0.85083  0.64546  1.0000 -0.797582964
O   O53       1.0  0.11240  0.35083  0.85454  1.0000 -0.797582964
O   O54       1.0  0.38760  0.35083  0.64546  1.0000 -0.797582964
O   O55       1.0  0.61240  0.14917  0.14546  1.0000 -0.797582964
O   O56       1.0  0.88760  0.14917  0.35454  1.0000 -0.797582964
O   O57       1.0  0.79780  0.72790  0.10968  1.0000 -0.6697275514
O   O58       1.0  0.70220  0.72790  0.39032  1.0000 -0.6697275514
O   O59       1.0  0.29780  0.77210  0.89032  1.0000 -0.6697275514
O   O60       1.0  0.20220  0.77210  0.60968  1.0000 -0.6697275514
O   O61       1.0  0.20220  0.27210  0.89032  1.0000 -0.6697275514
O   O62       1.0  0.29780  0.27210  0.60968  1.0000 -0.6697275514
O   O63       1.0  0.70220  0.22790  0.10968  1.0000 -0.6697275514
O   O64       1.0  0.79780  0.22790  0.39032  1.0000 -0.6697275514
O   O65       1.0  0.27760  0.74500  0.98172  1.0000 -0.613473002
O   O66       1.0  0.22240  0.74500  0.51828  1.0000 -0.613473002
O   O67       1.0  0.77760  0.75500  0.01828  1.0000 -0.613473002
O   O68       1.0  0.72240  0.75500  0.48172  1.0000 -0.613473002
O   O69       1.0  0.72240  0.25500  0.01828  1.0000 -0.613473002
O   O70       1.0  0.77760  0.25500  0.48172  1.0000 -0.6214908975
O   O71       1.0  0.22240  0.24500  0.98172  1.0000 -0.6214908975
O   O72       1.0  0.27760  0.24500  0.51828  1.0000 -0.6214908975
O   O73       1.0  0.16670  0.70969  0.03997  1.0000 -0.7492975617
O   O74       1.0  0.33333  0.70969  0.46003  1.0000 -0.7492975617
O   O75       1.0  0.66667  0.79031  0.96003  1.0000 -0.7492975617
O   O76       1.0  0.83330  0.79031  0.53997  1.0000 -0.7492975617
O   O77       1.0  0.83330  0.29031  0.96003  1.0000 -0.7492975617
O   O78       1.0  0.66667  0.29031  0.53997  1.0000 -0.7492975617
O   O79       1.0  0.33333  0.20969  0.03997  1.0000 -0.7492975617
O   O80       1.0  0.16670  0.20969  0.46003  1.0000 -0.7492975617
O   O81       1.0  0.14710  0.70772  0.94793  1.0000 -0.7380953232
O   O82       1.0  0.35290  0.70772  0.55207  1.0000 -0.7380953232
O   O83       1.0  0.64710  0.79228  0.05207  1.0000 -0.7380953232
O   O84       1.0  0.85290  0.79228  0.44793  1.0000 -0.7380953232
O   O85       1.0  0.85290  0.29228  0.05207  1.0000 -0.7380953232
O   O86       1.0  0.64710  0.29228  0.44793  1.0000 -0.7380953232
O   O87       1.0  0.35290  0.20772  0.94793  1.0000 -0.7380953232
O   O88       1.0  0.14710  0.20772  0.55207  1.0000 -0.7380953232
O   O89       1.0  0.14510  0.80180  0.99319  1.0000 -0.6214908975
O   O90       1.0  0.35490  0.80180  0.50681  1.0000 -0.6214908975
O   O91       1.0  0.64510  0.69820  0.00681  1.0000 -0.6214908975
O   O92       1.0  0.85490  0.69820  0.49319  1.0000 -0.6214908975
O   O93       1.0  0.85490  0.19820  0.00681  1.0000 -0.6214908975
O   O94       1.0  0.64510  0.19820  0.49319  1.0000 -0.6214908975
O   O95       1.0  0.35490  0.30180  0.99319  1.0000 -0.6214908975
O   O96       1.0  0.14510  0.30180  0.50681  1.0000 -0.6214908975
O   O97       1.0  0.02710  0.65413  0.99728  1.0000 -0.8820287709
O   O98       1.0  0.47290  0.65413  0.50272  1.0000 -0.8820287709
O   O99       1.0  0.52710  0.84587  0.00272  1.0000 -0.8820287709
O   O100      1.0  0.97290  0.84587  0.49728  1.0000 -0.8820287709
O   O101      1.0  0.97290  0.34587  0.00272  1.0000 -0.8820287709
O   O102      1.0  0.52710  0.34587  0.49728  1.0000 -0.8820287709
O   O103      1.0  0.47290  0.15413  0.99728  1.0000 -0.8820287709
O   O104      1.0  0.02710  0.15413  0.50272  1.0000 -0.8820287709
O   O105      1.0  0.89810  0.63424  0.04487  1.0000 -0.8337347904
O   O106      1.0  0.60190  0.63424  0.45513  1.0000 -0.8337347904
O   O107      1.0  0.39810  0.86576  0.95513  1.0000 -0.8337347904
O   O108      1.0  0.10190  0.86576  0.54487  1.0000 -0.8337347904
O   O109      1.0  0.10190  0.36576  0.95513  1.0000 -0.8337347904
O   O110      1.0  0.39810  0.36576  0.54487  1.0000 -0.8337347904
O   O111      1.0  0.60190  0.13424  0.04487  1.0000 -0.8337347904
O   O112      1.0  0.89810  0.13424  0.45513  1.0000 -0.8337347904
O   O113      1.0  0.89410  0.62811  0.95455  1.0000 -0.8490350941
O   O114      1.0  0.60590  0.62811  0.54545  1.0000 -0.8490350941
O   O115      1.0  0.39410  0.87189  0.04545  1.0000 -0.8490350941
O   O116      1.0  0.10590  0.87189  0.45455  1.0000 -0.8490350941
O   O117      1.0  0.10590  0.37189  0.04545  1.0000 -0.8490350941
O   O118      1.0  0.39410  0.37189  0.45455  1.0000 -0.8490350941
O   O119      1.0  0.60590  0.12811  0.95455  1.0000 -0.8490350941
O   O120      1.0  0.89410  0.12811  0.54545  1.0000 -0.8490350941
O   O121      1.0  0.91610  0.72712  0.99401  1.0000 -0.5777585158
O   O122      1.0  0.58390  0.72712  0.50599  1.0000 -0.5777585158
O   O123      1.0  0.41610  0.77288  0.00599  1.0000 -0.5777585158
O   O124      1.0  0.08390  0.77288  0.49401  1.0000 -0.5777585158
O   O125      1.0  0.08390  0.27288  0.00599  1.0000 -0.5777585158
O   O126      1.0  0.41610  0.27288  0.49401  1.0000 -0.5777585158
O   O127      1.0  0.58390  0.22712  0.99401  1.0000 -0.5777585158
O   O128      1.0  0.91610  0.22712  0.50599  1.0000 -0.5777585158
O   O129      1.0  0.88780  0.54045  0.10162  1.0000 -0.9360186497
O   O130      1.0  0.61220  0.54045  0.39838  1.0000 -0.9360186497
O   O131      1.0  0.38780  0.95955  0.89838  1.0000 -0.9360186497
O   O132      1.0  0.11220  0.95955  0.60162  1.0000 -0.9360186497
O   O133      1.0  0.11220  0.45955  0.89838  1.0000 -0.9360186497
O   O134      1.0  0.38780  0.45955  0.60162  1.0000 -0.9360186497
O   O135      1.0  0.61220  0.04045  0.10162  1.0000 -0.9360186497
O   O136      1.0  0.88780  0.04045  0.39838  1.0000 -0.9360186497
O   O137      1.0  0.87420  0.52355  0.00175  1.0000 -0.9024785856
O   O138      1.0  0.62580  0.52355  0.49825  1.0000 -0.9024785856
O   O139      1.0  0.37420  0.97645  0.99825  1.0000 -0.9024785856
O   O140      1.0  0.12580  0.97645  0.50175  1.0000 -0.9024785856
O   O141      1.0  0.12580  0.47645  0.99825  1.0000 -0.9024785856
O   O142      1.0  0.37420  0.47645  0.50175  1.0000 -0.9024785856
O   O143      1.0  0.62580  0.02355  0.00175  1.0000 -0.9024785856
O   O144      1.0  0.87420  0.02355  0.49825  1.0000 -0.9024785856
O   O145      1.0  0.73960  0.60799  0.00238  1.0000 -0.7686711251
O   O146      1.0  0.76040  0.60799  0.49762  1.0000 -0.7686711251
O   O147      1.0  0.23960  0.89201  0.99762  1.0000 -0.7686711251
O   O148      1.0  0.26040  0.89201  0.50238  1.0000 -0.7686711251
O   O149      1.0  0.26040  0.39201  0.99762  1.0000 -0.7686711251
O   O150      1.0  0.23960  0.39201  0.50238  1.0000 -0.7686711251
O   O151      1.0  0.76040  0.10799  0.00238  1.0000 -0.7686711251
O   O152      1.0  0.73960  0.10799  0.49762  1.0000 -0.7686711251
O   O153      1.0  0.03110  0.55601  0.94109  1.0000 -0.8820287709
O   O154      1.0  0.46890  0.55601  0.55891  1.0000 -0.8820287709
O   O155      1.0  0.53110  0.94399  0.05891  1.0000 -0.8820287709
O   O156      1.0  0.96890  0.94399  0.44109  1.0000 -0.8820287709
O   O157      1.0  0.96890  0.44399  0.05891  1.0000 -0.8820287709
O   O158      1.0  0.53110  0.44399  0.44109  1.0000 -0.8820287709
O   O159      1.0  0.46890  0.05601  0.94109  1.0000 -0.8820287709
O   O160      1.0  0.03110  0.05601  0.55891  1.0000 -0.8820287709
O   O161      1.0  0.16680  0.59959  0.99584  1.0000 -0.9229871133
O   O162      1.0  0.33320  0.59959  0.50416  1.0000 -0.9229871133
O   O163      1.0  0.66680  0.90041  0.00416  1.0000 -0.9229871133
O   O164      1.0  0.83320  0.90041  0.49584  1.0000 -0.9229871133
O   O165      1.0  0.83320  0.40041  0.00416  1.0000 -0.9229871133
O   O166      1.0  0.66680  0.40041  0.49584  1.0000 -0.9229871133
O   O167      1.0  0.33320  0.09959  0.99584  1.0000 -0.9229871133
O   O168      1.0  0.16680  0.09959  0.50416  1.0000 -0.9229871133
O   O169      1.0  0.02300  0.67138  0.89631  1.0000 -0.7686711251
O   O170      1.0  0.47700  0.67138  0.60369  1.0000 -0.7686711251
O   O171      1.0  0.52300  0.82862  0.10369  1.0000 -0.7686711251
O   O172      1.0  0.97700  0.82862  0.39631  1.0000 -0.7686711251
O   O173      1.0  0.97700  0.32862  0.10369  1.0000 -0.7686711251
O   O174      1.0  0.52300  0.32862  0.39631  1.0000 -0.7686711251
O   O175      1.0  0.47700  0.17138  0.89631  1.0000 -0.7686711251
O   O176      1.0  0.02300  0.17138  0.60369  1.0000 -0.7686711251
O   O177      1.0  0.03880  0.56044  0.05746  1.0000 -0.8820287709
O   O178      1.0  0.46120  0.56044  0.44254  1.0000 -0.8820287709
O   O179      1.0  0.53880  0.93956  0.94254  1.0000 -0.8820287709
O   O180      1.0  0.96120  0.93956  0.55746  1.0000 -0.8820287709
O   O181      1.0  0.96120  0.43956  0.94254  1.0000 -0.8820287709
O   O182      1.0  0.53880  0.43956  0.55746  1.0000 -0.8820287709
O   O183      1.0  0.46120  0.06044  0.05746  1.0000 -0.8820287709
O   O184      1.0  0.03880  0.06044  0.44254  1.0000 -0.8820287709
O   O185      1.0  0.03530  0.67769  0.09753  1.0000 -0.7686711251
O   O186      1.0  0.46470  0.67769  0.40247  1.0000 -0.7686711251
O   O187      1.0  0.53530  0.82231  0.90247  1.0000 -0.7686711251
O   O188      1.0  0.96470  0.82231  0.59753  1.0000 -0.7686711251
O   O189      1.0  0.96470  0.32231  0.90247  1.0000 -0.7686711251
O   O190      1.0  0.53530  0.32231  0.59753  1.0000 -0.7686711251
O   O191      1.0  0.46470  0.17769  0.09753  1.0000 -0.7686711251
O   O192      1.0  0.03530  0.17769  0.40247  1.0000 -0.7686711251
O   O193      1.0  0.87570  0.53341  0.90150  1.0000 -0.9360186497
O   O194      1.0  0.62430  0.53341  0.59850  1.0000 -0.9360186497
O   O195      1.0  0.37570  0.96659  0.09850  1.0000 -0.9360186497
O   O196      1.0  0.12430  0.96659  0.40150  1.0000 -0.9345955649
O   O197      1.0  0.12430  0.46659  0.09850  1.0000 -0.9360186497
O   O198      1.0  0.37570  0.46659  0.40150  1.0000 -0.9360186497
O   O199      1.0  0.62430  0.03341  0.90150  1.0000 -0.9360186497
O   O200      1.0  0.87570  0.03341  0.59850  1.0000 -0.9360186497
