# DDEC6 charges by PACMAN v1.1 (https://github.com/mtap-research/PACMAN-charge/)
data_2006[Sc][acs]3[ASR]1
_chemical_formula_sum              "Sc6 H24 C48 O50"
_cell_length_a       14.549
_cell_length_b       14.549
_cell_length_c       17.767
_cell_angle_alpha    90
_cell_angle_beta     90
_cell_angle_gamma    120

_symmetry_space_group_name_H-M    "P 1"
_symmetry_Int_Tables_number       1

loop_
  _symmetry_equiv_pos_as_xyz
  'x, y, z'

loop_
  _atom_site_type_symbol
  _atom_site_label
  _atom_site_symmetry_multiplicity
  _atom_site_fract_x
  _atom_site_fract_y
  _atom_site_fract_z
  _atom_site_occupancy
  _atom_site_charge
Sc  Sc1       1.0  0.74682  0.49365  0.75000  1.0000 1.7160646599
Sc  Sc2       1.0  0.25317  0.74682  0.25000  1.0000 1.714772908
Sc  Sc3       1.0  0.50635  0.25317  0.75000  1.0000 1.714772908
Sc  Sc4       1.0  0.74682  0.25317  0.75000  1.0000 1.714772908
Sc  Sc5       1.0  0.49365  0.74682  0.25000  1.0000 1.714772908
Sc  Sc6       1.0  0.25317  0.50635  0.25000  1.0000 1.7160646599
H   H1        1.0  0.37760  0.29090  0.90350  1.0000 0.3471058886
H   H2        1.0  0.08670  0.37760  0.40350  1.0000 0.3471058886
H   H3        1.0  0.70910  0.08670  0.90350  1.0000 0.3471058886
H   H4        1.0  0.91330  0.62240  0.90350  1.0000 0.3471058886
H   H5        1.0  0.29090  0.91330  0.40350  1.0000 0.3471058886
H   H6        1.0  0.37760  0.08670  0.59650  1.0000 0.3471058886
H   H7        1.0  0.29090  0.37760  0.09650  1.0000 0.3471058886
H   H8        1.0  0.91330  0.29090  0.59650  1.0000 0.3471058886
H   H9        1.0  0.62240  0.70910  0.40350  1.0000 0.3471058886
H   H10       1.0  0.70910  0.62240  0.59650  1.0000 0.3471058886
H   H11       1.0  0.08670  0.70910  0.09650  1.0000 0.3471058886
H   H12       1.0  0.62240  0.91330  0.09650  1.0000 0.3471058886
H   H13       1.0  0.62240  0.70910  0.09650  1.0000 0.3471058886
H   H14       1.0  0.91330  0.62240  0.59650  1.0000 0.3471058886
H   H15       1.0  0.29090  0.91330  0.09650  1.0000 0.3471058886
H   H16       1.0  0.08670  0.37760  0.09650  1.0000 0.3471058886
H   H17       1.0  0.70910  0.08670  0.59650  1.0000 0.3471058886
H   H18       1.0  0.62240  0.91330  0.40350  1.0000 0.3471058886
H   H19       1.0  0.70910  0.62240  0.90350  1.0000 0.3471058886
H   H20       1.0  0.08670  0.70910  0.40350  1.0000 0.3471058886
H   H21       1.0  0.37760  0.29090  0.59650  1.0000 0.3471058886
H   H22       1.0  0.29090  0.37760  0.40350  1.0000 0.3471058886
H   H23       1.0  0.91330  0.29090  0.90350  1.0000 0.3471058886
H   H24       1.0  0.37760  0.08670  0.90350  1.0000 0.3471058886
C   C1        1.0  0.56113  0.43887  0.86292  1.0000 0.6686138989
C   C2        1.0  0.12226  0.56113  0.36292  1.0000 0.6686138989
C   C3        1.0  0.56113  0.12226  0.86292  1.0000 0.6686138989
C   C4        1.0  0.87774  0.43887  0.86292  1.0000 0.6686138989
C   C5        1.0  0.43887  0.87774  0.36292  1.0000 0.6686138989
C   C6        1.0  0.56113  0.12226  0.63708  1.0000 0.6686138989
C   C7        1.0  0.43887  0.56113  0.13708  1.0000 0.6686138989
C   C8        1.0  0.87774  0.43887  0.63708  1.0000 0.6686138989
C   C9        1.0  0.43887  0.56113  0.36292  1.0000 0.6686138989
C   C10       1.0  0.56113  0.43887  0.63708  1.0000 0.6686138989
C   C11       1.0  0.12226  0.56113  0.13708  1.0000 0.6686138989
C   C12       1.0  0.43887  0.87774  0.13708  1.0000 0.6686138989
C   C13       1.0  0.52964  0.47036  0.93334  1.0000 -0.3173434803
C   C14       1.0  0.05928  0.52964  0.43334  1.0000 -0.3173434803
C   C15       1.0  0.52964  0.05928  0.93334  1.0000 -0.3173434803
C   C16       1.0  0.94072  0.47036  0.93334  1.0000 -0.3173434803
C   C17       1.0  0.47036  0.94072  0.43334  1.0000 -0.3173434803
C   C18       1.0  0.52964  0.05928  0.56666  1.0000 -0.3173434803
C   C19       1.0  0.47036  0.52964  0.06666  1.0000 -0.3173434803
C   C20       1.0  0.94072  0.47036  0.56666  1.0000 -0.3173434803
C   C21       1.0  0.47036  0.52964  0.43334  1.0000 -0.3173434803
C   C22       1.0  0.52964  0.47036  0.56666  1.0000 -0.3173434803
C   C23       1.0  0.05928  0.52964  0.06666  1.0000 -0.3173434803
C   C24       1.0  0.47036  0.94072  0.06666  1.0000 -0.3173434803
C   C25       1.0  0.43237  0.40312  0.96662  1.0000 0.178301006
C   C26       1.0  0.02925  0.43237  0.46662  1.0000 0.178301006
C   C27       1.0  0.59688  0.02925  0.96662  1.0000 0.178301006
C   C28       1.0  0.97075  0.56763  0.96662  1.0000 0.178301006
C   C29       1.0  0.40312  0.97075  0.46662  1.0000 0.178301006
C   C30       1.0  0.43237  0.02925  0.53338  1.0000 0.178301006
C   C31       1.0  0.40312  0.43237  0.03338  1.0000 0.178301006
C   C32       1.0  0.97075  0.40312  0.53338  1.0000 0.178301006
C   C33       1.0  0.56763  0.59688  0.46662  1.0000 0.178301006
C   C34       1.0  0.59688  0.56763  0.53338  1.0000 0.178301006
C   C35       1.0  0.02925  0.59688  0.03338  1.0000 0.178301006
C   C36       1.0  0.56763  0.97075  0.03338  1.0000 0.178301006
C   C37       1.0  0.56763  0.59688  0.03338  1.0000 0.178301006
C   C38       1.0  0.97075  0.56763  0.53338  1.0000 0.178301006
C   C39       1.0  0.40312  0.97075  0.03338  1.0000 0.178301006
C   C40       1.0  0.02925  0.43237  0.03338  1.0000 0.178301006
C   C41       1.0  0.59688  0.02925  0.53338  1.0000 0.178301006
C   C42       1.0  0.56763  0.97075  0.46662  1.0000 0.178301006
C   C43       1.0  0.59688  0.56763  0.96662  1.0000 0.178301006
C   C44       1.0  0.02925  0.59688  0.46662  1.0000 0.178301006
C   C45       1.0  0.43237  0.40312  0.53338  1.0000 0.178301006
C   C46       1.0  0.40312  0.43237  0.46662  1.0000 0.178301006
C   C47       1.0  0.97075  0.40312  0.96662  1.0000 0.178301006
C   C48       1.0  0.43237  0.02925  0.96662  1.0000 0.178301006
O   O1        1.0  0.66667  0.33333  0.75000  1.0000 -1.2232224066
O   O2        1.0  0.33333  0.66667  0.25000  1.0000 -1.2232224066
O   O3        1.0  0.65002  0.50236  0.83489  1.0000 -0.6634551206
O   O4        1.0  0.14766  0.65002  0.33489  1.0000 -0.6634551206
O   O5        1.0  0.49764  0.14766  0.83489  1.0000 -0.6634551206
O   O6        1.0  0.85234  0.34998  0.83489  1.0000 -0.6634551206
O   O7        1.0  0.50236  0.85234  0.33489  1.0000 -0.6634551206
O   O8        1.0  0.65002  0.14766  0.66511  1.0000 -0.6634551206
O   O9        1.0  0.50236  0.65002  0.16511  1.0000 -0.6634551206
O   O10       1.0  0.85234  0.50236  0.66511  1.0000 -0.6634551206
O   O11       1.0  0.34998  0.49764  0.33489  1.0000 -0.6634551206
O   O12       1.0  0.49764  0.34998  0.66511  1.0000 -0.6634551206
O   O13       1.0  0.14766  0.49764  0.16511  1.0000 -0.6634551206
O   O14       1.0  0.34998  0.85234  0.16511  1.0000 -0.6634551206
O   O15       1.0  0.34998  0.49764  0.16511  1.0000 -0.6634551206
O   O16       1.0  0.85234  0.34998  0.66511  1.0000 -0.6634551206
O   O17       1.0  0.50236  0.85234  0.16511  1.0000 -0.6634551206
O   O18       1.0  0.14766  0.65002  0.16511  1.0000 -0.6634551206
O   O19       1.0  0.49764  0.14766  0.66511  1.0000 -0.6634551206
O   O20       1.0  0.34998  0.85234  0.33489  1.0000 -0.6634551206
O   O21       1.0  0.49764  0.34998  0.83489  1.0000 -0.6634551206
O   O22       1.0  0.14766  0.49764  0.33489  1.0000 -0.6634551206
O   O23       1.0  0.65002  0.50236  0.66511  1.0000 -0.6634551206
O   O24       1.0  0.50236  0.65002  0.33489  1.0000 -0.6634551206
O   O25       1.0  0.85234  0.50236  0.83489  1.0000 -0.6634551206
O   O26       1.0  0.65002  0.14766  0.83489  1.0000 -0.6634551206
O   O27       1.0  0.35710  0.30690  0.94300  1.0000 -0.3654004155
O   O28       1.0  0.05020  0.35710  0.44300  1.0000 -0.3638839999
O   O29       1.0  0.69310  0.05020  0.94300  1.0000 -0.3638839999
O   O30       1.0  0.94980  0.64290  0.94300  1.0000 -0.3654004155
O   O31       1.0  0.30690  0.94980  0.44300  1.0000 -0.3638839999
O   O32       1.0  0.35710  0.05020  0.55700  1.0000 -0.3638839999
O   O33       1.0  0.30690  0.35710  0.05700  1.0000 -0.3638839999
O   O34       1.0  0.94980  0.30690  0.55700  1.0000 -0.3638839999
O   O35       1.0  0.64290  0.69310  0.44300  1.0000 -0.3638839999
O   O36       1.0  0.69310  0.64290  0.55700  1.0000 -0.3654004155
O   O37       1.0  0.05020  0.69310  0.05700  1.0000 -0.3638839999
O   O38       1.0  0.64290  0.94980  0.05700  1.0000 -0.3654004155
O   O39       1.0  0.64290  0.69310  0.05700  1.0000 -0.3638839999
O   O40       1.0  0.94980  0.64290  0.55700  1.0000 -0.3654004155
O   O41       1.0  0.30690  0.94980  0.05700  1.0000 -0.3638839999
O   O42       1.0  0.05020  0.35710  0.05700  1.0000 -0.3638839999
O   O43       1.0  0.69310  0.05020  0.55700  1.0000 -0.3638839999
O   O44       1.0  0.64290  0.94980  0.44300  1.0000 -0.3654004155
O   O45       1.0  0.69310  0.64290  0.94300  1.0000 -0.3654004155
O   O46       1.0  0.05020  0.69310  0.44300  1.0000 -0.3638839999
O   O47       1.0  0.35710  0.30690  0.55700  1.0000 -0.3654004155
O   O48       1.0  0.30690  0.35710  0.44300  1.0000 -0.3638839999
O   O49       1.0  0.94980  0.30690  0.94300  1.0000 -0.3654004155
O   O50       1.0  0.35710  0.05020  0.94300  1.0000 -0.3638839999
