# DDEC6 charges by PACMAN v1.1 (https://github.com/mtap-research/PACMAN-charge/)
data_2006[Y][nan]3[ASR]1
_chemical_formula_sum              "Y8 H36 C84 N12 O48"
_cell_length_a       8.5083
_cell_length_b       15.704
_cell_length_c       28.452
_cell_angle_alpha    90
_cell_angle_beta     90
_cell_angle_gamma    90

_symmetry_space_group_name_H-M    "P 1"
_symmetry_Int_Tables_number       1

loop_
  _symmetry_equiv_pos_as_xyz
  'x, y, z'

loop_
  _atom_site_type_symbol
  _atom_site_label
  _atom_site_symmetry_multiplicity
  _atom_site_fract_x
  _atom_site_fract_y
  _atom_site_fract_z
  _atom_site_occupancy
  _atom_site_charge
Y   Y1        1.0  0.02622  0.19858  0.41514  1.0000 1.798613891
Y   Y2        1.0  0.47378  0.69858  0.58486  1.0000 1.798613891
Y   Y3        1.0  0.97378  0.80142  0.91514  1.0000 1.798613891
Y   Y4        1.0  0.52622  0.30142  0.08486  1.0000 1.798613891
Y   Y5        1.0  0.97378  0.80142  0.58486  1.0000 1.798613891
Y   Y6        1.0  0.52622  0.30142  0.41514  1.0000 1.798613891
Y   Y7        1.0  0.02622  0.19858  0.08486  1.0000 1.798613891
Y   Y8        1.0  0.47378  0.69858  0.91514  1.0000 1.798613891
H   H1        1.0  0.10130  0.53570  0.60160  1.0000 0.1085412204
H   H2        1.0  0.39870  0.03570  0.39840  1.0000 0.1085412204
H   H3        1.0  0.89870  0.46430  0.10160  1.0000 0.1085412204
H   H4        1.0  0.60130  0.96430  0.89840  1.0000 0.1085412204
H   H5        1.0  0.89870  0.46430  0.39840  1.0000 0.1085412204
H   H6        1.0  0.60130  0.96430  0.60160  1.0000 0.1085412204
H   H7        1.0  0.10130  0.53570  0.89840  1.0000 0.1085412204
H   H8        1.0  0.39870  0.03570  0.10160  1.0000 0.1085412204
H   H9        1.0  0.72270  0.47360  0.52370  1.0000 0.1316076219
H   H10       1.0  0.77730  0.97360  0.47630  1.0000 0.1316076219
H   H11       1.0  0.27730  0.52640  0.02370  1.0000 0.1316076219
H   H12       1.0  0.22270  0.02640  0.97630  1.0000 0.1316076219
H   H13       1.0  0.27730  0.52640  0.47630  1.0000 0.1316076219
H   H14       1.0  0.22270  0.02640  0.52370  1.0000 0.1316076219
H   H15       1.0  0.72270  0.47360  0.97630  1.0000 0.1316076219
H   H16       1.0  0.77730  0.97360  0.02370  1.0000 0.1316076219
H   H17       1.0  0.09760  0.31820  0.53530  1.0000 0.1158994534
H   H18       1.0  0.40240  0.81820  0.46470  1.0000 0.1158994534
H   H19       1.0  0.90240  0.68180  0.03530  1.0000 0.1158994534
H   H20       1.0  0.59760  0.18180  0.96470  1.0000 0.1158994534
H   H21       1.0  0.90240  0.68180  0.46470  1.0000 0.1158994534
H   H22       1.0  0.59760  0.18180  0.53530  1.0000 0.1158994534
H   H23       1.0  0.09760  0.31820  0.96470  1.0000 0.1158994534
H   H24       1.0  0.40240  0.81820  0.03530  1.0000 0.1158994534
H   H25       1.0  0.67370  0.40450  0.31930  1.0000 0.1158994534
H   H26       1.0  0.82630  0.90450  0.68070  1.0000 0.1158994534
H   H27       1.0  0.32630  0.59550  0.81930  1.0000 0.1158994534
H   H28       1.0  0.17370  0.09550  0.18070  1.0000 0.1158994534
H   H29       1.0  0.32630  0.59550  0.68070  1.0000 0.1158994534
H   H30       1.0  0.17370  0.09550  0.31930  1.0000 0.1158994534
H   H31       1.0  0.67370  0.40450  0.18070  1.0000 0.1158994534
H   H32       1.0  0.82630  0.90450  0.81930  1.0000 0.1158994534
H   H33       1.0  0.89680  0.21710  0.25000  1.0000 0.1316076219
H   H34       1.0  0.60320  0.71710  0.75000  1.0000 0.1316076219
H   H35       1.0  0.10320  0.78290  0.75000  1.0000 0.1316076219
H   H36       1.0  0.39680  0.28290  0.25000  1.0000 0.1316076219
C   C1        1.0  0.04860  0.49620  0.58184  1.0000 0.0677139163
C   C2        1.0  0.45140  0.99620  0.41816  1.0000 0.0677139163
C   C3        1.0  0.95140  0.50380  0.08184  1.0000 0.0677139163
C   C4        1.0  0.54860  0.00380  0.91816  1.0000 0.0677139163
C   C5        1.0  0.95140  0.50380  0.41816  1.0000 0.0677139163
C   C6        1.0  0.54860  0.00380  0.58184  1.0000 0.0677139163
C   C7        1.0  0.04860  0.49620  0.91816  1.0000 0.0677139163
C   C8        1.0  0.45140  0.99620  0.08184  1.0000 0.0677139163
C   C9        1.0  0.90080  0.51780  0.56522  1.0000 -0.0980160255
C   C10       1.0  0.59920  0.01780  0.43478  1.0000 -0.0980160255
C   C11       1.0  0.09920  0.48220  0.06522  1.0000 -0.0980160255
C   C12       1.0  0.40080  0.98220  0.93478  1.0000 -0.0980160255
C   C13       1.0  0.09920  0.48220  0.43478  1.0000 -0.0980160255
C   C14       1.0  0.40080  0.98220  0.56522  1.0000 -0.0980160255
C   C15       1.0  0.90080  0.51780  0.93478  1.0000 -0.0980160255
C   C16       1.0  0.59920  0.01780  0.06522  1.0000 -0.0980160255
C   C17       1.0  0.82430  0.46090  0.53567  1.0000 -0.0638376806
C   C18       1.0  0.67570  0.96090  0.46433  1.0000 -0.0638376806
C   C19       1.0  0.17570  0.53910  0.03567  1.0000 -0.0638376806
C   C20       1.0  0.32430  0.03910  0.96433  1.0000 -0.0638376806
C   C21       1.0  0.17570  0.53910  0.46433  1.0000 -0.0638376806
C   C22       1.0  0.32430  0.03910  0.53567  1.0000 -0.0638376806
C   C23       1.0  0.82430  0.46090  0.96433  1.0000 -0.0638376806
C   C24       1.0  0.67570  0.96090  0.03567  1.0000 -0.0638376806
C   C25       1.0  0.89790  0.38600  0.52405  1.0000 -0.0870434004
C   C26       1.0  0.60210  0.88600  0.47595  1.0000 -0.0870434004
C   C27       1.0  0.10210  0.61400  0.02405  1.0000 -0.0870434004
C   C28       1.0  0.39790  0.11400  0.97595  1.0000 -0.0870434004
C   C29       1.0  0.10210  0.61400  0.47595  1.0000 -0.0870434004
C   C30       1.0  0.39790  0.11400  0.52405  1.0000 -0.0870434004
C   C31       1.0  0.89790  0.38600  0.97595  1.0000 -0.0870434004
C   C32       1.0  0.60210  0.88600  0.02405  1.0000 -0.0870434004
C   C33       1.0  0.04690  0.37020  0.54327  1.0000 0.077196416
C   C34       1.0  0.45310  0.87020  0.45673  1.0000 0.077196416
C   C35       1.0  0.95310  0.62980  0.04327  1.0000 0.077196416
C   C36       1.0  0.54690  0.12980  0.95673  1.0000 0.077196416
C   C37       1.0  0.95310  0.62980  0.45673  1.0000 0.077196416
C   C38       1.0  0.54690  0.12980  0.54327  1.0000 0.077196416
C   C39       1.0  0.04690  0.37020  0.95673  1.0000 0.077196416
C   C40       1.0  0.45310  0.87020  0.04327  1.0000 0.077196416
C   C41       1.0  0.82730  0.32360  0.48942  1.0000 0.6390307248
C   C42       1.0  0.67270  0.82360  0.51058  1.0000 0.6390307248
C   C43       1.0  0.17270  0.67640  0.98942  1.0000 0.6390307248
C   C44       1.0  0.32730  0.17640  0.01058  1.0000 0.6390307248
C   C45       1.0  0.17270  0.67640  0.51058  1.0000 0.6390307248
C   C46       1.0  0.32730  0.17640  0.48942  1.0000 0.6390307248
C   C47       1.0  0.82730  0.32360  0.01058  1.0000 0.6390307248
C   C48       1.0  0.67270  0.82360  0.98942  1.0000 0.6390307248
C   C49       1.0  0.82920  0.60200  0.57604  1.0000 0.6390307248
C   C50       1.0  0.67080  0.10200  0.42396  1.0000 0.6390307248
C   C51       1.0  0.17080  0.39800  0.07604  1.0000 0.6390307248
C   C52       1.0  0.32920  0.89800  0.92396  1.0000 0.6390307248
C   C53       1.0  0.17080  0.39800  0.42396  1.0000 0.6390307248
C   C54       1.0  0.32920  0.89800  0.57604  1.0000 0.6390307248
C   C55       1.0  0.82920  0.60200  0.92396  1.0000 0.6390307248
C   C56       1.0  0.67080  0.10200  0.07604  1.0000 0.6390307248
C   C57       1.0  0.70480  0.37950  0.29036  1.0000 0.077196416
C   C58       1.0  0.79520  0.87950  0.70964  1.0000 0.077196416
C   C59       1.0  0.29520  0.62050  0.79036  1.0000 0.077196416
C   C60       1.0  0.20480  0.12050  0.20964  1.0000 0.077196416
C   C61       1.0  0.29520  0.62050  0.70964  1.0000 0.077196416
C   C62       1.0  0.20480  0.12050  0.29036  1.0000 0.077196416
C   C63       1.0  0.70480  0.37950  0.20964  1.0000 0.077196416
C   C64       1.0  0.79520  0.87950  0.79036  1.0000 0.077196416
C   C65       1.0  0.78950  0.30450  0.29204  1.0000 -0.0870434004
C   C66       1.0  0.71050  0.80450  0.70796  1.0000 -0.0870434004
C   C67       1.0  0.21050  0.69550  0.79204  1.0000 -0.0870434004
C   C68       1.0  0.28950  0.19550  0.20796  1.0000 -0.0870434004
C   C69       1.0  0.21050  0.69550  0.70796  1.0000 -0.0870434004
C   C70       1.0  0.28950  0.19550  0.29204  1.0000 -0.0870434004
C   C71       1.0  0.78950  0.30450  0.20796  1.0000 -0.0870434004
C   C72       1.0  0.71050  0.80450  0.79204  1.0000 -0.0870434004
C   C73       1.0  0.83500  0.26740  0.25000  1.0000 -0.0638376806
C   C74       1.0  0.66500  0.76740  0.75000  1.0000 -0.0638376806
C   C75       1.0  0.16500  0.73260  0.75000  1.0000 -0.0638376806
C   C76       1.0  0.33500  0.23260  0.25000  1.0000 -0.0638376806
C   C77       1.0  0.83350  0.26670  0.33799  1.0000 0.6189239472
C   C78       1.0  0.66650  0.76670  0.66201  1.0000 0.6189239472
C   C79       1.0  0.16650  0.73330  0.83799  1.0000 0.6189239472
C   C80       1.0  0.33350  0.23330  0.16201  1.0000 0.6189239472
C   C81       1.0  0.16650  0.73330  0.66201  1.0000 0.6189239472
C   C82       1.0  0.33350  0.23330  0.33799  1.0000 0.6189239472
C   C83       1.0  0.83350  0.26670  0.16201  1.0000 0.6189239472
C   C84       1.0  0.66650  0.76670  0.83799  1.0000 0.6189239472
N   N1        1.0  0.12110  0.42320  0.57175  1.0000 -0.2621675283
N   N2        1.0  0.37890  0.92320  0.42825  1.0000 -0.2621675283
N   N3        1.0  0.87890  0.57680  0.07175  1.0000 -0.2621675283
N   N4        1.0  0.62110  0.07680  0.92825  1.0000 -0.2621675283
N   N5        1.0  0.87890  0.57680  0.42825  1.0000 -0.2621675283
N   N6        1.0  0.62110  0.07680  0.57175  1.0000 -0.2621675283
N   N7        1.0  0.12110  0.42320  0.92825  1.0000 -0.2621675283
N   N8        1.0  0.37890  0.92320  0.07175  1.0000 -0.2621675283
N   N9        1.0  0.66320  0.41990  0.25000  1.0000 -0.241935268
N   N10       1.0  0.83680  0.91990  0.75000  1.0000 -0.241935268
N   N11       1.0  0.33680  0.58010  0.75000  1.0000 -0.241935268
N   N12       1.0  0.16320  0.08010  0.25000  1.0000 -0.241935268
O   O1        1.0  0.93910  0.21030  0.33865  1.0000 -0.5951140076
O   O2        1.0  0.56090  0.71030  0.66135  1.0000 -0.5946246534
O   O3        1.0  0.06090  0.78970  0.83865  1.0000 -0.5946246534
O   O4        1.0  0.43910  0.28970  0.16135  1.0000 -0.5946246534
O   O5        1.0  0.06090  0.78970  0.66135  1.0000 -0.5946246534
O   O6        1.0  0.43910  0.28970  0.33865  1.0000 -0.5946246534
O   O7        1.0  0.93910  0.21030  0.16135  1.0000 -0.5951140076
O   O8        1.0  0.56090  0.71030  0.83865  1.0000 -0.5951140076
O   O9        1.0  0.77080  0.29230  0.37570  1.0000 -0.6438167616
O   O10       1.0  0.72920  0.79230  0.62430  1.0000 -0.6438167616
O   O11       1.0  0.22920  0.70770  0.87570  1.0000 -0.6438167616
O   O12       1.0  0.27080  0.20770  0.12430  1.0000 -0.6438167616
O   O13       1.0  0.22920  0.70770  0.62430  1.0000 -0.6438167616
O   O14       1.0  0.27080  0.20770  0.37570  1.0000 -0.6438167616
O   O15       1.0  0.77080  0.29230  0.12430  1.0000 -0.6438167616
O   O16       1.0  0.72920  0.79230  0.87570  1.0000 -0.6438167616
O   O17       1.0  0.90700  0.25930  0.47928  1.0000 -0.6065878123
O   O18       1.0  0.59300  0.75930  0.52072  1.0000 -0.6065878123
O   O19       1.0  0.09300  0.74070  0.97928  1.0000 -0.6065878123
O   O20       1.0  0.40700  0.24070  0.02072  1.0000 -0.6065878123
O   O21       1.0  0.09300  0.74070  0.52072  1.0000 -0.6065878123
O   O22       1.0  0.40700  0.24070  0.47928  1.0000 -0.6065878123
O   O23       1.0  0.90700  0.25930  0.02072  1.0000 -0.6065878123
O   O24       1.0  0.59300  0.75930  0.97928  1.0000 -0.6065878123
O   O25       1.0  0.69140  0.34120  0.47420  1.0000 -0.6197501173
O   O26       1.0  0.80860  0.84120  0.52580  1.0000 -0.6197501173
O   O27       1.0  0.30860  0.65880  0.97420  1.0000 -0.6197501173
O   O28       1.0  0.19140  0.15880  0.02580  1.0000 -0.6197501173
O   O29       1.0  0.30860  0.65880  0.52580  1.0000 -0.6197501173
O   O30       1.0  0.19140  0.15880  0.47420  1.0000 -0.6197501173
O   O31       1.0  0.69140  0.34120  0.02580  1.0000 -0.6197501173
O   O32       1.0  0.80860  0.84120  0.97420  1.0000 -0.6197501173
O   O33       1.0  0.91870  0.65920  0.59174  1.0000 -0.6197501173
O   O34       1.0  0.58130  0.15920  0.40826  1.0000 -0.6197501173
O   O35       1.0  0.08130  0.34080  0.09174  1.0000 -0.6197501173
O   O36       1.0  0.41870  0.84080  0.90826  1.0000 -0.6197501173
O   O37       1.0  0.08130  0.34080  0.40826  1.0000 -0.6197501173
O   O38       1.0  0.41870  0.84080  0.59174  1.0000 -0.6197501173
O   O39       1.0  0.91870  0.65920  0.90826  1.0000 -0.6197501173
O   O40       1.0  0.58130  0.15920  0.09174  1.0000 -0.6197501173
O   O41       1.0  0.68390  0.61130  0.56847  1.0000 -0.6197501173
O   O42       1.0  0.81610  0.11130  0.43153  1.0000 -0.6197501173
O   O43       1.0  0.31610  0.38870  0.06847  1.0000 -0.6197501173
O   O44       1.0  0.18390  0.88870  0.93153  1.0000 -0.6197501173
O   O45       1.0  0.31610  0.38870  0.43153  1.0000 -0.6197501173
O   O46       1.0  0.18390  0.88870  0.56847  1.0000 -0.6197501173
O   O47       1.0  0.68390  0.61130  0.93153  1.0000 -0.6197501173
O   O48       1.0  0.81610  0.11130  0.06847  1.0000 -0.6197501173
