# DDEC6 charges by PACMAN v1.1 (https://github.com/mtap-research/PACMAN-charge/)
data_2006[Zn][dia]3[ASR]8
_chemical_formula_sum              "Zn12 H24 C24 O48"
_cell_length_a       11.2956
_cell_length_b       9.8486
_cell_length_c       18.3717
_cell_angle_alpha    90
_cell_angle_beta     126.619
_cell_angle_gamma    90

_symmetry_space_group_name_H-M    "P 1"
_symmetry_Int_Tables_number       1

loop_
  _symmetry_equiv_pos_as_xyz
  'x, y, z'

loop_
  _atom_site_type_symbol
  _atom_site_label
  _atom_site_symmetry_multiplicity
  _atom_site_fract_x
  _atom_site_fract_y
  _atom_site_fract_z
  _atom_site_occupancy
  _atom_site_charge
Zn  Zn1       1.0  0.62451  0.92332  0.86765  1.0000 0.9557025446
Zn  Zn2       1.0  0.37549  0.42332  0.63235  1.0000 0.9557025446
Zn  Zn3       1.0  0.37549  0.07668  0.13235  1.0000 0.9557025446
Zn  Zn4       1.0  0.62451  0.57668  0.36765  1.0000 0.9557025446
Zn  Zn5       1.0  0.43248  0.11240  0.69124  1.0000 0.9274848713
Zn  Zn6       1.0  0.56752  0.61240  0.80876  1.0000 0.9274848713
Zn  Zn7       1.0  0.56752  0.88760  0.30876  1.0000 0.9274848713
Zn  Zn8       1.0  0.43248  0.38760  0.19124  1.0000 0.9274848713
Zn  Zn9       1.0  0.50000  0.00000  0.00000  1.0000 0.9527366175
Zn  Zn10      1.0  0.50000  0.50000  0.50000  1.0000 0.9527366175
Zn  Zn11      1.0  0.00000  0.00000  0.00000  1.0000 0.9527366175
Zn  Zn12      1.0  0.00000  0.50000  0.50000  1.0000 0.9527366175
H   H1        1.0  0.47560  0.75760  0.63020  1.0000 0.0896683486
H   H2        1.0  0.52440  0.25760  0.86980  1.0000 0.0896683486
H   H3        1.0  0.52440  0.24240  0.36980  1.0000 0.0896683486
H   H4        1.0  0.47560  0.74240  0.13020  1.0000 0.0896683486
H   H5        1.0  0.21860  0.05570  0.74110  1.0000 0.0896683486
H   H6        1.0  0.78140  0.55570  0.75890  1.0000 0.0896683486
H   H7        1.0  0.78140  0.94430  0.25890  1.0000 0.0896683486
H   H8        1.0  0.21860  0.44430  0.24110  1.0000 0.0896683486
H   H9        1.0  0.50180  0.61730  0.94840  1.0000 0.0896683486
H   H10       1.0  0.49820  0.11730  0.55160  1.0000 0.0896683486
H   H11       1.0  0.49820  0.38270  0.05160  1.0000 0.0896683486
H   H12       1.0  0.50180  0.88270  0.44840  1.0000 0.0896683486
H   H13       1.0  0.75520  0.19890  0.77390  1.0000 0.0896683486
H   H14       1.0  0.24480  0.69890  0.72610  1.0000 0.0896683486
H   H15       1.0  0.24480  0.80110  0.22610  1.0000 0.0896683486
H   H16       1.0  0.75520  0.30110  0.27390  1.0000 0.0896683486
H   H17       1.0  0.76800  0.15420  0.07270  1.0000 0.0896683486
H   H18       1.0  0.23200  0.65420  0.42730  1.0000 0.0896683486
H   H19       1.0  0.23200  0.84580  0.92730  1.0000 0.0896683486
H   H20       1.0  0.76800  0.34580  0.57270  1.0000 0.0896683486
H   H21       1.0  0.97860  0.70740  0.97490  1.0000 0.0896683486
H   H22       1.0  0.02140  0.20740  0.52510  1.0000 0.0896683486
H   H23       1.0  0.02140  0.29260  0.02510  1.0000 0.0896683486
H   H24       1.0  0.97860  0.79260  0.47490  1.0000 0.0896683486
C   C1        1.0  0.48860  0.83040  0.66823  1.0000 0.4889316176
C   C2        1.0  0.51140  0.33040  0.83177  1.0000 0.4889316176
C   C3        1.0  0.51140  0.16960  0.33177  1.0000 0.4889316176
C   C4        1.0  0.48860  0.66960  0.16823  1.0000 0.4889316176
C   C5        1.0  0.31200  0.02850  0.79365  1.0000 0.4721481714
C   C6        1.0  0.68800  0.52850  0.70635  1.0000 0.4721481714
C   C7        1.0  0.68800  0.97150  0.20635  1.0000 0.4721481714
C   C8        1.0  0.31200  0.47150  0.29365  1.0000 0.4721481714
C   C9        1.0  0.51570  0.71120  0.94394  1.0000 0.4721481714
C   C10       1.0  0.48430  0.21120  0.55606  1.0000 0.4721481714
C   C11       1.0  0.48430  0.28880  0.05606  1.0000 0.4721481714
C   C12       1.0  0.51570  0.78880  0.44394  1.0000 0.4721481714
C   C13       1.0  0.77190  0.13640  0.81852  1.0000 0.4721481714
C   C14       1.0  0.22810  0.63640  0.68148  1.0000 0.4721481714
C   C15       1.0  0.22810  0.86360  0.18148  1.0000 0.4721481714
C   C16       1.0  0.77190  0.36360  0.31852  1.0000 0.4721481714
C   C17       1.0  0.77440  0.09930  0.03266  1.0000 0.4889316176
C   C18       1.0  0.22560  0.59930  0.46734  1.0000 0.4889316176
C   C19       1.0  0.22560  0.90070  0.96734  1.0000 0.4889316176
C   C20       1.0  0.77440  0.40070  0.53266  1.0000 0.4889316176
C   C21       1.0  0.87550  0.72450  0.93745  1.0000 0.4889316176
C   C22       1.0  0.12450  0.22450  0.56255  1.0000 0.4889316176
C   C23       1.0  0.12450  0.27550  0.06255  1.0000 0.4889316176
C   C24       1.0  0.87550  0.77550  0.43745  1.0000 0.4889316176
O   O1        1.0  0.55662  0.80387  0.75225  1.0000 -0.5505483286
O   O2        1.0  0.44338  0.30387  0.74775  1.0000 -0.5505483286
O   O3        1.0  0.44338  0.19613  0.24775  1.0000 -0.5505483286
O   O4        1.0  0.55662  0.69613  0.25225  1.0000 -0.5505483286
O   O5        1.0  0.43756  0.94288  0.63128  1.0000 -0.4930569963
O   O6        1.0  0.56244  0.44288  0.86872  1.0000 -0.4930569963
O   O7        1.0  0.56244  0.05712  0.36872  1.0000 -0.4930569963
O   O8        1.0  0.43756  0.55712  0.13128  1.0000 -0.4930569963
O   O9        1.0  0.41375  0.01248  0.78469  1.0000 -0.5420856462
O   O10       1.0  0.58625  0.51248  0.71531  1.0000 -0.5420856462
O   O11       1.0  0.58625  0.98752  0.21531  1.0000 -0.5420856462
O   O12       1.0  0.41375  0.48752  0.28469  1.0000 -0.5420856462
O   O13       1.0  0.32147  0.01243  0.86368  1.0000 -0.4930569963
O   O14       1.0  0.67853  0.51243  0.63632  1.0000 -0.4930569963
O   O15       1.0  0.67853  0.98757  0.13632  1.0000 -0.4930569963
O   O16       1.0  0.32147  0.48757  0.36368  1.0000 -0.4930569963
O   O17       1.0  0.54315  0.74534  0.88794  1.0000 -0.5505483286
O   O18       1.0  0.45685  0.24534  0.61206  1.0000 -0.5505483286
O   O19       1.0  0.45685  0.25466  0.11206  1.0000 -0.5505483286
O   O20       1.0  0.54315  0.75466  0.38794  1.0000 -0.5505483286
O   O21       1.0  0.50580  0.78977  0.99276  1.0000 -0.5003612822
O   O22       1.0  0.49420  0.28977  0.50724  1.0000 -0.5003612822
O   O23       1.0  0.49420  0.21023  0.00724  1.0000 -0.5003612822
O   O24       1.0  0.50580  0.71023  0.49276  1.0000 -0.5003612822
O   O25       1.0  0.65786  0.08282  0.80544  1.0000 -0.5505483286
O   O26       1.0  0.34214  0.58282  0.69456  1.0000 -0.5505483286
O   O27       1.0  0.34214  0.91718  0.19456  1.0000 -0.5505483286
O   O28       1.0  0.65786  0.41718  0.30544  1.0000 -0.5505483286
O   O29       1.0  0.90133  0.11556  0.88300  1.0000 -0.4836110459
O   O30       1.0  0.09867  0.61556  0.61700  1.0000 -0.4836110459
O   O31       1.0  0.09867  0.88444  0.11700  1.0000 -0.4836110459
O   O32       1.0  0.90133  0.38444  0.38300  1.0000 -0.4836110459
O   O33       1.0  0.66192  0.02452  0.97673  1.0000 -0.5505483286
O   O34       1.0  0.33808  0.52452  0.52327  1.0000 -0.5505483286
O   O35       1.0  0.33808  0.97548  0.02327  1.0000 -0.5505483286
O   O36       1.0  0.66192  0.47548  0.47673  1.0000 -0.5505483286
O   O37       1.0  0.88905  0.10695  0.03956  1.0000 -0.5003612822
O   O38       1.0  0.11095  0.60695  0.46044  1.0000 -0.5003612822
O   O39       1.0  0.11095  0.89305  0.96044  1.0000 -0.5003612822
O   O40       1.0  0.88905  0.39305  0.53956  1.0000 -0.5003612822
O   O41       1.0  0.83527  0.84735  0.93404  1.0000 -0.5420856462
O   O42       1.0  0.16473  0.34735  0.56596  1.0000 -0.5420856462
O   O43       1.0  0.16473  0.15265  0.06596  1.0000 -0.5420856462
O   O44       1.0  0.83527  0.65265  0.43404  1.0000 -0.5420856462
O   O45       1.0  0.79344  0.62565  0.89677  1.0000 -0.5003612822
O   O46       1.0  0.20656  0.12565  0.60323  1.0000 -0.5003612822
O   O47       1.0  0.20656  0.37435  0.10323  1.0000 -0.5003612822
O   O48       1.0  0.79344  0.87435  0.39677  1.0000 -0.5003612822
