# DDEC6 charges by PACMAN v1.1 (https://github.com/mtap-research/PACMAN-charge/)
data_2006[Cd][nan]3[ASR]3
_chemical_formula_sum              "Cd16 H36 C108 O72"
_cell_length_a       10.3503
_cell_length_b       10.3503
_cell_length_c       52.557
_cell_angle_alpha    90
_cell_angle_beta     90
_cell_angle_gamma    90

_symmetry_space_group_name_H-M    "P 1"
_symmetry_Int_Tables_number       1

loop_
  _symmetry_equiv_pos_as_xyz
  'x, y, z'

loop_
  _atom_site_type_symbol
  _atom_site_label
  _atom_site_symmetry_multiplicity
  _atom_site_fract_x
  _atom_site_fract_y
  _atom_site_fract_z
  _atom_site_occupancy
  _atom_site_charge
Cd  Cd1       1.0  0.35845  0.05972  0.02361  1.0000 1.0561423865
Cd  Cd2       1.0  0.64155  0.94028  0.52361  1.0000 1.0561423865
Cd  Cd3       1.0  0.94028  0.35845  0.77361  1.0000 1.0561423865
Cd  Cd4       1.0  0.05972  0.64155  0.27361  1.0000 1.0561423865
Cd  Cd5       1.0  0.64155  0.05972  0.97639  1.0000 1.0561423865
Cd  Cd6       1.0  0.35845  0.94028  0.47639  1.0000 1.0561423865
Cd  Cd7       1.0  0.05972  0.35845  0.22639  1.0000 1.0561423865
Cd  Cd8       1.0  0.94028  0.64155  0.72639  1.0000 1.0561423865
Cd  Cd9       1.0  0.14533  0.24293  0.82883  1.0000 1.0187967536
Cd  Cd10      1.0  0.85467  0.75707  0.32883  1.0000 1.0187967536
Cd  Cd11      1.0  0.75707  0.14533  0.57883  1.0000 1.0187967536
Cd  Cd12      1.0  0.24293  0.85467  0.07883  1.0000 1.0187967536
Cd  Cd13      1.0  0.85467  0.24293  0.17117  1.0000 1.0187967536
Cd  Cd14      1.0  0.14533  0.75707  0.67117  1.0000 1.0187967536
Cd  Cd15      1.0  0.24293  0.14533  0.42117  1.0000 1.0187967536
Cd  Cd16      1.0  0.75707  0.85467  0.92117  1.0000 1.0187967536
H   H1        1.0  0.33590  0.11990  0.91310  1.0000 0.1347532314
H   H2        1.0  0.66410  0.88010  0.41310  1.0000 0.1347532314
H   H3        1.0  0.88010  0.33590  0.66310  1.0000 0.1347532314
H   H4        1.0  0.11990  0.66410  0.16310  1.0000 0.1347532314
H   H5        1.0  0.66410  0.11990  0.08690  1.0000 0.1347532314
H   H6        1.0  0.33590  0.88010  0.58690  1.0000 0.1347532314
H   H7        1.0  0.11990  0.33590  0.33690  1.0000 0.1347532314
H   H8        1.0  0.88010  0.66410  0.83690  1.0000 0.1347532314
H   H9        1.0  0.94890  0.12710  0.90730  1.0000 0.1347532314
H   H10       1.0  0.05110  0.87290  0.40730  1.0000 0.1347532314
H   H11       1.0  0.87290  0.94890  0.65730  1.0000 0.1347532314
H   H12       1.0  0.12710  0.05110  0.15730  1.0000 0.1347532314
H   H13       1.0  0.05110  0.12710  0.09270  1.0000 0.1347532314
H   H14       1.0  0.94890  0.87290  0.59270  1.0000 0.1347532314
H   H15       1.0  0.12710  0.94890  0.34270  1.0000 0.1347532314
H   H16       1.0  0.87290  0.05110  0.84270  1.0000 0.1347532314
H   H17       1.0  0.11730  0.05450  0.97490  1.0000 0.138542715
H   H18       1.0  0.88270  0.94550  0.47490  1.0000 0.138542715
H   H19       1.0  0.94550  0.11730  0.72490  1.0000 0.138542715
H   H20       1.0  0.05450  0.88270  0.22490  1.0000 0.138542715
H   H21       1.0  0.88270  0.05450  0.02510  1.0000 0.138542715
H   H22       1.0  0.11730  0.94550  0.52510  1.0000 0.138542715
H   H23       1.0  0.05450  0.11730  0.27510  1.0000 0.138542715
H   H24       1.0  0.94550  0.88270  0.77510  1.0000 0.138542715
H   H25       1.0  0.50000  0.81590  0.00000  1.0000 0.1217886624
H   H26       1.0  0.50000  0.18410  0.50000  1.0000 0.1217886624
H   H27       1.0  0.18410  0.50000  0.75000  1.0000 0.1217886624
H   H28       1.0  0.81590  0.50000  0.25000  1.0000 0.1217886624
H   H29       1.0  0.39310  0.47910  0.03160  1.0000 0.138542715
H   H30       1.0  0.60690  0.52090  0.53160  1.0000 0.138542715
H   H31       1.0  0.52090  0.39310  0.78160  1.0000 0.138542715
H   H32       1.0  0.47910  0.60690  0.28160  1.0000 0.138542715
H   H33       1.0  0.60690  0.47910  0.96840  1.0000 0.138542715
H   H34       1.0  0.39310  0.52090  0.46840  1.0000 0.138542715
H   H35       1.0  0.47910  0.39310  0.21840  1.0000 0.138542715
H   H36       1.0  0.52090  0.60690  0.71840  1.0000 0.138542715
C   C1        1.0  0.36820  0.05070  0.96051  1.0000 0.5859885817
C   C2        1.0  0.63180  0.94930  0.46051  1.0000 0.5859885817
C   C3        1.0  0.94930  0.36820  0.71051  1.0000 0.5859885817
C   C4        1.0  0.05070  0.63180  0.21051  1.0000 0.5859885817
C   C5        1.0  0.63180  0.05070  0.03949  1.0000 0.5859885817
C   C6        1.0  0.36820  0.94930  0.53949  1.0000 0.5859885817
C   C7        1.0  0.05070  0.36820  0.28949  1.0000 0.5859885817
C   C8        1.0  0.94930  0.63180  0.78949  1.0000 0.5859885817
C   C9        1.0  0.24490  0.08020  0.94595  1.0000 -0.0230403901
C   C10       1.0  0.75510  0.91980  0.44595  1.0000 -0.0230403901
C   C11       1.0  0.91980  0.24490  0.69595  1.0000 -0.0230403901
C   C12       1.0  0.08020  0.75510  0.19595  1.0000 -0.0230403901
C   C13       1.0  0.75510  0.08020  0.05405  1.0000 -0.0230403901
C   C14       1.0  0.24490  0.91980  0.55405  1.0000 -0.0230403901
C   C15       1.0  0.08020  0.24490  0.30405  1.0000 -0.0230403901
C   C16       1.0  0.91980  0.75510  0.80405  1.0000 -0.0230403901
C   C17       1.0  0.25480  0.11170  0.92059  1.0000 -0.090141149
C   C18       1.0  0.74520  0.88830  0.42059  1.0000 -0.090141149
C   C19       1.0  0.88830  0.25480  0.67059  1.0000 -0.090141149
C   C20       1.0  0.11170  0.74520  0.17059  1.0000 -0.090141149
C   C21       1.0  0.74520  0.11170  0.07941  1.0000 -0.090141149
C   C22       1.0  0.25480  0.88830  0.57941  1.0000 -0.090141149
C   C23       1.0  0.11170  0.25480  0.32941  1.0000 -0.090141149
C   C24       1.0  0.88830  0.74520  0.82941  1.0000 -0.090141149
C   C25       1.0  0.14230  0.13200  0.90571  1.0000 -0.0135196652
C   C26       1.0  0.85770  0.86800  0.40571  1.0000 -0.0135196652
C   C27       1.0  0.86800  0.14230  0.65571  1.0000 -0.0135196652
C   C28       1.0  0.13200  0.85770  0.15571  1.0000 -0.0135196652
C   C29       1.0  0.85770  0.13200  0.09429  1.0000 -0.0135196652
C   C30       1.0  0.14230  0.86800  0.59429  1.0000 -0.0135196652
C   C31       1.0  0.13200  0.14230  0.34429  1.0000 -0.0135196652
C   C32       1.0  0.86800  0.85770  0.84429  1.0000 -0.0135196652
C   C33       1.0  0.02330  0.11850  0.91704  1.0000 -0.090141149
C   C34       1.0  0.97670  0.88150  0.41704  1.0000 -0.090141149
C   C35       1.0  0.88150  0.02330  0.66704  1.0000 -0.090141149
C   C36       1.0  0.11850  0.97670  0.16704  1.0000 -0.090141149
C   C37       1.0  0.97670  0.11850  0.08296  1.0000 -0.090141149
C   C38       1.0  0.02330  0.88150  0.58296  1.0000 -0.090141149
C   C39       1.0  0.11850  0.02330  0.33296  1.0000 -0.090141149
C   C40       1.0  0.88150  0.97670  0.83296  1.0000 -0.090141149
C   C41       1.0  0.01250  0.09200  0.94301  1.0000 -0.0359394154
C   C42       1.0  0.98750  0.90800  0.44301  1.0000 -0.0359394154
C   C43       1.0  0.90800  0.01250  0.69301  1.0000 -0.0359394154
C   C44       1.0  0.09200  0.98750  0.19301  1.0000 -0.0359394154
C   C45       1.0  0.98750  0.09200  0.05699  1.0000 -0.0359394154
C   C46       1.0  0.01250  0.90800  0.55699  1.0000 -0.0359394154
C   C47       1.0  0.09200  0.01250  0.30699  1.0000 -0.0359394154
C   C48       1.0  0.90800  0.98750  0.80699  1.0000 -0.0359394154
C   C49       1.0  0.12380  0.07250  0.95758  1.0000 -0.090141149
C   C50       1.0  0.87620  0.92750  0.45758  1.0000 -0.090141149
C   C51       1.0  0.92750  0.12380  0.70758  1.0000 -0.090141149
C   C52       1.0  0.07250  0.87620  0.20758  1.0000 -0.090141149
C   C53       1.0  0.87620  0.07250  0.04242  1.0000 -0.090141149
C   C54       1.0  0.12380  0.92750  0.54242  1.0000 -0.090141149
C   C55       1.0  0.07250  0.12380  0.29242  1.0000 -0.090141149
C   C56       1.0  0.92750  0.87620  0.79242  1.0000 -0.090141149
C   C57       1.0  0.15210  0.16660  0.87792  1.0000 0.5393715841
C   C58       1.0  0.84790  0.83340  0.37792  1.0000 0.5393715841
C   C59       1.0  0.83340  0.15210  0.62792  1.0000 0.5393715841
C   C60       1.0  0.16660  0.84790  0.12792  1.0000 0.5393715841
C   C61       1.0  0.84790  0.16660  0.12208  1.0000 0.5393715841
C   C62       1.0  0.15210  0.83340  0.62208  1.0000 0.5393715841
C   C63       1.0  0.16660  0.15210  0.37208  1.0000 0.5393715841
C   C64       1.0  0.83340  0.84790  0.87208  1.0000 0.5393715841
C   C65       1.0  0.88210  0.08050  0.95441  1.0000 0.5551868124
C   C66       1.0  0.11790  0.91950  0.45441  1.0000 0.5551868124
C   C67       1.0  0.91950  0.88210  0.70441  1.0000 0.5551868124
C   C68       1.0  0.08050  0.11790  0.20441  1.0000 0.5551868124
C   C69       1.0  0.11790  0.08050  0.04559  1.0000 0.5551868124
C   C70       1.0  0.88210  0.91950  0.54559  1.0000 0.5551868124
C   C71       1.0  0.08050  0.88210  0.29559  1.0000 0.5551868124
C   C72       1.0  0.91950  0.11790  0.79559  1.0000 0.5551868124
C   C73       1.0  0.36590  0.72970  0.03987  1.0000 0.5859885817
C   C74       1.0  0.63410  0.27030  0.53987  1.0000 0.5859885817
C   C75       1.0  0.27030  0.36590  0.78987  1.0000 0.5859885817
C   C76       1.0  0.72970  0.63410  0.28987  1.0000 0.5859885817
C   C77       1.0  0.63410  0.72970  0.96013  1.0000 0.5859885817
C   C78       1.0  0.36590  0.27030  0.46013  1.0000 0.5859885817
C   C79       1.0  0.72970  0.36590  0.21013  1.0000 0.5859885817
C   C80       1.0  0.27030  0.63410  0.71013  1.0000 0.5859885817
C   C81       1.0  0.43360  0.65780  0.01885  1.0000 -0.0230403901
C   C82       1.0  0.56640  0.34220  0.51885  1.0000 -0.0230403901
C   C83       1.0  0.34220  0.43360  0.76885  1.0000 -0.0230403901
C   C84       1.0  0.65780  0.56640  0.26885  1.0000 -0.0230403901
C   C85       1.0  0.56640  0.65780  0.98115  1.0000 -0.0230403901
C   C86       1.0  0.43360  0.34220  0.48115  1.0000 -0.0230403901
C   C87       1.0  0.65780  0.43360  0.23115  1.0000 -0.0230403901
C   C88       1.0  0.34220  0.56640  0.73115  1.0000 -0.0230403901
C   C89       1.0  0.50000  0.72600  0.00000  1.0000 -0.090141149
C   C90       1.0  0.50000  0.27400  0.50000  1.0000 -0.090141149
C   C91       1.0  0.27400  0.50000  0.75000  1.0000 -0.090141149
C   C92       1.0  0.72600  0.50000  0.25000  1.0000 -0.090141149
C   C93       1.0  0.43560  0.52450  0.01879  1.0000 -0.090141149
C   C94       1.0  0.56440  0.47550  0.51879  1.0000 -0.090141149
C   C95       1.0  0.47550  0.43560  0.76879  1.0000 -0.090141149
C   C96       1.0  0.52450  0.56440  0.26879  1.0000 -0.090141149
C   C97       1.0  0.56440  0.52450  0.98121  1.0000 -0.090141149
C   C98       1.0  0.43560  0.47550  0.48121  1.0000 -0.090141149
C   C99       1.0  0.52450  0.43560  0.23121  1.0000 -0.090141149
C   C100      1.0  0.47550  0.56440  0.73121  1.0000 -0.090141149
C   C101      1.0  0.50000  0.45840  0.00000  1.0000 -0.0277977744
C   C102      1.0  0.50000  0.54160  0.50000  1.0000 -0.0277977744
C   C103      1.0  0.54160  0.50000  0.75000  1.0000 -0.0277977744
C   C104      1.0  0.45840  0.50000  0.25000  1.0000 -0.0277977744
C   C105      1.0  0.50000  0.31100  0.00000  1.0000 0.60040943
C   C106      1.0  0.50000  0.68900  0.50000  1.0000 0.60040943
C   C107      1.0  0.68900  0.50000  0.75000  1.0000 0.60040943
C   C108      1.0  0.31100  0.50000  0.25000  1.0000 0.60040943
O   O1        1.0  0.35950  0.00370  0.98233  1.0000 -0.5704167667
O   O2        1.0  0.64050  0.99630  0.48233  1.0000 -0.5704167667
O   O3        1.0  0.99630  0.35950  0.73233  1.0000 -0.5704167667
O   O4        1.0  0.00370  0.64050  0.23233  1.0000 -0.5704167667
O   O5        1.0  0.64050  0.00370  0.01767  1.0000 -0.5704167667
O   O6        1.0  0.35950  0.99630  0.51767  1.0000 -0.5704167667
O   O7        1.0  0.00370  0.35950  0.26767  1.0000 -0.5704167667
O   O8        1.0  0.99630  0.64050  0.76767  1.0000 -0.5704167667
O   O9        1.0  0.47140  0.07180  0.94956  1.0000 -0.5059987786
O   O10       1.0  0.52860  0.92820  0.44956  1.0000 -0.5059987786
O   O11       1.0  0.92820  0.47140  0.69956  1.0000 -0.5059987786
O   O12       1.0  0.07180  0.52860  0.19956  1.0000 -0.5059987786
O   O13       1.0  0.52860  0.07180  0.05044  1.0000 -0.5059987786
O   O14       1.0  0.47140  0.92820  0.55044  1.0000 -0.5059987786
O   O15       1.0  0.07180  0.47140  0.30044  1.0000 -0.5059987786
O   O16       1.0  0.92820  0.52860  0.80044  1.0000 -0.5059987786
O   O17       1.0  0.25800  0.18360  0.86790  1.0000 -0.4766047238
O   O18       1.0  0.74200  0.81640  0.36790  1.0000 -0.4766047238
O   O19       1.0  0.81640  0.25800  0.61790  1.0000 -0.4766047238
O   O20       1.0  0.18360  0.74200  0.11790  1.0000 -0.4766047238
O   O21       1.0  0.74200  0.18360  0.13210  1.0000 -0.4766047238
O   O22       1.0  0.25800  0.81640  0.63210  1.0000 -0.4766047238
O   O23       1.0  0.18360  0.25800  0.38210  1.0000 -0.4766047238
O   O24       1.0  0.81640  0.74200  0.88210  1.0000 -0.4766047238
O   O25       1.0  0.05160  0.18240  0.86602  1.0000 -0.4766047238
O   O26       1.0  0.94840  0.81760  0.36602  1.0000 -0.4766047238
O   O27       1.0  0.81760  0.05160  0.61602  1.0000 -0.4766047238
O   O28       1.0  0.18240  0.94840  0.11602  1.0000 -0.4766047238
O   O29       1.0  0.94840  0.18240  0.13398  1.0000 -0.4766047238
O   O30       1.0  0.05160  0.81760  0.63398  1.0000 -0.4766047238
O   O31       1.0  0.18240  0.05160  0.38398  1.0000 -0.4766047238
O   O32       1.0  0.81760  0.94840  0.88398  1.0000 -0.4766047238
O   O33       1.0  0.86820  0.08740  0.97835  1.0000 -0.5034459433
O   O34       1.0  0.13180  0.91260  0.47835  1.0000 -0.5034459433
O   O35       1.0  0.91260  0.86820  0.72835  1.0000 -0.5034459433
O   O36       1.0  0.08740  0.13180  0.22835  1.0000 -0.5034459433
O   O37       1.0  0.13180  0.08740  0.02165  1.0000 -0.5034459433
O   O38       1.0  0.86820  0.91260  0.52165  1.0000 -0.5034459433
O   O39       1.0  0.08740  0.86820  0.27165  1.0000 -0.5034459433
O   O40       1.0  0.91260  0.13180  0.77165  1.0000 -0.5034459433
O   O41       1.0  0.78510  0.06480  0.93981  1.0000 -0.5704167667
O   O42       1.0  0.21490  0.93520  0.43981  1.0000 -0.5704167667
O   O43       1.0  0.93520  0.78510  0.68981  1.0000 -0.5704167667
O   O44       1.0  0.06480  0.21490  0.18981  1.0000 -0.5704167667
O   O45       1.0  0.21490  0.06480  0.06019  1.0000 -0.5704167667
O   O46       1.0  0.78510  0.93520  0.56019  1.0000 -0.5704167667
O   O47       1.0  0.06480  0.78510  0.31019  1.0000 -0.5704167667
O   O48       1.0  0.93520  0.21490  0.81019  1.0000 -0.5704167667
O   O49       1.0  0.34180  0.84850  0.03678  1.0000 -0.585514042
O   O50       1.0  0.65820  0.15150  0.53678  1.0000 -0.585514042
O   O51       1.0  0.15150  0.34180  0.78678  1.0000 -0.585514042
O   O52       1.0  0.84850  0.65820  0.28678  1.0000 -0.585514042
O   O53       1.0  0.65820  0.84850  0.96322  1.0000 -0.585514042
O   O54       1.0  0.34180  0.15150  0.46322  1.0000 -0.585514042
O   O55       1.0  0.84850  0.34180  0.21322  1.0000 -0.585514042
O   O56       1.0  0.15150  0.65820  0.71322  1.0000 -0.585514042
O   O57       1.0  0.33150  0.67090  0.05928  1.0000 -0.5034459433
O   O58       1.0  0.66850  0.32910  0.55928  1.0000 -0.5034459433
O   O59       1.0  0.32910  0.33150  0.80928  1.0000 -0.5034459433
O   O60       1.0  0.67090  0.66850  0.30928  1.0000 -0.5034459433
O   O61       1.0  0.66850  0.67090  0.94072  1.0000 -0.5034459433
O   O62       1.0  0.33150  0.32910  0.44072  1.0000 -0.5034459433
O   O63       1.0  0.67090  0.33150  0.19072  1.0000 -0.5034459433
O   O64       1.0  0.32910  0.66850  0.69072  1.0000 -0.5034459433
O   O65       1.0  0.40880  0.25790  0.01150  1.0000 -0.5416440326
O   O66       1.0  0.59120  0.74210  0.51150  1.0000 -0.5416440326
O   O67       1.0  0.74210  0.40880  0.76150  1.0000 -0.5416440326
O   O68       1.0  0.25790  0.59120  0.26150  1.0000 -0.5416440326
O   O69       1.0  0.59120  0.25790  0.98850  1.0000 -0.5416440326
O   O70       1.0  0.40880  0.74210  0.48850  1.0000 -0.5416440326
O   O71       1.0  0.25790  0.40880  0.23850  1.0000 -0.5416440326
O   O72       1.0  0.74210  0.59120  0.73850  1.0000 -0.5416440326
