# DDEC6 charges by PACMAN v1.1 (https://github.com/mtap-research/PACMAN-charge/)
data_2006[Nd][nan]3[ASR]2
_chemical_formula_sum              "Nd2 P6 H42 C18 N6 O18"
_cell_length_a       9.547
_cell_length_b       11.499
_cell_length_c       11.592
_cell_angle_alpha    108.941
_cell_angle_beta     111.851
_cell_angle_gamma    92.174

_symmetry_space_group_name_H-M    "P 1"
_symmetry_Int_Tables_number       1

loop_
  _symmetry_equiv_pos_as_xyz
  'x, y, z'

loop_
  _atom_site_type_symbol
  _atom_site_label
  _atom_site_symmetry_multiplicity
  _atom_site_fract_x
  _atom_site_fract_y
  _atom_site_fract_z
  _atom_site_occupancy
  _atom_site_charge
Nd  Nd1       1.0  0.72465  0.98011  0.52937  1.0000 2.232703562
Nd  Nd2       1.0  0.27535  0.01989  0.47063  1.0000 2.232703562
P   P1        1.0  0.41640  0.10024  0.28697  1.0000 1.2806373789
P   P2        1.0  0.58360  0.89976  0.71303  1.0000 1.2806373789
P   P3        1.0  0.38287  0.73928  0.29054  1.0000 1.3328584387
P   P4        1.0  0.61713  0.26072  0.70946  1.0000 1.3328584387
P   P5        1.0  0.05928  0.95281  0.64752  1.0000 1.2935769513
P   P6        1.0  0.94072  0.04719  0.35248  1.0000 1.2935769513
H   H1        1.0  0.58302  0.36157  0.54707  1.0000 0.256963241
H   H2        1.0  0.41698  0.63843  0.45293  1.0000 0.256963241
H   H3        1.0  0.35468  0.50362  0.08033  1.0000 0.2360497817
H   H4        1.0  0.64532  0.49638  0.91967  1.0000 0.2360497817
H   H5        1.0  0.90401  0.92740  0.80637  1.0000 0.256963241
H   H6        1.0  0.09599  0.07260  0.19363  1.0000 0.256963241
H   H7        1.0  0.63363  0.25009  0.33836  1.0000 0.140160653
H   H8        1.0  0.36637  0.74991  0.66164  1.0000 0.140160653
H   H9        1.0  0.46002  0.28309  0.23497  1.0000 0.1131097666
H   H10       1.0  0.53998  0.71691  0.76503  1.0000 0.1131097666
H   H11       1.0  0.21550  0.66058  0.04997  1.0000 0.140160653
H   H12       1.0  0.78450  0.33942  0.95003  1.0000 0.140160653
H   H13       1.0  0.38735  0.76484  0.09089  1.0000 0.1493688851
H   H14       1.0  0.61265  0.23516  0.90911  1.0000 0.1493688851
H   H15       1.0  0.29916  0.31826  0.42757  1.0000 0.1322631493
H   H16       1.0  0.70084  0.68174  0.57243  1.0000 0.1322631493
H   H17       1.0  0.30998  0.41402  0.33485  1.0000 0.1000038946
H   H18       1.0  0.69002  0.58598  0.66515  1.0000 0.1000038946
H   H19       1.0  0.56637  0.49902  0.35844  1.0000 0.0892823815
H   H20       1.0  0.43363  0.50098  0.64156  1.0000 0.0892823815
H   H21       1.0  0.73438  0.46100  0.46648  1.0000 0.1131097666
H   H22       1.0  0.26562  0.53900  0.53352  1.0000 0.1131097666
H   H23       1.0  0.41931  0.61231  0.90082  1.0000 0.1000038946
H   H24       1.0  0.58069  0.38769  0.09918  1.0000 0.1000038946
H   H25       1.0  0.24176  0.52044  0.86134  1.0000 0.1131097666
H   H26       1.0  0.75824  0.47956  0.13866  1.0000 0.1131097666
H   H27       1.0  0.60235  0.61705  0.24567  1.0000 0.1322631493
H   H28       1.0  0.39765  0.38295  0.75433  1.0000 0.1322631493
H   H29       1.0  0.63500  0.66906  0.13024  1.0000 0.1210009559
H   H30       1.0  0.36500  0.33094  0.86976  1.0000 0.1210009559
H   H31       1.0  0.10789  0.81238  0.76566  1.0000 0.1322631493
H   H32       1.0  0.89211  0.18762  0.23434  1.0000 0.1322631493
H   H33       1.0  0.24813  0.95382  0.86618  1.0000 0.1493688851
H   H34       1.0  0.75187  0.04618  0.13382  1.0000 0.1493688851
H   H35       1.0  0.02302  0.78242  0.90606  1.0000 0.1000038946
H   H36       1.0  0.97698  0.21758  0.09394  1.0000 0.1000038946
H   H37       1.0  0.17112  0.90753  0.04076  1.0000 0.1131097666
H   H38       1.0  0.82888  0.09247  0.95924  1.0000 0.1131097666
H   H39       1.0  0.18065  0.11606  0.03244  1.0000 0.1000038946
H   H40       1.0  0.81935  0.88394  0.96756  1.0000 0.1000038946
H   H41       1.0  0.03937  0.14070  0.88941  1.0000 0.1322631493
H   H42       1.0  0.96063  0.85930  0.11059  1.0000 0.1322631493
C   C1        1.0  0.51429  0.25942  0.32534  1.0000 -0.3543821619
C   C2        1.0  0.48571  0.74058  0.67466  1.0000 -0.3543821619
C   C3        1.0  0.34059  0.68733  0.11104  1.0000 -0.3720430628
C   C4        1.0  0.65941  0.31267  0.88896  1.0000 -0.3720430628
C   C5        1.0  0.36705  0.39993  0.43060  1.0000 -0.0881956104
C   C6        1.0  0.63295  0.60007  0.56940  1.0000 -0.0881956104
C   C7        1.0  0.61950  0.48336  0.45356  1.0000 -0.0800109849
C   C8        1.0  0.38050  0.51664  0.54644  1.0000 -0.0800109849
C   C9        1.0  0.36736  0.53250  0.91416  1.0000 -0.1065883757
C   C10       1.0  0.63264  0.46750  0.08584  1.0000 -0.1065883757
C   C11       1.0  0.57803  0.58805  0.13818  1.0000 -0.1065883757
C   C12       1.0  0.42197  0.41195  0.86182  1.0000 -0.1065883757
C   C13       1.0  0.12550  0.91583  0.80019  1.0000 -0.3435137764
C   C14       1.0  0.87450  0.08417  0.19981  1.0000 -0.3435137764
C   C15       1.0  0.04879  0.88234  0.96975  1.0000 -0.0881956104
C   C16       1.0  0.95121  0.11766  0.03025  1.0000 -0.0881956104
C   C17       1.0  0.05914  0.09085  0.95963  1.0000 -0.0881956104
C   C18       1.0  0.94086  0.90915  0.04037  1.0000 -0.0881956104
N   N1        1.0  0.52263  0.37091  0.44276  1.0000 0.0077110314
N   N2        1.0  0.47737  0.62909  0.55724  1.0000 0.0077110314
N   N3        1.0  0.40688  0.57295  0.06215  1.0000 0.0267047883
N   N4        1.0  0.59312  0.42705  0.93785  1.0000 0.0267047883
N   N5        1.0  0.02896  0.95353  0.87873  1.0000 0.0077110314
N   N6        1.0  0.97104  0.04647  0.12127  1.0000 0.0077110314
O   O1        1.0  0.50703  0.06499  0.40799  1.0000 -0.9102126107
O   O2        1.0  0.49297  0.93501  0.59201  1.0000 -0.9102126107
O   O3        1.0  0.25535  0.11391  0.29041  1.0000 -0.8292907224
O   O4        1.0  0.74465  0.88609  0.70959  1.0000 -0.8292907224
O   O5        1.0  0.41124  0.02605  0.15242  1.0000 -0.7409496651
O   O6        1.0  0.58876  0.97395  0.84758  1.0000 -0.7409496651
O   O7        1.0  0.55578  0.78626  0.35903  1.0000 -0.8601077244
O   O8        1.0  0.44422  0.21374  0.64097  1.0000 -0.8601077244
O   O9        1.0  0.27530  0.83142  0.29993  1.0000 -0.8525067613
O   O10       1.0  0.72470  0.16858  0.70007  1.0000 -0.8525067613
O   O11       1.0  0.34115  0.61925  0.31369  1.0000 -0.770568882
O   O12       1.0  0.65885  0.38075  0.68631  1.0000 -0.770568882
O   O13       1.0  0.99993  0.07606  0.68087  1.0000 -0.8292907224
O   O14       1.0  0.00007  0.92394  0.31913  1.0000 -0.8292907224
O   O15       1.0  0.20064  0.95907  0.61706  1.0000 -0.8410442219
O   O16       1.0  0.79936  0.04093  0.38294  1.0000 -0.8410442219
O   O17       1.0  0.92231  0.84611  0.54634  1.0000 -0.8410442219
O   O18       1.0  0.07769  0.15389  0.45366  1.0000 -0.8410442219
