# DDEC6 charges by PACMAN v1.1 (https://github.com/mtap-research/PACMAN-charge/)
data_2006[Dy][nan]3[ASR]1
_chemical_formula_sum              "Dy8 H144 C288 N24 Cl6 O48"
_cell_length_a       16.1558
_cell_length_b       16.1558
_cell_length_c       30.9598
_cell_angle_alpha    79.1811
_cell_angle_beta     100.819
_cell_angle_gamma    84.169

_symmetry_space_group_name_H-M    "P 1"
_symmetry_Int_Tables_number       1

loop_
  _symmetry_equiv_pos_as_xyz
  'x, y, z'

loop_
  _atom_site_type_symbol
  _atom_site_label
  _atom_site_symmetry_multiplicity
  _atom_site_fract_x
  _atom_site_fract_y
  _atom_site_fract_z
  _atom_site_occupancy
  _atom_site_charge
Dy  Dy1       1.0  0.64029  0.81355  0.69884  1.0000 2.1043439246
Dy  Dy2       1.0  0.81355  0.64029  0.80116  1.0000 2.105011735
Dy  Dy3       1.0  0.35971  0.18645  0.30116  1.0000 2.105011735
Dy  Dy4       1.0  0.18645  0.35971  0.19884  1.0000 2.105011735
Dy  Dy5       1.0  0.63186  0.98570  0.58735  1.0000 1.9615829325
Dy  Dy6       1.0  0.98570  0.63186  0.91265  1.0000 1.9615829325
Dy  Dy7       1.0  0.36814  0.01430  0.41265  1.0000 1.9615829325
Dy  Dy8       1.0  0.01430  0.36814  0.08735  1.0000 1.9615829325
H   H1        1.0  0.30490  0.51690  0.44520  1.0000 0.1298305828
H   H2        1.0  0.51690  0.30490  0.05480  1.0000 0.1298305828
H   H3        1.0  0.69510  0.48310  0.55480  1.0000 0.1298305828
H   H4        1.0  0.48310  0.69510  0.94520  1.0000 0.1298305828
H   H5        1.0  0.37030  0.60010  0.49760  1.0000 0.1387772208
H   H6        1.0  0.60010  0.37030  0.00240  1.0000 0.1387772208
H   H7        1.0  0.62970  0.39990  0.50240  1.0000 0.1387772208
H   H8        1.0  0.39990  0.62970  0.99760  1.0000 0.1387772208
H   H9        1.0  0.28340  0.70000  0.64060  1.0000 0.1298305828
H   H10       1.0  0.70000  0.28340  0.85940  1.0000 0.1298305828
H   H11       1.0  0.71660  0.30000  0.35940  1.0000 0.1298305828
H   H12       1.0  0.30000  0.71660  0.14060  1.0000 0.1298305828
H   H13       1.0  0.19410  0.64650  0.69330  1.0000 0.1298305828
H   H14       1.0  0.64650  0.19410  0.80670  1.0000 0.1298305828
H   H15       1.0  0.80590  0.35350  0.30670  1.0000 0.1298305828
H   H16       1.0  0.35350  0.80590  0.19330  1.0000 0.1298305828
H   H17       1.0  0.04780  0.36260  0.71600  1.0000 0.1298305828
H   H18       1.0  0.36260  0.04780  0.78400  1.0000 0.1298305828
H   H19       1.0  0.95220  0.63740  0.28400  1.0000 0.1298305828
H   H20       1.0  0.63740  0.95220  0.21600  1.0000 0.1298305828
H   H21       1.0  0.98970  0.27190  0.66480  1.0000 0.1298305828
H   H22       1.0  0.27190  0.98970  0.83520  1.0000 0.1298305828
H   H23       1.0  0.01030  0.72810  0.33520  1.0000 0.1298305828
H   H24       1.0  0.72810  0.01030  0.16480  1.0000 0.1298305828
H   H25       1.0  0.93050  0.32130  0.48280  1.0000 0.1298305828
H   H26       1.0  0.32130  0.93050  0.01720  1.0000 0.1298305828
H   H27       1.0  0.06950  0.67870  0.51720  1.0000 0.1298305828
H   H28       1.0  0.67870  0.06950  0.98280  1.0000 0.1298305828
H   H29       1.0  0.01650  0.37550  0.42800  1.0000 0.1298305828
H   H30       1.0  0.37550  0.01650  0.07200  1.0000 0.1298305828
H   H31       1.0  0.98350  0.62450  0.57200  1.0000 0.1298305828
H   H32       1.0  0.62450  0.98350  0.92800  1.0000 0.1298305828
H   H33       1.0  0.27650  0.77450  0.53190  1.0000 0.1298305828
H   H34       1.0  0.77450  0.27650  0.96810  1.0000 0.1298305828
H   H35       1.0  0.72350  0.22550  0.46810  1.0000 0.1298305828
H   H36       1.0  0.22550  0.72350  0.03190  1.0000 0.1298305828
H   H37       1.0  0.36710  0.87230  0.54320  1.0000 0.1387772208
H   H38       1.0  0.87230  0.36710  0.95680  1.0000 0.1387772208
H   H39       1.0  0.63290  0.12770  0.45680  1.0000 0.1387772208
H   H40       1.0  0.12770  0.63290  0.04320  1.0000 0.1387772208
H   H41       1.0  0.54490  0.68230  0.62270  1.0000 0.1186521549
H   H42       1.0  0.68230  0.54490  0.87730  1.0000 0.1186521549
H   H43       1.0  0.45510  0.31770  0.37730  1.0000 0.1186521549
H   H44       1.0  0.31770  0.45510  0.12270  1.0000 0.1186521549
H   H45       1.0  0.45230  0.58470  0.61030  1.0000 0.1186521549
H   H46       1.0  0.58470  0.45230  0.88970  1.0000 0.1186521549
H   H47       1.0  0.54770  0.41530  0.38970  1.0000 0.1186521549
H   H48       1.0  0.41530  0.54770  0.11030  1.0000 0.1186521549
H   H49       1.0  0.17330  0.41790  0.76180  1.0000 0.1113113901
H   H50       1.0  0.41790  0.17330  0.73820  1.0000 0.1113113901
H   H51       1.0  0.82670  0.58210  0.23820  1.0000 0.1113113901
H   H52       1.0  0.58210  0.82670  0.26180  1.0000 0.1113113901
H   H53       1.0  0.14030  0.44770  0.82790  1.0000 0.1113113901
H   H54       1.0  0.44770  0.14030  0.67210  1.0000 0.1113113901
H   H55       1.0  0.85970  0.55230  0.17210  1.0000 0.1113113901
H   H56       1.0  0.55230  0.85970  0.32790  1.0000 0.1113113901
H   H57       1.0  0.99370  0.66510  0.75640  1.0000 0.1298305828
H   H58       1.0  0.66510  0.99370  0.74360  1.0000 0.1298305828
H   H59       1.0  0.00630  0.33490  0.24360  1.0000 0.1298305828
H   H60       1.0  0.33490  0.00630  0.25640  1.0000 0.1298305828
H   H61       1.0  0.02540  0.63440  0.68980  1.0000 0.1186521549
H   H62       1.0  0.63440  0.02540  0.81020  1.0000 0.1186521549
H   H63       1.0  0.97460  0.36560  0.31020  1.0000 0.1186521549
H   H64       1.0  0.36560  0.97460  0.18980  1.0000 0.1186521549
H   H65       1.0  0.85120  0.34180  0.60020  1.0000 0.1113113901
H   H66       1.0  0.34180  0.85120  0.89980  1.0000 0.1113113901
H   H67       1.0  0.14880  0.65820  0.39980  1.0000 0.1113113901
H   H68       1.0  0.65820  0.14880  0.10020  1.0000 0.1113113901
H   H69       1.0  0.75380  0.24660  0.60590  1.0000 0.1186521549
H   H70       1.0  0.24660  0.75380  0.89410  1.0000 0.1186521549
H   H71       1.0  0.24620  0.75340  0.39410  1.0000 0.1186521549
H   H72       1.0  0.75340  0.24620  0.10590  1.0000 0.1186521549
H   H73       1.0  0.89870  0.08810  0.55230  1.0000 0.1298305828
H   H74       1.0  0.08810  0.89870  0.94770  1.0000 0.1298305828
H   H75       1.0  0.10130  0.91190  0.44770  1.0000 0.1298305828
H   H76       1.0  0.91190  0.10130  0.05230  1.0000 0.1298305828
H   H77       1.0  0.99630  0.18490  0.55050  1.0000 0.1186521549
H   H78       1.0  0.18490  0.99630  0.94950  1.0000 0.1186521549
H   H79       1.0  0.00370  0.81510  0.44950  1.0000 0.1186521549
H   H80       1.0  0.81510  0.00370  0.05050  1.0000 0.1186521549
H   H81       1.0  0.27260  0.33480  0.45090  1.0000 0.1113113901
H   H82       1.0  0.33480  0.27260  0.04910  1.0000 0.1113113901
H   H83       1.0  0.72740  0.66520  0.54910  1.0000 0.1113113901
H   H84       1.0  0.66520  0.72740  0.95090  1.0000 0.1113113901
H   H85       1.0  0.29330  0.29790  0.38320  1.0000 0.1298305828
H   H86       1.0  0.29790  0.29330  0.11680  1.0000 0.1298305828
H   H87       1.0  0.70670  0.70210  0.61680  1.0000 0.1298305828
H   H88       1.0  0.70210  0.70670  0.88320  1.0000 0.1298305828
H   H89       1.0  0.10020  0.48140  0.31440  1.0000 0.1113113901
H   H90       1.0  0.48140  0.10020  0.18560  1.0000 0.1113113901
H   H91       1.0  0.89980  0.51860  0.68560  1.0000 0.1113113901
H   H92       1.0  0.51860  0.89980  0.81440  1.0000 0.1113113901
H   H93       1.0  0.07940  0.51740  0.38050  1.0000 0.1113113901
H   H94       1.0  0.51740  0.07940  0.11950  1.0000 0.1113113901
H   H95       1.0  0.92060  0.48260  0.61950  1.0000 0.1113113901
H   H96       1.0  0.48260  0.92060  0.88050  1.0000 0.1113113901
H   H97       1.0  0.05820  0.02460  0.66770  1.0000 0.1387772208
H   H98       1.0  0.02460  0.05820  0.83230  1.0000 0.1387772208
H   H99       1.0  0.94180  0.97540  0.33230  1.0000 0.1387772208
H   H100      1.0  0.97540  0.94180  0.16770  1.0000 0.1387772208
H   H101      1.0  0.14220  0.08740  0.61450  1.0000 0.1387772208
H   H102      1.0  0.08740  0.14220  0.88550  1.0000 0.1387772208
H   H103      1.0  0.85780  0.91260  0.38550  1.0000 0.1387772208
H   H104      1.0  0.91260  0.85780  0.11450  1.0000 0.1387772208
H   H105      1.0  0.35110  0.31910  0.61110  1.0000 0.1387772208
H   H106      1.0  0.31910  0.35110  0.88890  1.0000 0.1387772208
H   H107      1.0  0.64890  0.68090  0.38890  1.0000 0.1387772208
H   H108      1.0  0.68090  0.64890  0.11110  1.0000 0.1387772208
H   H109      1.0  0.41240  0.40720  0.66310  1.0000 0.1298305828
H   H110      1.0  0.40720  0.41240  0.83690  1.0000 0.1298305828
H   H111      1.0  0.58760  0.59280  0.33690  1.0000 0.1298305828
H   H112      1.0  0.59280  0.58760  0.16310  1.0000 0.1298305828
H   H113      1.0  0.92180  0.09600  0.70550  1.0000 0.1186521549
H   H114      1.0  0.09600  0.92180  0.79450  1.0000 0.1186521549
H   H115      1.0  0.07820  0.90400  0.29450  1.0000 0.1186521549
H   H116      1.0  0.90400  0.07820  0.20550  1.0000 0.1186521549
H   H117      1.0  0.82270  0.00010  0.70500  1.0000 0.1298305828
H   H118      1.0  0.00010  0.82270  0.79500  1.0000 0.1298305828
H   H119      1.0  0.17730  0.99990  0.29500  1.0000 0.1298305828
H   H120      1.0  0.99990  0.17730  0.20500  1.0000 0.1298305828
H   H121      1.0  0.16680  0.27700  0.56260  1.0000 0.1113113901
H   H122      1.0  0.27700  0.16680  0.93740  1.0000 0.1113113901
H   H123      1.0  0.83320  0.72300  0.43740  1.0000 0.1113113901
H   H124      1.0  0.72300  0.83320  0.06260  1.0000 0.1113113901
H   H125      1.0  0.17460  0.24620  0.49410  1.0000 0.1033099926
H   H126      1.0  0.24620  0.17460  0.00590  1.0000 0.1033099926
H   H127      1.0  0.82540  0.75380  0.50590  1.0000 0.1033099926
H   H128      1.0  0.75380  0.82540  0.99410  1.0000 0.1033099926
H   H129      1.0  0.37470  0.06450  0.55420  1.0000 0.1298305828
H   H130      1.0  0.06450  0.37470  0.94580  1.0000 0.1298305828
H   H131      1.0  0.62530  0.93550  0.44580  1.0000 0.1298305828
H   H132      1.0  0.93550  0.62530  0.05420  1.0000 0.1298305828
H   H133      1.0  0.35740  0.09080  0.62410  1.0000 0.1113113901
H   H134      1.0  0.09080  0.35740  0.87590  1.0000 0.1113113901
H   H135      1.0  0.64260  0.90920  0.37590  1.0000 0.1113113901
H   H136      1.0  0.90920  0.64260  0.12410  1.0000 0.1113113901
H   H137      1.0  0.35710  0.53150  0.70420  1.0000 0.1113113901
H   H138      1.0  0.53150  0.35710  0.79580  1.0000 0.1113113901
H   H139      1.0  0.64290  0.46850  0.29580  1.0000 0.1113113901
H   H140      1.0  0.46850  0.64290  0.20420  1.0000 0.1113113901
H   H141      1.0  0.45400  0.62640  0.70260  1.0000 0.1113113901
H   H142      1.0  0.62640  0.45400  0.79740  1.0000 0.1113113901
H   H143      1.0  0.54600  0.37360  0.29740  1.0000 0.1113113901
H   H144      1.0  0.37360  0.54600  0.20260  1.0000 0.1113113901
C   C1        1.0  0.21800  0.49180  0.48875  1.0000 0.1506237685
C   C2        1.0  0.49180  0.21800  0.01125  1.0000 0.1506237685
C   C3        1.0  0.78200  0.50820  0.51125  1.0000 0.1506237685
C   C4        1.0  0.50820  0.78200  0.98875  1.0000 0.1506237685
C   C5        1.0  0.28740  0.52540  0.47190  1.0000 -0.1793996181
C   C6        1.0  0.52540  0.28740  0.02810  1.0000 -0.1793996181
C   C7        1.0  0.71260  0.47460  0.52810  1.0000 -0.1793996181
C   C8        1.0  0.47460  0.71260  0.97190  1.0000 -0.1793996181
C   C9        1.0  0.32290  0.57050  0.50010  1.0000 -0.1793996181
C   C10       1.0  0.57050  0.32290  0.99990  1.0000 -0.1793996181
C   C11       1.0  0.67710  0.42950  0.49990  1.0000 -0.1793996181
C   C12       1.0  0.42950  0.67710  0.00010  1.0000 -0.1793996181
C   C13       1.0  0.27570  0.56590  0.53550  1.0000 0.1589941269
C   C14       1.0  0.56590  0.27570  0.96450  1.0000 0.1589941269
C   C15       1.0  0.72430  0.43410  0.46450  1.0000 0.1589941269
C   C16       1.0  0.43410  0.72430  0.03550  1.0000 0.1589941269
C   C17       1.0  0.28800  0.61160  0.57040  1.0000 -0.0785031832
C   C18       1.0  0.61160  0.28800  0.92960  1.0000 -0.0785031832
C   C19       1.0  0.71200  0.38840  0.42960  1.0000 -0.0785031832
C   C20       1.0  0.38840  0.71200  0.07040  1.0000 -0.0699935219
C   C21       1.0  0.24070  0.60570  0.60408  1.0000 0.1589941269
C   C22       1.0  0.60570  0.24070  0.89592  1.0000 0.1589941269
C   C23       1.0  0.75930  0.39430  0.39592  1.0000 0.1589941269
C   C24       1.0  0.39430  0.75930  0.10408  1.0000 0.1589941269
C   C25       1.0  0.24980  0.65540  0.63860  1.0000 -0.1793996181
C   C26       1.0  0.65540  0.24980  0.86140  1.0000 -0.1793996181
C   C27       1.0  0.75020  0.34460  0.36140  1.0000 -0.1793996181
C   C28       1.0  0.34460  0.75020  0.13860  1.0000 -0.1793996181
C   C29       1.0  0.20130  0.62590  0.66720  1.0000 -0.1887355721
C   C30       1.0  0.62590  0.20130  0.83280  1.0000 -0.1887355721
C   C31       1.0  0.79870  0.37410  0.33280  1.0000 -0.1887355721
C   C32       1.0  0.37410  0.79870  0.16720  1.0000 -0.1887355721
C   C33       1.0  0.16220  0.55780  0.65148  1.0000 0.1387772208
C   C34       1.0  0.55780  0.16220  0.84852  1.0000 0.1387772208
C   C35       1.0  0.83780  0.44220  0.34852  1.0000 0.1387772208
C   C36       1.0  0.44220  0.83780  0.15148  1.0000 0.1387772208
C   C37       1.0  0.11810  0.50270  0.67567  1.0000 -0.0627624869
C   C38       1.0  0.50270  0.11810  0.82433  1.0000 -0.0627624869
C   C39       1.0  0.88190  0.49730  0.32433  1.0000 -0.0627624869
C   C40       1.0  0.49730  0.88190  0.17567  1.0000 -0.0627624869
C   C41       1.0  0.08670  0.43190  0.66037  1.0000 0.1506237685
C   C42       1.0  0.43190  0.08670  0.83963  1.0000 0.1506237685
C   C43       1.0  0.91330  0.56810  0.33963  1.0000 0.1506237685
C   C44       1.0  0.56810  0.91330  0.16037  1.0000 0.1506237685
C   C45       1.0  0.04950  0.36930  0.68510  1.0000 -0.1887355721
C   C46       1.0  0.36930  0.04950  0.81490  1.0000 -0.1887355721
C   C47       1.0  0.95050  0.63070  0.31490  1.0000 -0.1887355721
C   C48       1.0  0.63070  0.95050  0.18510  1.0000 -0.1887355721
C   C49       1.0  0.01690  0.32030  0.65720  1.0000 -0.1793996181
C   C50       1.0  0.32030  0.01690  0.84280  1.0000 -0.1793996181
C   C51       1.0  0.98310  0.67970  0.34280  1.0000 -0.1793996181
C   C52       1.0  0.67970  0.98310  0.15720  1.0000 -0.1793996181
C   C53       1.0  0.03180  0.35620  0.61340  1.0000 0.1387772208
C   C54       1.0  0.35620  0.03180  0.88660  1.0000 0.1387772208
C   C55       1.0  0.96820  0.64380  0.38660  1.0000 0.1387772208
C   C56       1.0  0.64380  0.96820  0.11340  1.0000 0.1387772208
C   C57       1.0  0.99500  0.33500  0.57300  1.0000 -0.0699935219
C   C58       1.0  0.33500  0.99500  0.92700  1.0000 -0.0699935219
C   C59       1.0  0.00500  0.66500  0.42700  1.0000 -0.0699935219
C   C60       1.0  0.66500  0.00500  0.07300  1.0000 -0.0699935219
C   C61       1.0  0.01520  0.36860  0.53138  1.0000 0.1506237685
C   C62       1.0  0.36860  0.01520  0.96862  1.0000 0.1506237685
C   C63       1.0  0.98480  0.63140  0.46862  1.0000 0.1506237685
C   C64       1.0  0.63140  0.98480  0.03138  1.0000 0.1506237685
C   C65       1.0  0.97870  0.34970  0.48870  1.0000 -0.1793996181
C   C66       1.0  0.34970  0.97870  0.01130  1.0000 -0.1793996181
C   C67       1.0  0.02130  0.65030  0.51130  1.0000 -0.1793996181
C   C68       1.0  0.65030  0.02130  0.98870  1.0000 -0.1793996181
C   C69       1.0  0.02500  0.37960  0.45870  1.0000 -0.1669808404
C   C70       1.0  0.37960  0.02500  0.04130  1.0000 -0.1669808404
C   C71       1.0  0.97500  0.62040  0.54130  1.0000 -0.1669808404
C   C72       1.0  0.62040  0.97500  0.95870  1.0000 -0.1669808404
C   C73       1.0  0.09070  0.41930  0.48299  1.0000 0.1506237685
C   C74       1.0  0.41930  0.09070  0.01701  1.0000 0.1506237685
C   C75       1.0  0.90930  0.58070  0.51701  1.0000 0.1506237685
C   C76       1.0  0.58070  0.90930  0.98299  1.0000 0.1506237685
C   C77       1.0  0.15970  0.44870  0.46617  1.0000 -0.0699935219
C   C78       1.0  0.44870  0.15970  0.03383  1.0000 -0.0699935219
C   C79       1.0  0.84030  0.55130  0.53383  1.0000 -0.0699935219
C   C80       1.0  0.55130  0.84030  0.96617  1.0000 -0.0699935219
C   C81       1.0  0.35250  0.67110  0.57180  1.0000 0.0891095976
C   C82       1.0  0.67110  0.35250  0.92820  1.0000 0.0891095976
C   C83       1.0  0.64750  0.32890  0.42820  1.0000 0.0891095976
C   C84       1.0  0.32890  0.64750  0.07180  1.0000 0.0891095976
C   C85       1.0  0.33090  0.75590  0.55120  1.0000 -0.1492062617
C   C86       1.0  0.75590  0.33090  0.94880  1.0000 -0.1492062617
C   C87       1.0  0.66910  0.24410  0.44880  1.0000 -0.1492062617
C   C88       1.0  0.24410  0.66910  0.05120  1.0000 -0.1492062617
C   C89       1.0  0.38450  0.81410  0.55753  1.0000 -0.0785031832
C   C90       1.0  0.81410  0.38450  0.94247  1.0000 -0.0785031832
C   C91       1.0  0.61550  0.18590  0.44247  1.0000 -0.0785031832
C   C92       1.0  0.18590  0.61550  0.05753  1.0000 -0.0785031832
C   C93       1.0  0.46610  0.78790  0.58534  1.0000 -0.0319026623
C   C94       1.0  0.78790  0.46610  0.91466  1.0000 -0.0319026623
C   C95       1.0  0.53390  0.21210  0.41466  1.0000 -0.0319026623
C   C96       1.0  0.21210  0.53390  0.08534  1.0000 -0.0319026623
C   C97       1.0  0.48960  0.70160  0.60440  1.0000 -0.0935917609
C   C98       1.0  0.70160  0.48960  0.89560  1.0000 -0.0935917609
C   C99       1.0  0.51040  0.29840  0.39560  1.0000 -0.0935917609
C   C100      1.0  0.29840  0.51040  0.10440  1.0000 -0.0935917609
C   C101      1.0  0.43440  0.64340  0.59750  1.0000 -0.1587851322
C   C102      1.0  0.64340  0.43440  0.90250  1.0000 -0.1587851322
C   C103      1.0  0.56560  0.35660  0.40250  1.0000 -0.1587851322
C   C104      1.0  0.35660  0.56560  0.09750  1.0000 -0.1587851322
C   C105      1.0  0.52420  0.85140  0.59281  1.0000 0.6038208342
C   C106      1.0  0.85140  0.52420  0.90719  1.0000 0.6038208342
C   C107      1.0  0.47580  0.14860  0.40719  1.0000 0.6038208342
C   C108      1.0  0.14860  0.47580  0.09281  1.0000 0.6038208342
C   C109      1.0  0.10060  0.52080  0.71853  1.0000 0.0891095976
C   C110      1.0  0.52080  0.10060  0.78147  1.0000 0.0891095976
C   C111      1.0  0.89940  0.47920  0.28147  1.0000 0.0891095976
C   C112      1.0  0.47920  0.89940  0.21853  1.0000 0.0891095976
C   C113      1.0  0.13500  0.46760  0.76020  1.0000 -0.1492062617
C   C114      1.0  0.46760  0.13500  0.73980  1.0000 -0.1492062617
C   C115      1.0  0.86500  0.53240  0.23980  1.0000 -0.1492062617
C   C116      1.0  0.53240  0.86500  0.26020  1.0000 -0.1492062617
C   C117      1.0  0.11530  0.48450  0.79970  1.0000 -0.0987431073
C   C118      1.0  0.48450  0.11530  0.70030  1.0000 -0.0987431073
C   C119      1.0  0.88470  0.51550  0.20030  1.0000 -0.0987431073
C   C120      1.0  0.51550  0.88470  0.29970  1.0000 -0.0987431073
C   C121      1.0  0.05900  0.55580  0.79732  1.0000 -0.0185942893
C   C122      1.0  0.55580  0.05900  0.70268  1.0000 -0.0185942893
C   C123      1.0  0.94100  0.44420  0.20268  1.0000 -0.0185942893
C   C124      1.0  0.44420  0.94100  0.29732  1.0000 -0.0185942893
C   C125      1.0  0.02820  0.61340  0.75710  1.0000 -0.0785031832
C   C126      1.0  0.61340  0.02820  0.74290  1.0000 -0.0785031832
C   C127      1.0  0.97180  0.38660  0.24290  1.0000 -0.0785031832
C   C128      1.0  0.38660  0.97180  0.25710  1.0000 -0.0785031832
C   C129      1.0  0.04800  0.59540  0.71770  1.0000 -0.1492062617
C   C130      1.0  0.59540  0.04800  0.78230  1.0000 -0.1492062617
C   C131      1.0  0.95200  0.40460  0.28230  1.0000 -0.1492062617
C   C132      1.0  0.40460  0.95200  0.21770  1.0000 -0.1492062617
C   C133      1.0  0.02840  0.57160  0.83846  1.0000 0.616618309
C   C134      1.0  0.57160  0.02840  0.66154  1.0000 0.616618309
C   C135      1.0  0.97160  0.42840  0.16154  1.0000 0.616618309
C   C136      1.0  0.42840  0.97160  0.33846  1.0000 0.616618309
C   C137      1.0  0.93230  0.27330  0.57430  1.0000 0.0786059199
C   C138      1.0  0.27330  0.93230  0.92570  1.0000 0.0786059199
C   C139      1.0  0.06770  0.72670  0.42570  1.0000 0.0786059199
C   C140      1.0  0.72670  0.06770  0.07430  1.0000 0.0786059199
C   C141      1.0  0.86080  0.28980  0.59060  1.0000 -0.1492062617
C   C142      1.0  0.28980  0.86080  0.90940  1.0000 -0.1492062617
C   C143      1.0  0.13920  0.71020  0.40940  1.0000 -0.1492062617
C   C144      1.0  0.71020  0.13920  0.09060  1.0000 -0.1492062617
C   C145      1.0  0.80200  0.23420  0.59350  1.0000 -0.1069957547
C   C146      1.0  0.23420  0.80200  0.90650  1.0000 -0.1069957547
C   C147      1.0  0.19800  0.76580  0.40650  1.0000 -0.1069957547
C   C148      1.0  0.76580  0.19800  0.09350  1.0000 -0.1069957547
C   C149      1.0  0.81470  0.15750  0.57770  1.0000 -0.0129977855
C   C150      1.0  0.15750  0.81470  0.92230  1.0000 -0.0129977855
C   C151      1.0  0.18530  0.84250  0.42230  1.0000 -0.0129977855
C   C152      1.0  0.84250  0.18530  0.07770  1.0000 -0.0129977855
C   C153      1.0  0.88790  0.13970  0.56210  1.0000 -0.1069957547
C   C154      1.0  0.13970  0.88790  0.93790  1.0000 -0.1069957547
C   C155      1.0  0.11210  0.86030  0.43790  1.0000 -0.1069957547
C   C156      1.0  0.86030  0.11210  0.06210  1.0000 -0.1069957547
C   C157      1.0  0.94590  0.19790  0.56090  1.0000 -0.1492062617
C   C158      1.0  0.19790  0.94590  0.93910  1.0000 -0.1492062617
C   C159      1.0  0.05410  0.80210  0.43910  1.0000 -0.1492062617
C   C160      1.0  0.80210  0.05410  0.06090  1.0000 -0.1492062617
C   C161      1.0  0.74920  0.09800  0.58100  1.0000 0.557182554
C   C162      1.0  0.09800  0.74920  0.91900  1.0000 0.557182554
C   C163      1.0  0.25080  0.90200  0.41900  1.0000 0.557182554
C   C164      1.0  0.90200  0.25080  0.08100  1.0000 0.557182554
C   C165      1.0  0.17230  0.42870  0.42277  1.0000 0.0891095976
C   C166      1.0  0.42870  0.17230  0.07723  1.0000 0.0891095976
C   C167      1.0  0.82770  0.57130  0.57723  1.0000 0.0891095976
C   C168      1.0  0.57130  0.82770  0.92277  1.0000 0.0891095976
C   C169      1.0  0.23660  0.36400  0.42310  1.0000 -0.1348805242
C   C170      1.0  0.36400  0.23660  0.07690  1.0000 -0.1348805242
C   C171      1.0  0.76340  0.63600  0.57690  1.0000 -0.1348805242
C   C172      1.0  0.63600  0.76340  0.92310  1.0000 -0.1348805242
C   C173      1.0  0.24870  0.34130  0.38280  1.0000 -0.0785031832
C   C174      1.0  0.34130  0.24870  0.11720  1.0000 -0.0785031832
C   C175      1.0  0.75130  0.65870  0.61720  1.0000 -0.0785031832
C   C176      1.0  0.65870  0.75130  0.88280  1.0000 -0.0785031832
C   C177      1.0  0.19540  0.38240  0.34306  1.0000 -0.0389141106
C   C178      1.0  0.38240  0.19540  0.15694  1.0000 -0.0389141106
C   C179      1.0  0.80460  0.61760  0.65694  1.0000 -0.0389141106
C   C180      1.0  0.61760  0.80460  0.84306  1.0000 -0.0389141106
C   C181      1.0  0.13400  0.45020  0.34227  1.0000 -0.0935917609
C   C182      1.0  0.45020  0.13400  0.15773  1.0000 -0.0935917609
C   C183      1.0  0.86600  0.54980  0.65773  1.0000 -0.0935917609
C   C184      1.0  0.54980  0.86600  0.84227  1.0000 -0.0935917609
C   C185      1.0  0.12240  0.47200  0.38140  1.0000 -0.1492062617
C   C186      1.0  0.47200  0.12240  0.11860  1.0000 -0.1492062617
C   C187      1.0  0.87760  0.52800  0.61860  1.0000 -0.1492062617
C   C188      1.0  0.52800  0.87760  0.88140  1.0000 -0.1492062617
C   C189      1.0  0.20470  0.35450  0.30090  1.0000 0.6573572692
C   C190      1.0  0.35450  0.20470  0.19910  1.0000 0.6573572692
C   C191      1.0  0.79530  0.64550  0.69910  1.0000 0.6573572692
C   C192      1.0  0.64550  0.79530  0.80090  1.0000 0.6573572692
C   C193      1.0  0.08140  0.08140  0.75000  1.0000 -0.0785031832
C   C194      1.0  0.91860  0.91860  0.25000  1.0000 -0.0785031832
C   C195      1.0  0.11600  0.10120  0.71198  1.0000 0.1589941269
C   C196      1.0  0.10120  0.11600  0.78802  1.0000 0.1589941269
C   C197      1.0  0.88400  0.89880  0.28802  1.0000 0.1589941269
C   C198      1.0  0.89880  0.88400  0.21198  1.0000 0.1589941269
C   C199      1.0  0.09640  0.06480  0.67230  1.0000 -0.1793996181
C   C200      1.0  0.06480  0.09640  0.82770  1.0000 -0.1793996181
C   C201      1.0  0.90360  0.93520  0.32770  1.0000 -0.1793996181
C   C202      1.0  0.93520  0.90360  0.17230  1.0000 -0.1793996181
C   C203      1.0  0.14240  0.09840  0.64363  1.0000 -0.1793996181
C   C204      1.0  0.09840  0.14240  0.85637  1.0000 -0.1793996181
C   C205      1.0  0.85760  0.90160  0.35637  1.0000 -0.1793996181
C   C206      1.0  0.90160  0.85760  0.14363  1.0000 -0.1793996181
C   C207      1.0  0.19280  0.15500  0.66486  1.0000 0.1589941269
C   C208      1.0  0.15500  0.19280  0.83514  1.0000 0.1589941269
C   C209      1.0  0.80720  0.84500  0.33514  1.0000 0.1589941269
C   C210      1.0  0.84500  0.80720  0.16486  1.0000 0.1589941269
C   C211      1.0  0.24670  0.20430  0.64442  1.0000 -0.0699935219
C   C212      1.0  0.20430  0.24670  0.85558  1.0000 -0.0699935219
C   C213      1.0  0.75330  0.79570  0.35558  1.0000 -0.0699935219
C   C214      1.0  0.79570  0.75330  0.14442  1.0000 -0.0699935219
C   C215      1.0  0.28850  0.26590  0.66229  1.0000 0.1589941269
C   C216      1.0  0.26590  0.28850  0.83771  1.0000 0.1589941269
C   C217      1.0  0.71150  0.73410  0.33771  1.0000 0.1589941269
C   C218      1.0  0.73410  0.71150  0.16229  1.0000 0.1589941269
C   C219      1.0  0.34140  0.31820  0.64050  1.0000 -0.1887355721
C   C220      1.0  0.31820  0.34140  0.85950  1.0000 -0.1887355721
C   C221      1.0  0.65860  0.68180  0.35950  1.0000 -0.1887355721
C   C222      1.0  0.68180  0.65860  0.14050  1.0000 -0.1887355721
C   C223      1.0  0.37540  0.36620  0.66880  1.0000 -0.1793996181
C   C224      1.0  0.36620  0.37540  0.83120  1.0000 -0.1793996181
C   C225      1.0  0.62460  0.63380  0.33120  1.0000 -0.1793996181
C   C226      1.0  0.63380  0.62460  0.16880  1.0000 -0.1793996181
C   C227      1.0  0.34370  0.34230  0.71030  1.0000 0.1589941269
C   C228      1.0  0.34230  0.34370  0.78970  1.0000 0.1589941269
C   C229      1.0  0.65630  0.65770  0.28970  1.0000 0.1589941269
C   C230      1.0  0.65770  0.65630  0.21030  1.0000 0.1589941269
C   C231      1.0  0.37120  0.37120  0.75000  1.0000 -0.0935917609
C   C232      1.0  0.62880  0.62880  0.25000  1.0000 -0.0935917609
C   C233      1.0  0.01850  0.01850  0.75000  1.0000 0.0891095976
C   C234      1.0  0.98150  0.98150  0.25000  1.0000 0.0891095976
C   C235      1.0  0.93780  0.04040  0.72380  1.0000 -0.1587851322
C   C236      1.0  0.04040  0.93780  0.77620  1.0000 -0.1587851322
C   C237      1.0  0.06220  0.95960  0.27620  1.0000 -0.1587851322
C   C238      1.0  0.95960  0.06220  0.22380  1.0000 -0.1587851322
C   C239      1.0  0.87820  0.98280  0.72340  1.0000 -0.0699935219
C   C240      1.0  0.98280  0.87820  0.77660  1.0000 -0.0699935219
C   C241      1.0  0.12180  0.01720  0.27660  1.0000 -0.0699935219
C   C242      1.0  0.01720  0.12180  0.22340  1.0000 -0.0699935219
C   C243      1.0  0.90020  0.90020  0.75000  1.0000 -0.0699935219
C   C244      1.0  0.09980  0.09980  0.25000  1.0000 -0.0785031832
C   C245      1.0  0.83930  0.83930  0.75000  1.0000 0.6510988212
C   C246      1.0  0.16070  0.16070  0.25000  1.0000 0.6510988212
C   C247      1.0  0.26040  0.18840  0.59980  1.0000 0.0786059199
C   C248      1.0  0.18840  0.26040  0.90020  1.0000 0.0786059199
C   C249      1.0  0.73960  0.81160  0.40020  1.0000 0.0786059199
C   C250      1.0  0.81160  0.73960  0.09980  1.0000 0.0786059199
C   C251      1.0  0.20850  0.23210  0.56120  1.0000 -0.1587851322
C   C252      1.0  0.23210  0.20850  0.93880  1.0000 -0.1587851322
C   C253      1.0  0.79150  0.76790  0.43880  1.0000 -0.1587851322
C   C254      1.0  0.76790  0.79150  0.06120  1.0000 -0.1587851322
C   C255      1.0  0.21360  0.21460  0.52030  1.0000 -0.1069957547
C   C256      1.0  0.21460  0.21360  0.97970  1.0000 -0.1069957547
C   C257      1.0  0.78640  0.78540  0.47970  1.0000 -0.1069957547
C   C258      1.0  0.78540  0.78640  0.02030  1.0000 -0.1069957547
C   C259      1.0  0.27530  0.15090  0.51640  1.0000 -0.0129977855
C   C260      1.0  0.15090  0.27530  0.98360  1.0000 -0.0129977855
C   C261      1.0  0.72470  0.84910  0.48360  1.0000 -0.0129977855
C   C262      1.0  0.84910  0.72470  0.01640  1.0000 -0.0129977855
C   C263      1.0  0.33030  0.10670  0.55560  1.0000 -0.0785031832
C   C264      1.0  0.10670  0.33030  0.94440  1.0000 -0.0785031832
C   C265      1.0  0.66970  0.89330  0.44440  1.0000 -0.0785031832
C   C266      1.0  0.89330  0.66970  0.05560  1.0000 -0.0785031832
C   C267      1.0  0.32130  0.12390  0.59730  1.0000 -0.1439039298
C   C268      1.0  0.12390  0.32130  0.90270  1.0000 -0.1439039298
C   C269      1.0  0.67870  0.87610  0.40270  1.0000 -0.1439039298
C   C270      1.0  0.87610  0.67870  0.09730  1.0000 -0.1439039298
C   C271      1.0  0.27980  0.13220  0.47050  1.0000 0.5910277701
C   C272      1.0  0.13220  0.27980  0.02950  1.0000 0.5910277701
C   C273      1.0  0.72020  0.86780  0.52950  1.0000 0.5910277701
C   C274      1.0  0.86780  0.72020  0.97050  1.0000 0.5910277701
C   C275      1.0  0.43260  0.43260  0.75000  1.0000 0.0891095976
C   C276      1.0  0.56740  0.56740  0.25000  1.0000 0.0891095976
C   C277      1.0  0.41240  0.51480  0.72280  1.0000 -0.1492062617
C   C278      1.0  0.51480  0.41240  0.77720  1.0000 -0.1492062617
C   C279      1.0  0.58760  0.48520  0.27720  1.0000 -0.1492062617
C   C280      1.0  0.48520  0.58760  0.22280  1.0000 -0.1492062617
C   C281      1.0  0.46960  0.57200  0.72220  1.0000 -0.0987431073
C   C282      1.0  0.57200  0.46960  0.77780  1.0000 -0.0987431073
C   C283      1.0  0.53040  0.42800  0.27780  1.0000 -0.0987431073
C   C284      1.0  0.42800  0.53040  0.22220  1.0000 -0.0987431073
C   C285      1.0  0.55090  0.55090  0.75000  1.0000 -0.0319026623
C   C286      1.0  0.44910  0.44910  0.25000  1.0000 -0.0319026623
C   C287      1.0  0.61410  0.61410  0.75000  1.0000 0.6573572692
C   C288      1.0  0.38590  0.38590  0.25000  1.0000 0.6573572692
N   N1        1.0  0.21404  0.51544  0.52885  1.0000 -0.2697337904
N   N2        1.0  0.51544  0.21404  0.97115  1.0000 -0.2697337904
N   N3        1.0  0.78596  0.48456  0.47115  1.0000 -0.2697337904
N   N4        1.0  0.48456  0.78596  0.02885  1.0000 -0.2697337904
N   N5        1.0  0.18670  0.54810  0.61208  1.0000 -0.2604109534
N   N6        1.0  0.54810  0.18670  0.88792  1.0000 -0.2604109534
N   N7        1.0  0.81330  0.45190  0.38792  1.0000 -0.2604109534
N   N8        1.0  0.45190  0.81330  0.11208  1.0000 -0.2604109534
N   N9        1.0  0.08000  0.42060  0.61717  1.0000 -0.2697337904
N   N10       1.0  0.42060  0.08000  0.88283  1.0000 -0.2697337904
N   N11       1.0  0.92000  0.57940  0.38283  1.0000 -0.2697337904
N   N12       1.0  0.57940  0.92000  0.11717  1.0000 -0.2697337904
N   N13       1.0  0.08083  0.41623  0.52658  1.0000 -0.2604109534
N   N14       1.0  0.41623  0.08083  0.97342  1.0000 -0.2604109534
N   N15       1.0  0.91917  0.58377  0.47342  1.0000 -0.2604109534
N   N16       1.0  0.58377  0.91917  0.02658  1.0000 -0.2604109534
N   N17       1.0  0.17492  0.15612  0.70667  1.0000 -0.2697337904
N   N18       1.0  0.15612  0.17492  0.79333  1.0000 -0.2697337904
N   N19       1.0  0.82508  0.84388  0.29333  1.0000 -0.2697337904
N   N20       1.0  0.84388  0.82508  0.20667  1.0000 -0.2697337904
N   N21       1.0  0.28949  0.28209  0.70455  1.0000 -0.2986214125
N   N22       1.0  0.28209  0.28949  0.79545  1.0000 -0.2986214125
N   N23       1.0  0.71051  0.71791  0.29545  1.0000 -0.2986214125
N   N24       1.0  0.71791  0.71051  0.20455  1.0000 -0.2986214125
Cl  Cl1       1.0  0.14090  0.47462  0.57151  1.0000 0.4682083613
Cl  Cl2       1.0  0.47462  0.14090  0.92849  1.0000 0.4790381229
Cl  Cl3       1.0  0.85910  0.52538  0.42849  1.0000 0.4790381229
Cl  Cl4       1.0  0.52538  0.85910  0.07151  1.0000 0.4682083613
Cl  Cl5       1.0  0.22493  0.22493  0.75000  1.0000 0.4520086384
Cl  Cl6       1.0  0.77507  0.77507  0.25000  1.0000 0.4306983388
O   O1        1.0  0.50419  0.92539  0.57233  1.0000 -0.5683616492
O   O2        1.0  0.92539  0.50419  0.92767  1.0000 -0.5683616492
O   O3        1.0  0.49581  0.07461  0.42767  1.0000 -0.5683616492
O   O4        1.0  0.07461  0.49581  0.07233  1.0000 -0.5683616492
O   O5        1.0  0.59636  0.82582  0.62117  1.0000 -0.7714314499
O   O6        1.0  0.82582  0.59636  0.87883  1.0000 -0.7714314499
O   O7        1.0  0.40364  0.17418  0.37883  1.0000 -0.7714314499
O   O8        1.0  0.17418  0.40364  0.12117  1.0000 -0.7714314499
O   O9        1.0  0.06966  0.53458  0.87711  1.0000 -0.5756468886
O   O10       1.0  0.53458  0.06966  0.62289  1.0000 -0.5756468886
O   O11       1.0  0.93034  0.46542  0.12289  1.0000 -0.5756468886
O   O12       1.0  0.46542  0.93034  0.37711  1.0000 -0.5756468886
O   O13       1.0  0.96093  0.62365  0.83376  1.0000 -0.7714314499
O   O14       1.0  0.62365  0.96093  0.66624  1.0000 -0.7714314499
O   O15       1.0  0.03907  0.37635  0.16624  1.0000 -0.7714314499
O   O16       1.0  0.37635  0.03907  0.33376  1.0000 -0.7714314499
O   O17       1.0  0.70522  0.09702  0.60990  1.0000 -0.6173961573
O   O18       1.0  0.09702  0.70522  0.89010  1.0000 -0.6173961573
O   O19       1.0  0.29478  0.90298  0.39010  1.0000 -0.6173961573
O   O20       1.0  0.90298  0.29478  0.10990  1.0000 -0.6173961573
O   O21       1.0  0.74220  0.04820  0.55330  1.0000 -0.6374031865
O   O22       1.0  0.04820  0.74220  0.94670  1.0000 -0.6374031865
O   O23       1.0  0.25780  0.95180  0.44670  1.0000 -0.6374031865
O   O24       1.0  0.95180  0.25780  0.05330  1.0000 -0.6374031865
O   O25       1.0  0.25968  0.29068  0.30291  1.0000 -0.736353662
O   O26       1.0  0.29068  0.25968  0.19709  1.0000 -0.736353662
O   O27       1.0  0.74032  0.70932  0.69709  1.0000 -0.736353662
O   O28       1.0  0.70932  0.74032  0.80291  1.0000 -0.736353662
O   O29       1.0  0.15861  0.39501  0.26379  1.0000 -0.6708780193
O   O30       1.0  0.39501  0.15861  0.23621  1.0000 -0.6708780193
O   O31       1.0  0.84139  0.60499  0.73621  1.0000 -0.6708780193
O   O32       1.0  0.60499  0.84139  0.76379  1.0000 -0.6708780193
O   O33       1.0  0.76528  0.86296  0.72612  1.0000 -0.6708780193
O   O34       1.0  0.86296  0.76528  0.77388  1.0000 -0.6708780193
O   O35       1.0  0.23472  0.13704  0.27388  1.0000 -0.6708780193
O   O36       1.0  0.13704  0.23472  0.22612  1.0000 -0.6708780193
O   O37       1.0  0.21650  0.16030  0.43950  1.0000 -0.5683616492
O   O38       1.0  0.16030  0.21650  0.06050  1.0000 -0.5643740558
O   O39       1.0  0.78350  0.83970  0.56050  1.0000 -0.5683616492
O   O40       1.0  0.83970  0.78350  0.93950  1.0000 -0.5683616492
O   O41       1.0  0.34677  0.08877  0.46722  1.0000 -0.6647360438
O   O42       1.0  0.08877  0.34677  0.03278  1.0000 -0.6647360438
O   O43       1.0  0.65323  0.91123  0.53278  1.0000 -0.6647360438
O   O44       1.0  0.91123  0.65323  0.96722  1.0000 -0.6647360438
O   O45       1.0  0.58962  0.68796  0.72546  1.0000 -0.6866722369
O   O46       1.0  0.68796  0.58962  0.77454  1.0000 -0.6866722369
O   O47       1.0  0.41038  0.31204  0.27454  1.0000 -0.6866722369
O   O48       1.0  0.31204  0.41038  0.22546  1.0000 -0.6866722369
