# DDEC6 charges by PACMAN v1.1 (https://github.com/mtap-research/PACMAN-charge/)
data_2007[Co][nan]3[ASR]4
_chemical_formula_sum              "Co16 P18 H30 C6 O66"
_cell_length_a       15.141
_cell_length_b       15.141
_cell_length_c       9.3313
_cell_angle_alpha    90
_cell_angle_beta     90
_cell_angle_gamma    120

_symmetry_space_group_name_H-M    "P 1"
_symmetry_Int_Tables_number       1

loop_
  _symmetry_equiv_pos_as_xyz
  'x, y, z'

loop_
  _atom_site_type_symbol
  _atom_site_label
  _atom_site_symmetry_multiplicity
  _atom_site_fract_x
  _atom_site_fract_y
  _atom_site_fract_z
  _atom_site_occupancy
  _atom_site_charge
Co  Co1       1.0  0.48578  0.38234  0.29246  1.0000 1.1890617606
Co  Co2       1.0  0.61766  0.10343  0.29246  1.0000 1.1890617606
Co  Co3       1.0  0.89657  0.51422  0.29246  1.0000 1.1890617606
Co  Co4       1.0  0.51422  0.61766  0.79246  1.0000 1.1890617606
Co  Co5       1.0  0.38234  0.89657  0.79246  1.0000 1.1890617606
Co  Co6       1.0  0.10343  0.48578  0.79246  1.0000 1.1890617606
Co  Co7       1.0  0.61766  0.51422  0.79246  1.0000 1.1890617606
Co  Co8       1.0  0.89657  0.38234  0.79246  1.0000 1.1890617606
Co  Co9       1.0  0.48578  0.10343  0.79246  1.0000 1.1890617606
Co  Co10      1.0  0.38234  0.48578  0.29246  1.0000 1.1890617606
Co  Co11      1.0  0.10343  0.61766  0.29246  1.0000 1.1890617606
Co  Co12      1.0  0.51422  0.89657  0.29246  1.0000 1.1890617606
Co  Co13      1.0  0.66667  0.33333  0.37772  1.0000 1.3333379225
Co  Co14      1.0  0.33333  0.66667  0.87772  1.0000 1.3355136908
Co  Co15      1.0  0.66667  0.33333  0.87772  1.0000 1.3333379225
Co  Co16      1.0  0.33333  0.66667  0.37772  1.0000 1.3333379225
P   P1        1.0  0.50200  0.29781  0.63944  1.0000 1.2934448815
P   P2        1.0  0.70219  0.20419  0.63944  1.0000 1.2934448815
P   P3        1.0  0.79581  0.49800  0.63944  1.0000 1.2934448815
P   P4        1.0  0.49800  0.70219  0.13944  1.0000 1.2934448815
P   P5        1.0  0.29781  0.79581  0.13944  1.0000 1.2934448815
P   P6        1.0  0.20419  0.50200  0.13944  1.0000 1.2934448815
P   P7        1.0  0.70219  0.49800  0.13944  1.0000 1.2934448815
P   P8        1.0  0.79581  0.29781  0.13944  1.0000 1.2934448815
P   P9        1.0  0.50200  0.20419  0.13944  1.0000 1.2934448815
P   P10       1.0  0.29781  0.50200  0.63944  1.0000 1.2934448815
P   P11       1.0  0.20419  0.70219  0.63944  1.0000 1.2934448815
P   P12       1.0  0.49800  0.79581  0.63944  1.0000 1.2934448815
P   P13       1.0  0.40094  0.40094  0.97303  1.0000 1.4668509361
P   P14       1.0  0.59906  0.00000  0.97303  1.0000 1.4668509361
P   P15       1.0  0.00000  0.59906  0.97303  1.0000 1.4668509361
P   P16       1.0  0.59906  0.59906  0.47303  1.0000 1.4668509361
P   P17       1.0  0.40094  0.00000  0.47303  1.0000 1.4668509361
P   P18       1.0  0.00000  0.40094  0.47303  1.0000 1.4668509361
H   H1        1.0  0.42975  0.32961  0.63091  1.0000 -0.0707125139
H   H2        1.0  0.67039  0.10014  0.63091  1.0000 -0.0707125139
H   H3        1.0  0.89986  0.57025  0.63091  1.0000 -0.0707125139
H   H4        1.0  0.57025  0.67039  0.13091  1.0000 -0.0707125139
H   H5        1.0  0.32961  0.89986  0.13091  1.0000 -0.0707125139
H   H6        1.0  0.10014  0.42975  0.13091  1.0000 -0.0707125139
H   H7        1.0  0.67039  0.57025  0.13091  1.0000 -0.0707125139
H   H8        1.0  0.89986  0.32961  0.13091  1.0000 -0.0707125139
H   H9        1.0  0.42975  0.10014  0.13091  1.0000 -0.0707125139
H   H10       1.0  0.32961  0.42975  0.63091  1.0000 -0.0707125139
H   H11       1.0  0.10014  0.67039  0.63091  1.0000 -0.0707125139
H   H12       1.0  0.57025  0.89986  0.63091  1.0000 -0.0707125139
H   H13       1.0  0.24708  0.24708  0.21719  1.0000 0.1218461043
H   H14       1.0  0.75292  0.00000  0.21719  1.0000 0.1218461043
H   H15       1.0  0.00000  0.75292  0.21719  1.0000 0.1218461043
H   H16       1.0  0.75292  0.75292  0.71719  1.0000 0.1218461043
H   H17       1.0  0.24708  0.00000  0.71719  1.0000 0.1218461043
H   H18       1.0  0.00000  0.24708  0.71719  1.0000 0.1218461043
H   H19       1.0  0.20021  0.26976  0.38407  1.0000 0.126151621
H   H20       1.0  0.73024  0.93045  0.38407  1.0000 0.126151621
H   H21       1.0  0.06955  0.79979  0.38407  1.0000 0.126151621
H   H22       1.0  0.79979  0.73024  0.88407  1.0000 0.126151621
H   H23       1.0  0.26976  0.06955  0.88407  1.0000 0.126151621
H   H24       1.0  0.93045  0.20021  0.88407  1.0000 0.126151621
H   H25       1.0  0.73024  0.79979  0.88407  1.0000 0.126151621
H   H26       1.0  0.06955  0.26976  0.88407  1.0000 0.126151621
H   H27       1.0  0.20021  0.93045  0.88407  1.0000 0.126151621
H   H28       1.0  0.26976  0.20021  0.38407  1.0000 0.126151621
H   H29       1.0  0.93045  0.73024  0.38407  1.0000 0.126151621
H   H30       1.0  0.79979  0.06955  0.38407  1.0000 0.126151621
C   C1        1.0  0.26255  0.26255  0.33310  1.0000 -0.1435876741
C   C2        1.0  0.73745  0.00000  0.33310  1.0000 -0.1435876741
C   C3        1.0  0.00000  0.73745  0.33310  1.0000 -0.1435876741
C   C4        1.0  0.73745  0.73745  0.83310  1.0000 -0.1435876741
C   C5        1.0  0.26255  0.00000  0.83310  1.0000 -0.1435876741
C   C6        1.0  0.00000  0.26255  0.83310  1.0000 -0.1435876741
O   O1        1.0  0.54842  0.32227  0.48395  1.0000 -0.7164348715
O   O2        1.0  0.67773  0.22615  0.48395  1.0000 -0.7164348715
O   O3        1.0  0.77385  0.45158  0.48395  1.0000 -0.7164348715
O   O4        1.0  0.45158  0.67773  0.98395  1.0000 -0.7164348715
O   O5        1.0  0.32227  0.77385  0.98395  1.0000 -0.7164348715
O   O6        1.0  0.22615  0.54842  0.98395  1.0000 -0.7164348715
O   O7        1.0  0.67773  0.45158  0.98395  1.0000 -0.7164348715
O   O8        1.0  0.77385  0.32227  0.98395  1.0000 -0.7164348715
O   O9        1.0  0.54842  0.22615  0.98395  1.0000 -0.7164348715
O   O10       1.0  0.32227  0.54842  0.48395  1.0000 -0.7164348715
O   O11       1.0  0.22615  0.67773  0.48395  1.0000 -0.7164348715
O   O12       1.0  0.45158  0.77385  0.48395  1.0000 -0.7164348715
O   O13       1.0  0.58729  0.37304  0.74846  1.0000 -0.73082309
O   O14       1.0  0.62696  0.21425  0.74846  1.0000 -0.73082309
O   O15       1.0  0.78575  0.41271  0.74846  1.0000 -0.73082309
O   O16       1.0  0.41271  0.62696  0.24846  1.0000 -0.73082309
O   O17       1.0  0.37304  0.78575  0.24846  1.0000 -0.73082309
O   O18       1.0  0.21425  0.58729  0.24846  1.0000 -0.73082309
O   O19       1.0  0.62696  0.41271  0.24846  1.0000 -0.73082309
O   O20       1.0  0.78575  0.37304  0.24846  1.0000 -0.73082309
O   O21       1.0  0.58729  0.21425  0.24846  1.0000 -0.73082309
O   O22       1.0  0.37304  0.58729  0.74846  1.0000 -0.73082309
O   O23       1.0  0.21425  0.62696  0.74846  1.0000 -0.73082309
O   O24       1.0  0.41271  0.78575  0.74846  1.0000 -0.73082309
O   O25       1.0  0.44314  0.44314  0.14059  1.0000 -0.7842962944
O   O26       1.0  0.55686  0.00000  0.14059  1.0000 -0.7842962944
O   O27       1.0  0.00000  0.55686  0.14059  1.0000 -0.7861049576
O   O28       1.0  0.55686  0.55686  0.64059  1.0000 -0.7861049576
O   O29       1.0  0.44314  0.00000  0.64059  1.0000 -0.7842962944
O   O30       1.0  0.00000  0.44314  0.64059  1.0000 -0.7861049576
O   O31       1.0  0.35563  0.35563  0.36326  1.0000 -0.3532944971
O   O32       1.0  0.64437  0.00000  0.36326  1.0000 -0.3532944971
O   O33       1.0  0.00000  0.64437  0.36326  1.0000 -0.3532944971
O   O34       1.0  0.64437  0.64437  0.86326  1.0000 -0.3532944971
O   O35       1.0  0.35563  0.00000  0.86326  1.0000 -0.3532944971
O   O36       1.0  0.00000  0.35563  0.86326  1.0000 -0.3532944971
O   O37       1.0  0.49024  0.49024  0.87613  1.0000 -0.766016285
O   O38       1.0  0.50976  0.00000  0.87613  1.0000 -0.766016285
O   O39       1.0  0.00000  0.50976  0.87613  1.0000 -0.766016285
O   O40       1.0  0.50976  0.50976  0.37613  1.0000 -0.766016285
O   O41       1.0  0.49024  0.00000  0.37613  1.0000 -0.766016285
O   O42       1.0  0.00000  0.49024  0.37613  1.0000 -0.766016285
O   O43       1.0  0.44718  0.19037  0.69983  1.0000 -0.6437408476
O   O44       1.0  0.80963  0.25680  0.69983  1.0000 -0.6437408476
O   O45       1.0  0.74320  0.55282  0.69983  1.0000 -0.6437408476
O   O46       1.0  0.55282  0.80963  0.19983  1.0000 -0.6437408476
O   O47       1.0  0.19037  0.74320  0.19983  1.0000 -0.645465871
O   O48       1.0  0.25680  0.44718  0.19983  1.0000 -0.6437408476
O   O49       1.0  0.80963  0.55282  0.19983  1.0000 -0.6437408476
O   O50       1.0  0.74320  0.19037  0.19983  1.0000 -0.6437408476
O   O51       1.0  0.44718  0.25680  0.19983  1.0000 -0.6437408476
O   O52       1.0  0.19037  0.44718  0.69983  1.0000 -0.6437408476
O   O53       1.0  0.25680  0.80963  0.69983  1.0000 -0.6437408476
O   O54       1.0  0.55282  0.74320  0.69983  1.0000 -0.6437408476
O   O55       1.0  0.30614  0.40519  0.94880  1.0000 -0.6617294553
O   O56       1.0  0.59481  0.90095  0.94880  1.0000 -0.6617294553
O   O57       1.0  0.09905  0.69386  0.94880  1.0000 -0.6617294553
O   O58       1.0  0.69386  0.59481  0.44880  1.0000 -0.6617294553
O   O59       1.0  0.40519  0.09905  0.44880  1.0000 -0.6617294553
O   O60       1.0  0.90095  0.30614  0.44880  1.0000 -0.6617294553
O   O61       1.0  0.59481  0.69386  0.44880  1.0000 -0.6617294553
O   O62       1.0  0.09905  0.40519  0.44880  1.0000 -0.6617294553
O   O63       1.0  0.30614  0.90095  0.44880  1.0000 -0.6617294553
O   O64       1.0  0.40519  0.30614  0.94880  1.0000 -0.6617294553
O   O65       1.0  0.90095  0.59481  0.94880  1.0000 -0.6617294553
O   O66       1.0  0.69386  0.09905  0.94880  1.0000 -0.6617294553
