# DDEC6 charges by PACMAN v1.1 (https://github.com/mtap-research/PACMAN-charge/)
data_2007[Co][lta]3[ASR]1
_chemical_formula_sum              "Co48 H480 C480 N384"
_cell_length_a       32.1539
_cell_length_b       32.1539
_cell_length_c       32.1539
_cell_angle_alpha    60
_cell_angle_beta     60
_cell_angle_gamma    60

_symmetry_space_group_name_H-M    "P 1"
_symmetry_Int_Tables_number       1

loop_
  _symmetry_equiv_pos_as_xyz
  'x, y, z'

loop_
  _atom_site_type_symbol
  _atom_site_label
  _atom_site_symmetry_multiplicity
  _atom_site_fract_x
  _atom_site_fract_y
  _atom_site_fract_z
  _atom_site_occupancy
  _atom_site_charge
Co  Co1       1.0  0.97342  0.15786  0.52540  1.0000 0.5578184334
Co  Co2       1.0  0.52540  0.97342  0.15786  1.0000 0.5578184334
Co  Co3       1.0  0.15786  0.52540  0.97342  1.0000 0.5425320073
Co  Co4       1.0  0.02658  0.84214  0.65668  1.0000 0.5425320073
Co  Co5       1.0  0.47460  0.65668  0.84214  1.0000 0.5425320073
Co  Co6       1.0  0.65668  0.47460  0.02658  1.0000 0.5578184334
Co  Co7       1.0  0.47460  0.02658  0.65668  1.0000 0.5425320073
Co  Co8       1.0  0.65668  0.84214  0.47460  1.0000 0.5578184334
Co  Co9       1.0  0.84214  0.65668  0.02658  1.0000 0.5578184334
Co  Co10      1.0  0.84214  0.47460  0.65668  1.0000 0.5578184334
Co  Co11      1.0  0.02658  0.65668  0.47460  1.0000 0.5425320073
Co  Co12      1.0  0.65668  0.02658  0.84214  1.0000 0.5578184334
Co  Co13      1.0  0.15786  0.97342  0.34332  1.0000 0.5425320073
Co  Co14      1.0  0.52540  0.34332  0.97342  1.0000 0.5425320073
Co  Co15      1.0  0.34332  0.52540  0.15786  1.0000 0.5578184334
Co  Co16      1.0  0.34332  0.15786  0.97342  1.0000 0.5478805586
Co  Co17      1.0  0.97342  0.52540  0.34332  1.0000 0.5578184334
Co  Co18      1.0  0.15786  0.34332  0.52540  1.0000 0.5578184334
Co  Co19      1.0  0.97342  0.34332  0.15786  1.0000 0.5578184334
Co  Co20      1.0  0.34332  0.97342  0.52540  1.0000 0.5578184334
Co  Co21      1.0  0.52540  0.15786  0.34332  1.0000 0.5578184334
Co  Co22      1.0  0.84214  0.02658  0.47460  1.0000 0.5578184334
Co  Co23      1.0  0.02658  0.47460  0.84214  1.0000 0.5425320073
Co  Co24      1.0  0.47460  0.84214  0.02658  1.0000 0.5425320073
Co  Co25      1.0  0.02658  0.84214  0.47460  1.0000 0.5478805586
Co  Co26      1.0  0.47460  0.02658  0.84214  1.0000 0.5478805586
Co  Co27      1.0  0.84214  0.47460  0.02658  1.0000 0.5578184334
Co  Co28      1.0  0.97342  0.15786  0.34332  1.0000 0.5578184334
Co  Co29      1.0  0.52540  0.34332  0.15786  1.0000 0.5578184334
Co  Co30      1.0  0.34332  0.52540  0.97342  1.0000 0.5425320073
Co  Co31      1.0  0.52540  0.97342  0.34332  1.0000 0.5578184334
Co  Co32      1.0  0.34332  0.15786  0.52540  1.0000 0.5578184334
Co  Co33      1.0  0.15786  0.34332  0.97342  1.0000 0.5425320073
Co  Co34      1.0  0.15786  0.52540  0.34332  1.0000 0.5425320073
Co  Co35      1.0  0.97342  0.34332  0.52540  1.0000 0.5578184334
Co  Co36      1.0  0.34332  0.97342  0.15786  1.0000 0.5425320073
Co  Co37      1.0  0.84214  0.02658  0.65668  1.0000 0.5578184334
Co  Co38      1.0  0.47460  0.65668  0.02658  1.0000 0.5425320073
Co  Co39      1.0  0.65668  0.47460  0.84214  1.0000 0.5578184334
Co  Co40      1.0  0.65668  0.84214  0.02658  1.0000 0.5578184334
Co  Co41      1.0  0.02658  0.47460  0.65668  1.0000 0.5578184334
Co  Co42      1.0  0.84214  0.65668  0.47460  1.0000 0.5578184334
Co  Co43      1.0  0.02658  0.65668  0.84214  1.0000 0.5425320073
Co  Co44      1.0  0.65668  0.02658  0.47460  1.0000 0.5478805586
Co  Co45      1.0  0.47460  0.84214  0.65668  1.0000 0.5578184334
Co  Co46      1.0  0.15786  0.97342  0.52540  1.0000 0.5578184334
Co  Co47      1.0  0.97342  0.52540  0.15786  1.0000 0.5578184334
Co  Co48      1.0  0.52540  0.15786  0.97342  1.0000 0.5478805586
H   H1        1.0  0.94350  0.15430  0.45110  1.0000 0.0998766784
H   H2        1.0  0.45110  0.94350  0.15430  1.0000 0.0998766784
H   H3        1.0  0.15430  0.45110  0.94350  1.0000 0.0998766784
H   H4        1.0  0.05650  0.84570  0.54890  1.0000 0.0998766784
H   H5        1.0  0.54890  0.54890  0.84570  1.0000 0.0998766784
H   H6        1.0  0.54890  0.54890  0.05650  1.0000 0.0998766784
H   H7        1.0  0.54890  0.05650  0.54890  1.0000 0.0998766784
H   H8        1.0  0.54890  0.84570  0.54890  1.0000 0.0998766784
H   H9        1.0  0.84570  0.54890  0.05650  1.0000 0.0998766784
H   H10       1.0  0.84570  0.54890  0.54890  1.0000 0.0998766784
H   H11       1.0  0.05650  0.54890  0.54890  1.0000 0.0998766784
H   H12       1.0  0.54890  0.05650  0.84570  1.0000 0.0998766784
H   H13       1.0  0.15430  0.94350  0.45110  1.0000 0.0998766784
H   H14       1.0  0.45110  0.45110  0.94350  1.0000 0.0998766784
H   H15       1.0  0.45110  0.45110  0.15430  1.0000 0.0998766784
H   H16       1.0  0.45110  0.15430  0.94350  1.0000 0.0998766784
H   H17       1.0  0.94350  0.45110  0.45110  1.0000 0.0998766784
H   H18       1.0  0.15430  0.45110  0.45110  1.0000 0.0998766784
H   H19       1.0  0.94350  0.45110  0.15430  1.0000 0.0998766784
H   H20       1.0  0.45110  0.94350  0.45110  1.0000 0.0998766784
H   H21       1.0  0.45110  0.15430  0.45110  1.0000 0.0998766784
H   H22       1.0  0.84570  0.05650  0.54890  1.0000 0.0998766784
H   H23       1.0  0.05650  0.54890  0.84570  1.0000 0.0998766784
H   H24       1.0  0.54890  0.84570  0.05650  1.0000 0.0998766784
H   H25       1.0  0.06840  0.20380  0.43700  1.0000 0.110518566
H   H26       1.0  0.43700  0.06840  0.20380  1.0000 0.0998766784
H   H27       1.0  0.20380  0.43700  0.06840  1.0000 0.0998766784
H   H28       1.0  0.93160  0.79620  0.70920  1.0000 0.110518566
H   H29       1.0  0.56300  0.70920  0.79620  1.0000 0.110518566
H   H30       1.0  0.70920  0.56300  0.93160  1.0000 0.0998766784
H   H31       1.0  0.56300  0.93160  0.70920  1.0000 0.110518566
H   H32       1.0  0.70920  0.79620  0.56300  1.0000 0.110518566
H   H33       1.0  0.79620  0.70920  0.93160  1.0000 0.0998766784
H   H34       1.0  0.79620  0.56300  0.70920  1.0000 0.110518566
H   H35       1.0  0.93160  0.70920  0.56300  1.0000 0.0998766784
H   H36       1.0  0.70920  0.93160  0.79620  1.0000 0.0998766784
H   H37       1.0  0.20380  0.06840  0.29080  1.0000 0.110518566
H   H38       1.0  0.43700  0.29080  0.06840  1.0000 0.110518566
H   H39       1.0  0.29080  0.43700  0.20380  1.0000 0.0998766784
H   H40       1.0  0.29080  0.20380  0.06840  1.0000 0.110518566
H   H41       1.0  0.06840  0.43700  0.29080  1.0000 0.110518566
H   H42       1.0  0.20380  0.29080  0.43700  1.0000 0.110518566
H   H43       1.0  0.06840  0.29080  0.20380  1.0000 0.0998766784
H   H44       1.0  0.29080  0.06840  0.43700  1.0000 0.110518566
H   H45       1.0  0.43700  0.20380  0.29080  1.0000 0.0998766784
H   H46       1.0  0.79620  0.93160  0.56300  1.0000 0.110518566
H   H47       1.0  0.93160  0.56300  0.79620  1.0000 0.0998766784
H   H48       1.0  0.56300  0.79620  0.93160  1.0000 0.0998766784
H   H49       1.0  0.93160  0.79620  0.56300  1.0000 0.0998766784
H   H50       1.0  0.56300  0.93160  0.79620  1.0000 0.0998766784
H   H51       1.0  0.79620  0.56300  0.93160  1.0000 0.0998766784
H   H52       1.0  0.06840  0.20380  0.29080  1.0000 0.0998766784
H   H53       1.0  0.43700  0.29080  0.20380  1.0000 0.0998766784
H   H54       1.0  0.29080  0.43700  0.06840  1.0000 0.110518566
H   H55       1.0  0.43700  0.06840  0.29080  1.0000 0.110518566
H   H56       1.0  0.29080  0.20380  0.43700  1.0000 0.110518566
H   H57       1.0  0.20380  0.29080  0.06840  1.0000 0.110518566
H   H58       1.0  0.20380  0.43700  0.29080  1.0000 0.110518566
H   H59       1.0  0.06840  0.29080  0.43700  1.0000 0.110518566
H   H60       1.0  0.29080  0.06840  0.20380  1.0000 0.0998766784
H   H61       1.0  0.79620  0.93160  0.70920  1.0000 0.0998766784
H   H62       1.0  0.56300  0.70920  0.93160  1.0000 0.0998766784
H   H63       1.0  0.70920  0.56300  0.79620  1.0000 0.0998766784
H   H64       1.0  0.70920  0.79620  0.93160  1.0000 0.0998766784
H   H65       1.0  0.93160  0.56300  0.70920  1.0000 0.0998766784
H   H66       1.0  0.79620  0.70920  0.56300  1.0000 0.110518566
H   H67       1.0  0.93160  0.70920  0.79620  1.0000 0.0998766784
H   H68       1.0  0.70920  0.93160  0.56300  1.0000 0.0998766784
H   H69       1.0  0.56300  0.79620  0.70920  1.0000 0.110518566
H   H70       1.0  0.20380  0.06840  0.43700  1.0000 0.110518566
H   H71       1.0  0.06840  0.43700  0.20380  1.0000 0.110518566
H   H72       1.0  0.43700  0.20380  0.06840  1.0000 0.0998766784
H   H73       1.0  0.93980  0.06020  0.59360  1.0000 0.0931585432
H   H74       1.0  0.59360  0.93980  0.06020  1.0000 0.0931585432
H   H75       1.0  0.06020  0.59360  0.93980  1.0000 0.0931585432
H   H76       1.0  0.06020  0.93980  0.59360  1.0000 0.0931585432
H   H77       1.0  0.40640  0.59360  0.93980  1.0000 0.0931585432
H   H78       1.0  0.59360  0.40640  0.06020  1.0000 0.0931585432
H   H79       1.0  0.40640  0.06020  0.59360  1.0000 0.0931585432
H   H80       1.0  0.59360  0.93980  0.40640  1.0000 0.0931585432
H   H81       1.0  0.93980  0.59360  0.06020  1.0000 0.0931585432
H   H82       1.0  0.93980  0.40640  0.59360  1.0000 0.0931585432
H   H83       1.0  0.06020  0.59360  0.40640  1.0000 0.0931585432
H   H84       1.0  0.59360  0.06020  0.93980  1.0000 0.0931585432
H   H85       1.0  0.06020  0.93980  0.40640  1.0000 0.0931585432
H   H86       1.0  0.59360  0.40640  0.93980  1.0000 0.0931585432
H   H87       1.0  0.40640  0.59360  0.06020  1.0000 0.0931585432
H   H88       1.0  0.40640  0.06020  0.93980  1.0000 0.0931585432
H   H89       1.0  0.93980  0.59360  0.40640  1.0000 0.0931585432
H   H90       1.0  0.06020  0.40640  0.59360  1.0000 0.0931585432
H   H91       1.0  0.93980  0.40640  0.06020  1.0000 0.0931585432
H   H92       1.0  0.40640  0.93980  0.59360  1.0000 0.0931585432
H   H93       1.0  0.59360  0.06020  0.40640  1.0000 0.0931585432
H   H94       1.0  0.93980  0.06020  0.40640  1.0000 0.0931585432
H   H95       1.0  0.06020  0.40640  0.93980  1.0000 0.0931585432
H   H96       1.0  0.40640  0.93980  0.06020  1.0000 0.0931585432
H   H97       1.0  0.86670  0.23710  0.50670  1.0000 0.1175736793
H   H98       1.0  0.50670  0.86670  0.23710  1.0000 0.1175736793
H   H99       1.0  0.23710  0.50670  0.86670  1.0000 0.1175736793
H   H100      1.0  0.13330  0.76290  0.61050  1.0000 0.1175736793
H   H101      1.0  0.49330  0.61050  0.76290  1.0000 0.1175736793
H   H102      1.0  0.61050  0.49330  0.13330  1.0000 0.1175736793
H   H103      1.0  0.49330  0.13330  0.61050  1.0000 0.1175736793
H   H104      1.0  0.61050  0.76290  0.49330  1.0000 0.1175736793
H   H105      1.0  0.76290  0.61050  0.13330  1.0000 0.1175736793
H   H106      1.0  0.76290  0.49330  0.61050  1.0000 0.1175736793
H   H107      1.0  0.13330  0.61050  0.49330  1.0000 0.1175736793
H   H108      1.0  0.61050  0.13330  0.76290  1.0000 0.1175736793
H   H109      1.0  0.23710  0.86670  0.38950  1.0000 0.1175736793
H   H110      1.0  0.50670  0.38950  0.86670  1.0000 0.1175736793
H   H111      1.0  0.38950  0.50670  0.23710  1.0000 0.1175736793
H   H112      1.0  0.38950  0.23710  0.86670  1.0000 0.1175736793
H   H113      1.0  0.86670  0.50670  0.38950  1.0000 0.1175736793
H   H114      1.0  0.23710  0.38950  0.50670  1.0000 0.1175736793
H   H115      1.0  0.86670  0.38950  0.23710  1.0000 0.1175736793
H   H116      1.0  0.38950  0.86670  0.50670  1.0000 0.1175736793
H   H117      1.0  0.50670  0.23710  0.38950  1.0000 0.1175736793
H   H118      1.0  0.76290  0.13330  0.49330  1.0000 0.1175736793
H   H119      1.0  0.13330  0.49330  0.76290  1.0000 0.1175736793
H   H120      1.0  0.49330  0.76290  0.13330  1.0000 0.1175736793
H   H121      1.0  0.13330  0.76290  0.49330  1.0000 0.1175736793
H   H122      1.0  0.49330  0.13330  0.76290  1.0000 0.1175736793
H   H123      1.0  0.76290  0.49330  0.13330  1.0000 0.1175736793
H   H124      1.0  0.86670  0.23710  0.38950  1.0000 0.1175736793
H   H125      1.0  0.50670  0.38950  0.23710  1.0000 0.1175736793
H   H126      1.0  0.38950  0.50670  0.86670  1.0000 0.1175736793
H   H127      1.0  0.50670  0.86670  0.38950  1.0000 0.1175736793
H   H128      1.0  0.38950  0.23710  0.50670  1.0000 0.1175736793
H   H129      1.0  0.23710  0.38950  0.86670  1.0000 0.1175736793
H   H130      1.0  0.23710  0.50670  0.38950  1.0000 0.1175736793
H   H131      1.0  0.86670  0.38950  0.50670  1.0000 0.1175736793
H   H132      1.0  0.38950  0.86670  0.23710  1.0000 0.1175736793
H   H133      1.0  0.76290  0.13330  0.61050  1.0000 0.1175736793
H   H134      1.0  0.49330  0.61050  0.13330  1.0000 0.1175736793
H   H135      1.0  0.61050  0.49330  0.76290  1.0000 0.1175736793
H   H136      1.0  0.61050  0.76290  0.13330  1.0000 0.1175736793
H   H137      1.0  0.13330  0.49330  0.61050  1.0000 0.1175736793
H   H138      1.0  0.76290  0.61050  0.49330  1.0000 0.1175736793
H   H139      1.0  0.13330  0.61050  0.76290  1.0000 0.1175736793
H   H140      1.0  0.61050  0.13330  0.49330  1.0000 0.1175736793
H   H141      1.0  0.49330  0.76290  0.61050  1.0000 0.1175736793
H   H142      1.0  0.23710  0.86670  0.50670  1.0000 0.1175736793
H   H143      1.0  0.86670  0.50670  0.23710  1.0000 0.1175736793
H   H144      1.0  0.50670  0.23710  0.86670  1.0000 0.1175736793
H   H145      1.0  0.99250  0.26010  0.48730  1.0000 0.0931585432
H   H146      1.0  0.48730  0.99250  0.26010  1.0000 0.0931585432
H   H147      1.0  0.26010  0.48730  0.99250  1.0000 0.0931585432
H   H148      1.0  0.00750  0.73990  0.73990  1.0000 0.0931585432
H   H149      1.0  0.51270  0.73990  0.73990  1.0000 0.0931585432
H   H150      1.0  0.73990  0.51270  0.00750  1.0000 0.0931585432
H   H151      1.0  0.51270  0.00750  0.73990  1.0000 0.0931585432
H   H152      1.0  0.73990  0.73990  0.51270  1.0000 0.0931585432
H   H153      1.0  0.73990  0.73990  0.00750  1.0000 0.0931585432
H   H154      1.0  0.73990  0.51270  0.73990  1.0000 0.0931585432
H   H155      1.0  0.00750  0.73990  0.51270  1.0000 0.0931585432
H   H156      1.0  0.73990  0.00750  0.73990  1.0000 0.0931585432
H   H157      1.0  0.26010  0.99250  0.26010  1.0000 0.0931585432
H   H158      1.0  0.48730  0.26010  0.99250  1.0000 0.0931585432
H   H159      1.0  0.26010  0.48730  0.26010  1.0000 0.0931585432
H   H160      1.0  0.26010  0.26010  0.99250  1.0000 0.0931585432
H   H161      1.0  0.99250  0.48730  0.26010  1.0000 0.0931585432
H   H162      1.0  0.26010  0.26010  0.48730  1.0000 0.0931585432
H   H163      1.0  0.99250  0.26010  0.26010  1.0000 0.0931585432
H   H164      1.0  0.26010  0.99250  0.48730  1.0000 0.0931585432
H   H165      1.0  0.48730  0.26010  0.26010  1.0000 0.0931585432
H   H166      1.0  0.73990  0.00750  0.51270  1.0000 0.0931585432
H   H167      1.0  0.00750  0.51270  0.73990  1.0000 0.0931585432
H   H168      1.0  0.51270  0.73990  0.00750  1.0000 0.0931585432
H   H169      1.0  0.84750  0.18910  0.70630  1.0000 0.0998766784
H   H170      1.0  0.70630  0.84750  0.18910  1.0000 0.0998766784
H   H171      1.0  0.18910  0.70630  0.84750  1.0000 0.0998766784
H   H172      1.0  0.15250  0.81090  0.74290  1.0000 0.0998766784
H   H173      1.0  0.29370  0.74290  0.81090  1.0000 0.0998766784
H   H174      1.0  0.74290  0.29370  0.15250  1.0000 0.0998766784
H   H175      1.0  0.29370  0.15250  0.74290  1.0000 0.0998766784
H   H176      1.0  0.74290  0.81090  0.29370  1.0000 0.0998766784
H   H177      1.0  0.81090  0.74290  0.15250  1.0000 0.0998766784
H   H178      1.0  0.81090  0.29370  0.74290  1.0000 0.0998766784
H   H179      1.0  0.15250  0.74290  0.29370  1.0000 0.0998766784
H   H180      1.0  0.74290  0.15250  0.81090  1.0000 0.0998766784
H   H181      1.0  0.18910  0.84750  0.25710  1.0000 0.0998766784
H   H182      1.0  0.70630  0.25710  0.84750  1.0000 0.0998766784
H   H183      1.0  0.25710  0.70630  0.18910  1.0000 0.0998766784
H   H184      1.0  0.25710  0.18910  0.84750  1.0000 0.0998766784
H   H185      1.0  0.84750  0.70630  0.25710  1.0000 0.0998766784
H   H186      1.0  0.18910  0.25710  0.70630  1.0000 0.0998766784
H   H187      1.0  0.84750  0.25710  0.18910  1.0000 0.0998766784
H   H188      1.0  0.25710  0.84750  0.70630  1.0000 0.0998766784
H   H189      1.0  0.70630  0.18910  0.25710  1.0000 0.0998766784
H   H190      1.0  0.81090  0.15250  0.29370  1.0000 0.0998766784
H   H191      1.0  0.15250  0.29370  0.81090  1.0000 0.0998766784
H   H192      1.0  0.29370  0.81090  0.15250  1.0000 0.0998766784
H   H193      1.0  0.15250  0.81090  0.29370  1.0000 0.0998766784
H   H194      1.0  0.29370  0.15250  0.81090  1.0000 0.0998766784
H   H195      1.0  0.81090  0.29370  0.15250  1.0000 0.0998766784
H   H196      1.0  0.84750  0.18910  0.25710  1.0000 0.0998766784
H   H197      1.0  0.70630  0.25710  0.18910  1.0000 0.0998766784
H   H198      1.0  0.25710  0.70630  0.84750  1.0000 0.0998766784
H   H199      1.0  0.70630  0.84750  0.25710  1.0000 0.0998766784
H   H200      1.0  0.25710  0.18910  0.70630  1.0000 0.0998766784
H   H201      1.0  0.18910  0.25710  0.84750  1.0000 0.0998766784
H   H202      1.0  0.18910  0.70630  0.25710  1.0000 0.0998766784
H   H203      1.0  0.84750  0.25710  0.70630  1.0000 0.0998766784
H   H204      1.0  0.25710  0.84750  0.18910  1.0000 0.0998766784
H   H205      1.0  0.81090  0.15250  0.74290  1.0000 0.0998766784
H   H206      1.0  0.29370  0.74290  0.15250  1.0000 0.0998766784
H   H207      1.0  0.74290  0.29370  0.81090  1.0000 0.0998766784
H   H208      1.0  0.74290  0.81090  0.15250  1.0000 0.0998766784
H   H209      1.0  0.15250  0.29370  0.74290  1.0000 0.0998766784
H   H210      1.0  0.81090  0.74290  0.29370  1.0000 0.0998766784
H   H211      1.0  0.15250  0.74290  0.81090  1.0000 0.0998766784
H   H212      1.0  0.74290  0.15250  0.29370  1.0000 0.0998766784
H   H213      1.0  0.29370  0.81090  0.74290  1.0000 0.0998766784
H   H214      1.0  0.18910  0.84750  0.70630  1.0000 0.0998766784
H   H215      1.0  0.84750  0.70630  0.18910  1.0000 0.0998766784
H   H216      1.0  0.70630  0.18910  0.84750  1.0000 0.0998766784
H   H217      1.0  0.05930  0.05930  0.50470  1.0000 0.0998766784
H   H218      1.0  0.50470  0.05930  0.05930  1.0000 0.0998766784
H   H219      1.0  0.05930  0.50470  0.05930  1.0000 0.0998766784
H   H220      1.0  0.94070  0.94070  0.62330  1.0000 0.0998766784
H   H221      1.0  0.49530  0.62330  0.94070  1.0000 0.0998766784
H   H222      1.0  0.62330  0.49530  0.94070  1.0000 0.0998766784
H   H223      1.0  0.49530  0.94070  0.62330  1.0000 0.0998766784
H   H224      1.0  0.62330  0.94070  0.49530  1.0000 0.0998766784
H   H225      1.0  0.94070  0.62330  0.94070  1.0000 0.0998766784
H   H226      1.0  0.94070  0.49530  0.62330  1.0000 0.0998766784
H   H227      1.0  0.94070  0.62330  0.49530  1.0000 0.0998766784
H   H228      1.0  0.62330  0.94070  0.94070  1.0000 0.0998766784
H   H229      1.0  0.05930  0.05930  0.37670  1.0000 0.0998766784
H   H230      1.0  0.50470  0.37670  0.05930  1.0000 0.0998766784
H   H231      1.0  0.37670  0.50470  0.05930  1.0000 0.0998766784
H   H232      1.0  0.37670  0.05930  0.05930  1.0000 0.0998766784
H   H233      1.0  0.05930  0.50470  0.37670  1.0000 0.0998766784
H   H234      1.0  0.05930  0.37670  0.50470  1.0000 0.0998766784
H   H235      1.0  0.05930  0.37670  0.05930  1.0000 0.0998766784
H   H236      1.0  0.37670  0.05930  0.50470  1.0000 0.0998766784
H   H237      1.0  0.50470  0.05930  0.37670  1.0000 0.0998766784
H   H238      1.0  0.94070  0.94070  0.49530  1.0000 0.0998766784
H   H239      1.0  0.94070  0.49530  0.94070  1.0000 0.0998766784
H   H240      1.0  0.49530  0.94070  0.94070  1.0000 0.0998766784
H   H241      1.0  0.99780  0.14700  0.61820  1.0000 0.110518566
H   H242      1.0  0.61820  0.99780  0.14700  1.0000 0.110518566
H   H243      1.0  0.14700  0.61820  0.99780  1.0000 0.1175736793
H   H244      1.0  0.00220  0.85300  0.76300  1.0000 0.1175736793
H   H245      1.0  0.38180  0.76300  0.85300  1.0000 0.1175736793
H   H246      1.0  0.76300  0.38180  0.00220  1.0000 0.110518566
H   H247      1.0  0.38180  0.00220  0.76300  1.0000 0.1175736793
H   H248      1.0  0.76300  0.85300  0.38180  1.0000 0.110518566
H   H249      1.0  0.85300  0.76300  0.00220  1.0000 0.110518566
H   H250      1.0  0.85300  0.38180  0.76300  1.0000 0.1175736793
H   H251      1.0  0.00220  0.76300  0.38180  1.0000 0.110518566
H   H252      1.0  0.76300  0.00220  0.85300  1.0000 0.1175736793
H   H253      1.0  0.14700  0.99780  0.23700  1.0000 0.1175736793
H   H254      1.0  0.61820  0.23700  0.99780  1.0000 0.1175736793
H   H255      1.0  0.23700  0.61820  0.14700  1.0000 0.1175736793
H   H256      1.0  0.23700  0.14700  0.99780  1.0000 0.1175736793
H   H257      1.0  0.99780  0.61820  0.23700  1.0000 0.110518566
H   H258      1.0  0.14700  0.23700  0.61820  1.0000 0.110518566
H   H259      1.0  0.99780  0.23700  0.14700  1.0000 0.110518566
H   H260      1.0  0.23700  0.99780  0.61820  1.0000 0.110518566
H   H261      1.0  0.61820  0.14700  0.23700  1.0000 0.110518566
H   H262      1.0  0.85300  0.00220  0.38180  1.0000 0.110518566
H   H263      1.0  0.00220  0.38180  0.85300  1.0000 0.1175736793
H   H264      1.0  0.38180  0.85300  0.00220  1.0000 0.1175736793
H   H265      1.0  0.00220  0.85300  0.38180  1.0000 0.110518566
H   H266      1.0  0.38180  0.00220  0.85300  1.0000 0.1175736793
H   H267      1.0  0.85300  0.38180  0.00220  1.0000 0.110518566
H   H268      1.0  0.99780  0.14700  0.23700  1.0000 0.1175736793
H   H269      1.0  0.61820  0.23700  0.14700  1.0000 0.1175736793
H   H270      1.0  0.23700  0.61820  0.99780  1.0000 0.110518566
H   H271      1.0  0.61820  0.99780  0.23700  1.0000 0.110518566
H   H272      1.0  0.23700  0.14700  0.61820  1.0000 0.1175736793
H   H273      1.0  0.14700  0.23700  0.99780  1.0000 0.110518566
H   H274      1.0  0.14700  0.61820  0.23700  1.0000 0.110518566
H   H275      1.0  0.99780  0.23700  0.61820  1.0000 0.110518566
H   H276      1.0  0.23700  0.99780  0.14700  1.0000 0.1175736793
H   H277      1.0  0.85300  0.00220  0.76300  1.0000 0.1175736793
H   H278      1.0  0.38180  0.76300  0.00220  1.0000 0.1175736793
H   H279      1.0  0.76300  0.38180  0.85300  1.0000 0.1175736793
H   H280      1.0  0.76300  0.85300  0.00220  1.0000 0.110518566
H   H281      1.0  0.00220  0.38180  0.76300  1.0000 0.1175736793
H   H282      1.0  0.85300  0.76300  0.38180  1.0000 0.110518566
H   H283      1.0  0.00220  0.76300  0.85300  1.0000 0.110518566
H   H284      1.0  0.76300  0.00220  0.38180  1.0000 0.110518566
H   H285      1.0  0.38180  0.85300  0.76300  1.0000 0.1175736793
H   H286      1.0  0.14700  0.99780  0.61820  1.0000 0.110518566
H   H287      1.0  0.99780  0.61820  0.14700  1.0000 0.110518566
H   H288      1.0  0.61820  0.14700  0.99780  1.0000 0.110518566
H   H289      1.0  0.13180  0.21880  0.35880  1.0000 0.1884739376
H   H290      1.0  0.35880  0.13180  0.21880  1.0000 0.1884739376
H   H291      1.0  0.21880  0.35880  0.13180  1.0000 0.1884739376
H   H292      1.0  0.86820  0.78120  0.70940  1.0000 0.1884739376
H   H293      1.0  0.64120  0.70940  0.78120  1.0000 0.1884739376
H   H294      1.0  0.70940  0.64120  0.86820  1.0000 0.1884739376
H   H295      1.0  0.64120  0.86820  0.70940  1.0000 0.1884739376
H   H296      1.0  0.70940  0.78120  0.64120  1.0000 0.1884739376
H   H297      1.0  0.78120  0.70940  0.86820  1.0000 0.1884739376
H   H298      1.0  0.78120  0.64120  0.70940  1.0000 0.1884739376
H   H299      1.0  0.86820  0.70940  0.64120  1.0000 0.1884739376
H   H300      1.0  0.70940  0.86820  0.78120  1.0000 0.1884739376
H   H301      1.0  0.21880  0.13180  0.29060  1.0000 0.1884739376
H   H302      1.0  0.35880  0.29060  0.13180  1.0000 0.1884739376
H   H303      1.0  0.29060  0.35880  0.21880  1.0000 0.1884739376
H   H304      1.0  0.29060  0.21880  0.13180  1.0000 0.1884739376
H   H305      1.0  0.13180  0.35880  0.29060  1.0000 0.1884739376
H   H306      1.0  0.21880  0.29060  0.35880  1.0000 0.1884739376
H   H307      1.0  0.13180  0.29060  0.21880  1.0000 0.1884739376
H   H308      1.0  0.29060  0.13180  0.35880  1.0000 0.1884739376
H   H309      1.0  0.35880  0.21880  0.29060  1.0000 0.1884739376
H   H310      1.0  0.78120  0.86820  0.64120  1.0000 0.1884739376
H   H311      1.0  0.86820  0.64120  0.78120  1.0000 0.1884739376
H   H312      1.0  0.64120  0.78120  0.86820  1.0000 0.1884739376
H   H313      1.0  0.86820  0.78120  0.64120  1.0000 0.1884739376
H   H314      1.0  0.64120  0.86820  0.78120  1.0000 0.1884739376
H   H315      1.0  0.78120  0.64120  0.86820  1.0000 0.1884739376
H   H316      1.0  0.13180  0.21880  0.29060  1.0000 0.1884739376
H   H317      1.0  0.35880  0.29060  0.21880  1.0000 0.1884739376
H   H318      1.0  0.29060  0.35880  0.13180  1.0000 0.1884739376
H   H319      1.0  0.35880  0.13180  0.29060  1.0000 0.1884739376
H   H320      1.0  0.29060  0.21880  0.35880  1.0000 0.1884739376
H   H321      1.0  0.21880  0.29060  0.13180  1.0000 0.1884739376
H   H322      1.0  0.21880  0.35880  0.29060  1.0000 0.1884739376
H   H323      1.0  0.13180  0.29060  0.35880  1.0000 0.1884739376
H   H324      1.0  0.29060  0.13180  0.21880  1.0000 0.1884739376
H   H325      1.0  0.78120  0.86820  0.70940  1.0000 0.1884739376
H   H326      1.0  0.64120  0.70940  0.86820  1.0000 0.1884739376
H   H327      1.0  0.70940  0.64120  0.78120  1.0000 0.1884739376
H   H328      1.0  0.70940  0.78120  0.86820  1.0000 0.1884739376
H   H329      1.0  0.86820  0.64120  0.70940  1.0000 0.1884739376
H   H330      1.0  0.78120  0.70940  0.64120  1.0000 0.1884739376
H   H331      1.0  0.86820  0.70940  0.78120  1.0000 0.1884739376
H   H332      1.0  0.70940  0.86820  0.64120  1.0000 0.1884739376
H   H333      1.0  0.64120  0.78120  0.70940  1.0000 0.1884739376
H   H334      1.0  0.21880  0.13180  0.35880  1.0000 0.1884739376
H   H335      1.0  0.13180  0.35880  0.21880  1.0000 0.1884739376
H   H336      1.0  0.35880  0.21880  0.13180  1.0000 0.1884739376
H   H337      1.0  0.77960  0.26840  0.52540  1.0000 0.2176755448
H   H338      1.0  0.52540  0.77960  0.26840  1.0000 0.2176755448
H   H339      1.0  0.26840  0.52540  0.77960  1.0000 0.2176755448
H   H340      1.0  0.22040  0.73160  0.57340  1.0000 0.2176755448
H   H341      1.0  0.47460  0.57340  0.73160  1.0000 0.2176755448
H   H342      1.0  0.57340  0.47460  0.22040  1.0000 0.2176755448
H   H343      1.0  0.47460  0.22040  0.57340  1.0000 0.2176755448
H   H344      1.0  0.57340  0.73160  0.47460  1.0000 0.2176755448
H   H345      1.0  0.73160  0.57340  0.22040  1.0000 0.2176755448
H   H346      1.0  0.73160  0.47460  0.57340  1.0000 0.2176755448
H   H347      1.0  0.22040  0.57340  0.47460  1.0000 0.2176755448
H   H348      1.0  0.57340  0.22040  0.73160  1.0000 0.2176755448
H   H349      1.0  0.26840  0.77960  0.42660  1.0000 0.2176755448
H   H350      1.0  0.52540  0.42660  0.77960  1.0000 0.2176755448
H   H351      1.0  0.42660  0.52540  0.26840  1.0000 0.2176755448
H   H352      1.0  0.42660  0.26840  0.77960  1.0000 0.2176755448
H   H353      1.0  0.77960  0.52540  0.42660  1.0000 0.2176755448
H   H354      1.0  0.26840  0.42660  0.52540  1.0000 0.2176755448
H   H355      1.0  0.77960  0.42660  0.26840  1.0000 0.2176755448
H   H356      1.0  0.42660  0.77960  0.52540  1.0000 0.2176755448
H   H357      1.0  0.52540  0.26840  0.42660  1.0000 0.2176755448
H   H358      1.0  0.73160  0.22040  0.47460  1.0000 0.2176755448
H   H359      1.0  0.22040  0.47460  0.73160  1.0000 0.2176755448
H   H360      1.0  0.47460  0.73160  0.22040  1.0000 0.2176755448
H   H361      1.0  0.22040  0.73160  0.47460  1.0000 0.2176755448
H   H362      1.0  0.47460  0.22040  0.73160  1.0000 0.2176755448
H   H363      1.0  0.73160  0.47460  0.22040  1.0000 0.2176755448
H   H364      1.0  0.77960  0.26840  0.42660  1.0000 0.2176755448
H   H365      1.0  0.52540  0.42660  0.26840  1.0000 0.2176755448
H   H366      1.0  0.42660  0.52540  0.77960  1.0000 0.2176755448
H   H367      1.0  0.52540  0.77960  0.42660  1.0000 0.2176755448
H   H368      1.0  0.42660  0.26840  0.52540  1.0000 0.2176755448
H   H369      1.0  0.26840  0.42660  0.77960  1.0000 0.2176755448
H   H370      1.0  0.26840  0.52540  0.42660  1.0000 0.2176755448
H   H371      1.0  0.77960  0.42660  0.52540  1.0000 0.2176755448
H   H372      1.0  0.42660  0.77960  0.26840  1.0000 0.2176755448
H   H373      1.0  0.73160  0.22040  0.57340  1.0000 0.2176755448
H   H374      1.0  0.47460  0.57340  0.22040  1.0000 0.2176755448
H   H375      1.0  0.57340  0.47460  0.73160  1.0000 0.2176755448
H   H376      1.0  0.57340  0.73160  0.22040  1.0000 0.2176755448
H   H377      1.0  0.22040  0.47460  0.57340  1.0000 0.2176755448
H   H378      1.0  0.73160  0.57340  0.47460  1.0000 0.2176755448
H   H379      1.0  0.22040  0.57340  0.73160  1.0000 0.2176755448
H   H380      1.0  0.57340  0.22040  0.47460  1.0000 0.2176755448
H   H381      1.0  0.47460  0.73160  0.57340  1.0000 0.2176755448
H   H382      1.0  0.26840  0.77960  0.52540  1.0000 0.2176755448
H   H383      1.0  0.77960  0.52540  0.26840  1.0000 0.2176755448
H   H384      1.0  0.52540  0.26840  0.77960  1.0000 0.2176755448
H   H385      1.0  0.89830  0.16010  0.63530  1.0000 0.2782100168
H   H386      1.0  0.63530  0.89830  0.16010  1.0000 0.2782100168
H   H387      1.0  0.16010  0.63530  0.89830  1.0000 0.2782100168
H   H388      1.0  0.10170  0.83990  0.69370  1.0000 0.2782100168
H   H389      1.0  0.36470  0.69370  0.83990  1.0000 0.2782100168
H   H390      1.0  0.69370  0.36470  0.10170  1.0000 0.2782100168
H   H391      1.0  0.36470  0.10170  0.69370  1.0000 0.2782100168
H   H392      1.0  0.69370  0.83990  0.36470  1.0000 0.2782100168
H   H393      1.0  0.83990  0.69370  0.10170  1.0000 0.2782100168
H   H394      1.0  0.83990  0.36470  0.69370  1.0000 0.2782100168
H   H395      1.0  0.10170  0.69370  0.36470  1.0000 0.2782100168
H   H396      1.0  0.69370  0.10170  0.83990  1.0000 0.2782100168
H   H397      1.0  0.16010  0.89830  0.30630  1.0000 0.2782100168
H   H398      1.0  0.63530  0.30630  0.89830  1.0000 0.2782100168
H   H399      1.0  0.30630  0.63530  0.16010  1.0000 0.2782100168
H   H400      1.0  0.30630  0.16010  0.89830  1.0000 0.2782100168
H   H401      1.0  0.89830  0.63530  0.30630  1.0000 0.2782100168
H   H402      1.0  0.16010  0.30630  0.63530  1.0000 0.2782100168
H   H403      1.0  0.89830  0.30630  0.16010  1.0000 0.2782100168
H   H404      1.0  0.30630  0.89830  0.63530  1.0000 0.2782100168
H   H405      1.0  0.63530  0.16010  0.30630  1.0000 0.2782100168
H   H406      1.0  0.83990  0.10170  0.36470  1.0000 0.2782100168
H   H407      1.0  0.10170  0.36470  0.83990  1.0000 0.2782100168
H   H408      1.0  0.36470  0.83990  0.10170  1.0000 0.2782100168
H   H409      1.0  0.10170  0.83990  0.36470  1.0000 0.2782100168
H   H410      1.0  0.36470  0.10170  0.83990  1.0000 0.2782100168
H   H411      1.0  0.83990  0.36470  0.10170  1.0000 0.2782100168
H   H412      1.0  0.89830  0.16010  0.30630  1.0000 0.2782100168
H   H413      1.0  0.63530  0.30630  0.16010  1.0000 0.2782100168
H   H414      1.0  0.30630  0.63530  0.89830  1.0000 0.2782100168
H   H415      1.0  0.63530  0.89830  0.30630  1.0000 0.2782100168
H   H416      1.0  0.30630  0.16010  0.63530  1.0000 0.2782100168
H   H417      1.0  0.16010  0.30630  0.89830  1.0000 0.2782100168
H   H418      1.0  0.16010  0.63530  0.30630  1.0000 0.2782100168
H   H419      1.0  0.89830  0.30630  0.63530  1.0000 0.2782100168
H   H420      1.0  0.30630  0.89830  0.16010  1.0000 0.2782100168
H   H421      1.0  0.83990  0.10170  0.69370  1.0000 0.2782100168
H   H422      1.0  0.36470  0.69370  0.10170  1.0000 0.2782100168
H   H423      1.0  0.69370  0.36470  0.83990  1.0000 0.2782100168
H   H424      1.0  0.69370  0.83990  0.10170  1.0000 0.2782100168
H   H425      1.0  0.10170  0.36470  0.69370  1.0000 0.2782100168
H   H426      1.0  0.83990  0.69370  0.36470  1.0000 0.2782100168
H   H427      1.0  0.10170  0.69370  0.83990  1.0000 0.2782100168
H   H428      1.0  0.69370  0.10170  0.36470  1.0000 0.2782100168
H   H429      1.0  0.36470  0.83990  0.69370  1.0000 0.2782100168
H   H430      1.0  0.16010  0.89830  0.63530  1.0000 0.2782100168
H   H431      1.0  0.89830  0.63530  0.16010  1.0000 0.2782100168
H   H432      1.0  0.63530  0.16010  0.89830  1.0000 0.2782100168
H   H433      1.0  0.04470  0.11230  0.67230  1.0000 0.1984180729
H   H434      1.0  0.67230  0.04470  0.11230  1.0000 0.1984180729
H   H435      1.0  0.11230  0.67230  0.04470  1.0000 0.1984180729
H   H436      1.0  0.95530  0.88770  0.82930  1.0000 0.1984180729
H   H437      1.0  0.32770  0.82930  0.88770  1.0000 0.1984180729
H   H438      1.0  0.82930  0.32770  0.95530  1.0000 0.1984180729
H   H439      1.0  0.32770  0.95530  0.82930  1.0000 0.1984180729
H   H440      1.0  0.82930  0.88770  0.32770  1.0000 0.1984180729
H   H441      1.0  0.88770  0.82930  0.95530  1.0000 0.1984180729
H   H442      1.0  0.88770  0.32770  0.82930  1.0000 0.1984180729
H   H443      1.0  0.95530  0.82930  0.32770  1.0000 0.1984180729
H   H444      1.0  0.82930  0.95530  0.88770  1.0000 0.1984180729
H   H445      1.0  0.11230  0.04470  0.17070  1.0000 0.1984180729
H   H446      1.0  0.67230  0.17070  0.04470  1.0000 0.1984180729
H   H447      1.0  0.17070  0.67230  0.11230  1.0000 0.1984180729
H   H448      1.0  0.17070  0.11230  0.04470  1.0000 0.1984180729
H   H449      1.0  0.04470  0.67230  0.17070  1.0000 0.1984180729
H   H450      1.0  0.11230  0.17070  0.67230  1.0000 0.1984180729
H   H451      1.0  0.04470  0.17070  0.11230  1.0000 0.1984180729
H   H452      1.0  0.17070  0.04470  0.67230  1.0000 0.1984180729
H   H453      1.0  0.67230  0.11230  0.17070  1.0000 0.1984180729
H   H454      1.0  0.88770  0.95530  0.32770  1.0000 0.1984180729
H   H455      1.0  0.95530  0.32770  0.88770  1.0000 0.1984180729
H   H456      1.0  0.32770  0.88770  0.95530  1.0000 0.1984180729
H   H457      1.0  0.95530  0.88770  0.32770  1.0000 0.1984180729
H   H458      1.0  0.32770  0.95530  0.88770  1.0000 0.1984180729
H   H459      1.0  0.88770  0.32770  0.95530  1.0000 0.1984180729
H   H460      1.0  0.04470  0.11230  0.17070  1.0000 0.1984180729
H   H461      1.0  0.67230  0.17070  0.11230  1.0000 0.1984180729
H   H462      1.0  0.17070  0.67230  0.04470  1.0000 0.1984180729
H   H463      1.0  0.67230  0.04470  0.17070  1.0000 0.1984180729
H   H464      1.0  0.17070  0.11230  0.67230  1.0000 0.1984180729
H   H465      1.0  0.11230  0.17070  0.04470  1.0000 0.1984180729
H   H466      1.0  0.11230  0.67230  0.17070  1.0000 0.1984180729
H   H467      1.0  0.04470  0.17070  0.67230  1.0000 0.1984180729
H   H468      1.0  0.17070  0.04470  0.11230  1.0000 0.1984180729
H   H469      1.0  0.88770  0.95530  0.82930  1.0000 0.1984180729
H   H470      1.0  0.32770  0.82930  0.95530  1.0000 0.1984180729
H   H471      1.0  0.82930  0.32770  0.88770  1.0000 0.1984180729
H   H472      1.0  0.82930  0.88770  0.95530  1.0000 0.1984180729
H   H473      1.0  0.95530  0.32770  0.82930  1.0000 0.1984180729
H   H474      1.0  0.88770  0.82930  0.32770  1.0000 0.1984180729
H   H475      1.0  0.95530  0.82930  0.88770  1.0000 0.1984180729
H   H476      1.0  0.82930  0.95530  0.32770  1.0000 0.1984180729
H   H477      1.0  0.32770  0.88770  0.82930  1.0000 0.1984180729
H   H478      1.0  0.11230  0.04470  0.67230  1.0000 0.1984180729
H   H479      1.0  0.04470  0.67230  0.11230  1.0000 0.1984180729
H   H480      1.0  0.67230  0.11230  0.04470  1.0000 0.1984180729
C   C1        1.0  0.97262  0.16478  0.43130  1.0000 0.1583304684
C   C2        1.0  0.43130  0.97262  0.16478  1.0000 0.1583304684
C   C3        1.0  0.16478  0.43130  0.97262  1.0000 0.1583304684
C   C4        1.0  0.02738  0.83522  0.56870  1.0000 0.1583304684
C   C5        1.0  0.56870  0.56870  0.83522  1.0000 0.1583304684
C   C6        1.0  0.56870  0.56870  0.02738  1.0000 0.1583304684
C   C7        1.0  0.56870  0.02738  0.56870  1.0000 0.1583304684
C   C8        1.0  0.56870  0.83522  0.56870  1.0000 0.1583304684
C   C9        1.0  0.83522  0.56870  0.02738  1.0000 0.1583304684
C   C10       1.0  0.83522  0.56870  0.56870  1.0000 0.1583304684
C   C11       1.0  0.02738  0.56870  0.56870  1.0000 0.1583304684
C   C12       1.0  0.56870  0.02738  0.83522  1.0000 0.1583304684
C   C13       1.0  0.16478  0.97262  0.43130  1.0000 0.1583304684
C   C14       1.0  0.43130  0.43130  0.97262  1.0000 0.1583304684
C   C15       1.0  0.43130  0.43130  0.16478  1.0000 0.1583304684
C   C16       1.0  0.43130  0.16478  0.97262  1.0000 0.1583304684
C   C17       1.0  0.97262  0.43130  0.43130  1.0000 0.1583304684
C   C18       1.0  0.16478  0.43130  0.43130  1.0000 0.1583304684
C   C19       1.0  0.97262  0.43130  0.16478  1.0000 0.1583304684
C   C20       1.0  0.43130  0.97262  0.43130  1.0000 0.1583304684
C   C21       1.0  0.43130  0.16478  0.43130  1.0000 0.1583304684
C   C22       1.0  0.83522  0.02738  0.56870  1.0000 0.1583304684
C   C23       1.0  0.02738  0.56870  0.83522  1.0000 0.1583304684
C   C24       1.0  0.56870  0.83522  0.02738  1.0000 0.1583304684
C   C25       1.0  0.03483  0.18683  0.41057  1.0000 0.0762668231
C   C26       1.0  0.41057  0.03483  0.18683  1.0000 0.0762668231
C   C27       1.0  0.18683  0.41057  0.03483  1.0000 0.0762668231
C   C28       1.0  0.96517  0.81317  0.63223  1.0000 0.0762668231
C   C29       1.0  0.58943  0.63223  0.81317  1.0000 0.0762668231
C   C30       1.0  0.63223  0.58943  0.96517  1.0000 0.0762668231
C   C31       1.0  0.58943  0.96517  0.63223  1.0000 0.0762668231
C   C32       1.0  0.63223  0.81317  0.58943  1.0000 0.0762668231
C   C33       1.0  0.81317  0.63223  0.96517  1.0000 0.0762668231
C   C34       1.0  0.81317  0.58943  0.63223  1.0000 0.0762668231
C   C35       1.0  0.96517  0.63223  0.58943  1.0000 0.0762668231
C   C36       1.0  0.63223  0.96517  0.81317  1.0000 0.0762668231
C   C37       1.0  0.18683  0.03483  0.36777  1.0000 0.0762668231
C   C38       1.0  0.41057  0.36777  0.03483  1.0000 0.0762668231
C   C39       1.0  0.36777  0.41057  0.18683  1.0000 0.0762668231
C   C40       1.0  0.36777  0.18683  0.03483  1.0000 0.0762668231
C   C41       1.0  0.03483  0.41057  0.36777  1.0000 0.0762668231
C   C42       1.0  0.18683  0.36777  0.41057  1.0000 0.0762668231
C   C43       1.0  0.03483  0.36777  0.18683  1.0000 0.0762668231
C   C44       1.0  0.36777  0.03483  0.41057  1.0000 0.0762668231
C   C45       1.0  0.41057  0.18683  0.36777  1.0000 0.0762668231
C   C46       1.0  0.81317  0.96517  0.58943  1.0000 0.0762668231
C   C47       1.0  0.96517  0.58943  0.81317  1.0000 0.0762668231
C   C48       1.0  0.58943  0.81317  0.96517  1.0000 0.0762668231
C   C49       1.0  0.96517  0.81317  0.58943  1.0000 0.0762668231
C   C50       1.0  0.58943  0.96517  0.81317  1.0000 0.0762668231
C   C51       1.0  0.81317  0.58943  0.96517  1.0000 0.0762668231
C   C52       1.0  0.03483  0.18683  0.36777  1.0000 0.0762668231
C   C53       1.0  0.41057  0.36777  0.18683  1.0000 0.0762668231
C   C54       1.0  0.36777  0.41057  0.03483  1.0000 0.0762668231
C   C55       1.0  0.41057  0.03483  0.36777  1.0000 0.0762668231
C   C56       1.0  0.36777  0.18683  0.41057  1.0000 0.0762668231
C   C57       1.0  0.18683  0.36777  0.03483  1.0000 0.0762668231
C   C58       1.0  0.18683  0.41057  0.36777  1.0000 0.0762668231
C   C59       1.0  0.03483  0.36777  0.41057  1.0000 0.0762668231
C   C60       1.0  0.36777  0.03483  0.18683  1.0000 0.0762668231
C   C61       1.0  0.81317  0.96517  0.63223  1.0000 0.0762668231
C   C62       1.0  0.58943  0.63223  0.96517  1.0000 0.0762668231
C   C63       1.0  0.63223  0.58943  0.81317  1.0000 0.0762668231
C   C64       1.0  0.63223  0.81317  0.96517  1.0000 0.0762668231
C   C65       1.0  0.96517  0.58943  0.63223  1.0000 0.0762668231
C   C66       1.0  0.81317  0.63223  0.58943  1.0000 0.0762668231
C   C67       1.0  0.96517  0.63223  0.81317  1.0000 0.0762668231
C   C68       1.0  0.63223  0.96517  0.58943  1.0000 0.0762668231
C   C69       1.0  0.58943  0.81317  0.63223  1.0000 0.0762668231
C   C70       1.0  0.18683  0.03483  0.41057  1.0000 0.0762668231
C   C71       1.0  0.03483  0.41057  0.18683  1.0000 0.0762668231
C   C72       1.0  0.41057  0.18683  0.03483  1.0000 0.0762668231
C   C73       1.0  0.06930  0.20110  0.40850  1.0000 -0.1101094638
C   C74       1.0  0.40850  0.06930  0.20110  1.0000 -0.1159454871
C   C75       1.0  0.20110  0.40850  0.06930  1.0000 -0.1159454871
C   C76       1.0  0.93070  0.79890  0.67890  1.0000 -0.1101094638
C   C77       1.0  0.59150  0.67890  0.79890  1.0000 -0.1101094638
C   C78       1.0  0.67890  0.59150  0.93070  1.0000 -0.1159454871
C   C79       1.0  0.59150  0.93070  0.67890  1.0000 -0.1101094638
C   C80       1.0  0.67890  0.79890  0.59150  1.0000 -0.1159454871
C   C81       1.0  0.79890  0.67890  0.93070  1.0000 -0.1101094638
C   C82       1.0  0.79890  0.59150  0.67890  1.0000 -0.1101094638
C   C83       1.0  0.93070  0.67890  0.59150  1.0000 -0.1159454871
C   C84       1.0  0.67890  0.93070  0.79890  1.0000 -0.1159454871
C   C85       1.0  0.20110  0.06930  0.32110  1.0000 -0.1101094638
C   C86       1.0  0.40850  0.32110  0.06930  1.0000 -0.1101094638
C   C87       1.0  0.32110  0.40850  0.20110  1.0000 -0.1159454871
C   C88       1.0  0.32110  0.20110  0.06930  1.0000 -0.1159454871
C   C89       1.0  0.06930  0.40850  0.32110  1.0000 -0.1159454871
C   C90       1.0  0.20110  0.32110  0.40850  1.0000 -0.1159454871
C   C91       1.0  0.06930  0.32110  0.20110  1.0000 -0.1101094638
C   C92       1.0  0.32110  0.06930  0.40850  1.0000 -0.1159454871
C   C93       1.0  0.40850  0.20110  0.32110  1.0000 -0.1101094638
C   C94       1.0  0.79890  0.93070  0.59150  1.0000 -0.1101094638
C   C95       1.0  0.93070  0.59150  0.79890  1.0000 -0.1101094638
C   C96       1.0  0.59150  0.79890  0.93070  1.0000 -0.1159454871
C   C97       1.0  0.93070  0.79890  0.59150  1.0000 -0.1159454871
C   C98       1.0  0.59150  0.93070  0.79890  1.0000 -0.1159454871
C   C99       1.0  0.79890  0.59150  0.93070  1.0000 -0.1159454871
C   C100      1.0  0.06930  0.20110  0.32110  1.0000 -0.1101094638
C   C101      1.0  0.40850  0.32110  0.20110  1.0000 -0.1159454871
C   C102      1.0  0.32110  0.40850  0.06930  1.0000 -0.1159454871
C   C103      1.0  0.40850  0.06930  0.32110  1.0000 -0.1159454871
C   C104      1.0  0.32110  0.20110  0.40850  1.0000 -0.1159454871
C   C105      1.0  0.20110  0.32110  0.06930  1.0000 -0.1159454871
C   C106      1.0  0.20110  0.40850  0.32110  1.0000 -0.1159454871
C   C107      1.0  0.06930  0.32110  0.40850  1.0000 -0.1159454871
C   C108      1.0  0.32110  0.06930  0.20110  1.0000 -0.1159454871
C   C109      1.0  0.79890  0.93070  0.67890  1.0000 -0.1159454871
C   C110      1.0  0.59150  0.67890  0.93070  1.0000 -0.1101094638
C   C111      1.0  0.67890  0.59150  0.79890  1.0000 -0.1101094638
C   C112      1.0  0.67890  0.79890  0.93070  1.0000 -0.1101094638
C   C113      1.0  0.93070  0.59150  0.67890  1.0000 -0.1101094638
C   C114      1.0  0.79890  0.67890  0.59150  1.0000 -0.1101094638
C   C115      1.0  0.93070  0.67890  0.79890  1.0000 -0.1101094638
C   C116      1.0  0.67890  0.93070  0.59150  1.0000 -0.1159454871
C   C117      1.0  0.59150  0.79890  0.67890  1.0000 -0.1159454871
C   C118      1.0  0.20110  0.06930  0.40850  1.0000 -0.1101094638
C   C119      1.0  0.06930  0.40850  0.20110  1.0000 -0.1159454871
C   C120      1.0  0.40850  0.20110  0.06930  1.0000 -0.1101094638
C   C121      1.0  0.91110  0.08890  0.58630  1.0000 0.1175736793
C   C122      1.0  0.58630  0.91110  0.08890  1.0000 0.1175736793
C   C123      1.0  0.08890  0.58630  0.91110  1.0000 0.1175736793
C   C124      1.0  0.08890  0.91110  0.58630  1.0000 0.1175736793
C   C125      1.0  0.41370  0.58630  0.91110  1.0000 0.1175736793
C   C126      1.0  0.58630  0.41370  0.08890  1.0000 0.1175736793
C   C127      1.0  0.41370  0.08890  0.58630  1.0000 0.1175736793
C   C128      1.0  0.58630  0.91110  0.41370  1.0000 0.1175736793
C   C129      1.0  0.91110  0.58630  0.08890  1.0000 0.1175736793
C   C130      1.0  0.91110  0.41370  0.58630  1.0000 0.1175736793
C   C131      1.0  0.08890  0.58630  0.41370  1.0000 0.1175736793
C   C132      1.0  0.58630  0.08890  0.91110  1.0000 0.1175736793
C   C133      1.0  0.08890  0.91110  0.41370  1.0000 0.1175736793
C   C134      1.0  0.58630  0.41370  0.91110  1.0000 0.1175736793
C   C135      1.0  0.41370  0.58630  0.08890  1.0000 0.1175736793
C   C136      1.0  0.41370  0.08890  0.91110  1.0000 0.1175736793
C   C137      1.0  0.91110  0.58630  0.41370  1.0000 0.1175736793
C   C138      1.0  0.08890  0.41370  0.58630  1.0000 0.1175736793
C   C139      1.0  0.91110  0.41370  0.08890  1.0000 0.1175736793
C   C140      1.0  0.41370  0.91110  0.58630  1.0000 0.1175736793
C   C141      1.0  0.58630  0.08890  0.41370  1.0000 0.1175736793
C   C142      1.0  0.91110  0.08890  0.41370  1.0000 0.1175736793
C   C143      1.0  0.08890  0.41370  0.91110  1.0000 0.1175736793
C   C144      1.0  0.41370  0.91110  0.08890  1.0000 0.1175736793
C   C145      1.0  0.86425  0.16629  0.55467  1.0000 0.0546136006
C   C146      1.0  0.55467  0.86425  0.16629  1.0000 0.0546136006
C   C147      1.0  0.16629  0.55467  0.86425  1.0000 0.0546136006
C   C148      1.0  0.13575  0.83371  0.58521  1.0000 0.0546136006
C   C149      1.0  0.44533  0.58521  0.83371  1.0000 0.0546136006
C   C150      1.0  0.58521  0.44533  0.13575  1.0000 0.0554571464
C   C151      1.0  0.44533  0.13575  0.58521  1.0000 0.0554571464
C   C152      1.0  0.58521  0.83371  0.44533  1.0000 0.0546136006
C   C153      1.0  0.83371  0.58521  0.13575  1.0000 0.0546136006
C   C154      1.0  0.83371  0.44533  0.58521  1.0000 0.0554571464
C   C155      1.0  0.13575  0.58521  0.44533  1.0000 0.0546136006
C   C156      1.0  0.58521  0.13575  0.83371  1.0000 0.0554571464
C   C157      1.0  0.16629  0.86425  0.41479  1.0000 0.0546136006
C   C158      1.0  0.55467  0.41479  0.86425  1.0000 0.0546136006
C   C159      1.0  0.41479  0.55467  0.16629  1.0000 0.0554571464
C   C160      1.0  0.41479  0.16629  0.86425  1.0000 0.0554571464
C   C161      1.0  0.86425  0.55467  0.41479  1.0000 0.0546136006
C   C162      1.0  0.16629  0.41479  0.55467  1.0000 0.0546136006
C   C163      1.0  0.86425  0.41479  0.16629  1.0000 0.0546136006
C   C164      1.0  0.41479  0.86425  0.55467  1.0000 0.0546136006
C   C165      1.0  0.55467  0.16629  0.41479  1.0000 0.0546136006
C   C166      1.0  0.83371  0.13575  0.44533  1.0000 0.0546136006
C   C167      1.0  0.13575  0.44533  0.83371  1.0000 0.0546136006
C   C168      1.0  0.44533  0.83371  0.13575  1.0000 0.0546136006
C   C169      1.0  0.13575  0.83371  0.44533  1.0000 0.0546136006
C   C170      1.0  0.44533  0.13575  0.83371  1.0000 0.0546136006
C   C171      1.0  0.83371  0.44533  0.13575  1.0000 0.0546136006
C   C172      1.0  0.86425  0.16629  0.41479  1.0000 0.0554571464
C   C173      1.0  0.55467  0.41479  0.16629  1.0000 0.0554571464
C   C174      1.0  0.41479  0.55467  0.86425  1.0000 0.0546136006
C   C175      1.0  0.55467  0.86425  0.41479  1.0000 0.0546136006
C   C176      1.0  0.41479  0.16629  0.55467  1.0000 0.0546136006
C   C177      1.0  0.16629  0.41479  0.86425  1.0000 0.0546136006
C   C178      1.0  0.16629  0.55467  0.41479  1.0000 0.0554571464
C   C179      1.0  0.86425  0.41479  0.55467  1.0000 0.0546136006
C   C180      1.0  0.41479  0.86425  0.16629  1.0000 0.0554571464
C   C181      1.0  0.83371  0.13575  0.58521  1.0000 0.0554571464
C   C182      1.0  0.44533  0.58521  0.13575  1.0000 0.0554571464
C   C183      1.0  0.58521  0.44533  0.83371  1.0000 0.0546136006
C   C184      1.0  0.58521  0.83371  0.13575  1.0000 0.0546136006
C   C185      1.0  0.13575  0.44533  0.58521  1.0000 0.0546136006
C   C186      1.0  0.83371  0.58521  0.44533  1.0000 0.0546136006
C   C187      1.0  0.13575  0.58521  0.83371  1.0000 0.0546136006
C   C188      1.0  0.58521  0.13575  0.44533  1.0000 0.0546136006
C   C189      1.0  0.44533  0.83371  0.58521  1.0000 0.0554571464
C   C190      1.0  0.16629  0.86425  0.55467  1.0000 0.0546136006
C   C191      1.0  0.86425  0.55467  0.16629  1.0000 0.0554571464
C   C192      1.0  0.55467  0.16629  0.86425  1.0000 0.0554571464
C   C193      1.0  0.84600  0.21620  0.52940  1.0000 -0.1159454871
C   C194      1.0  0.52940  0.84600  0.21620  1.0000 -0.1159454871
C   C195      1.0  0.21620  0.52940  0.84600  1.0000 -0.1159454871
C   C196      1.0  0.15400  0.78380  0.59160  1.0000 -0.1159454871
C   C197      1.0  0.47060  0.59160  0.78380  1.0000 -0.1159454871
C   C198      1.0  0.59160  0.47060  0.15400  1.0000 -0.1159454871
C   C199      1.0  0.47060  0.15400  0.59160  1.0000 -0.1159454871
C   C200      1.0  0.59160  0.78380  0.47060  1.0000 -0.1159454871
C   C201      1.0  0.78380  0.59160  0.15400  1.0000 -0.1159454871
C   C202      1.0  0.78380  0.47060  0.59160  1.0000 -0.1159454871
C   C203      1.0  0.15400  0.59160  0.47060  1.0000 -0.1159454871
C   C204      1.0  0.59160  0.15400  0.78380  1.0000 -0.1101094638
C   C205      1.0  0.21620  0.84600  0.40840  1.0000 -0.1159454871
C   C206      1.0  0.52940  0.40840  0.84600  1.0000 -0.1159454871
C   C207      1.0  0.40840  0.52940  0.21620  1.0000 -0.1159454871
C   C208      1.0  0.40840  0.21620  0.84600  1.0000 -0.1159454871
C   C209      1.0  0.84600  0.52940  0.40840  1.0000 -0.1159454871
C   C210      1.0  0.21620  0.40840  0.52940  1.0000 -0.1159454871
C   C211      1.0  0.84600  0.40840  0.21620  1.0000 -0.1159454871
C   C212      1.0  0.40840  0.84600  0.52940  1.0000 -0.1159454871
C   C213      1.0  0.52940  0.21620  0.40840  1.0000 -0.1159454871
C   C214      1.0  0.78380  0.15400  0.47060  1.0000 -0.1159454871
C   C215      1.0  0.15400  0.47060  0.78380  1.0000 -0.1159454871
C   C216      1.0  0.47060  0.78380  0.15400  1.0000 -0.1159454871
C   C217      1.0  0.15400  0.78380  0.47060  1.0000 -0.1159454871
C   C218      1.0  0.47060  0.15400  0.78380  1.0000 -0.1159454871
C   C219      1.0  0.78380  0.47060  0.15400  1.0000 -0.1159454871
C   C220      1.0  0.84600  0.21620  0.40840  1.0000 -0.1159454871
C   C221      1.0  0.52940  0.40840  0.21620  1.0000 -0.1159454871
C   C222      1.0  0.40840  0.52940  0.84600  1.0000 -0.1159454871
C   C223      1.0  0.52940  0.84600  0.40840  1.0000 -0.1159454871
C   C224      1.0  0.40840  0.21620  0.52940  1.0000 -0.1159454871
C   C225      1.0  0.21620  0.40840  0.84600  1.0000 -0.1159454871
C   C226      1.0  0.21620  0.52940  0.40840  1.0000 -0.1159454871
C   C227      1.0  0.84600  0.40840  0.52940  1.0000 -0.1159454871
C   C228      1.0  0.40840  0.84600  0.21620  1.0000 -0.1159454871
C   C229      1.0  0.78380  0.15400  0.59160  1.0000 -0.1159454871
C   C230      1.0  0.47060  0.59160  0.15400  1.0000 -0.1159454871
C   C231      1.0  0.59160  0.47060  0.78380  1.0000 -0.1159454871
C   C232      1.0  0.59160  0.78380  0.15400  1.0000 -0.1159454871
C   C233      1.0  0.15400  0.47060  0.59160  1.0000 -0.1159454871
C   C234      1.0  0.78380  0.59160  0.47060  1.0000 -0.1159454871
C   C235      1.0  0.15400  0.59160  0.78380  1.0000 -0.1159454871
C   C236      1.0  0.59160  0.15400  0.47060  1.0000 -0.1159454871
C   C237      1.0  0.47060  0.78380  0.59160  1.0000 -0.1159454871
C   C238      1.0  0.21620  0.84600  0.52940  1.0000 -0.1159454871
C   C239      1.0  0.84600  0.52940  0.21620  1.0000 -0.1159454871
C   C240      1.0  0.52940  0.21620  0.84600  1.0000 -0.1159454871
C   C241      1.0  0.96930  0.25470  0.52130  1.0000 0.1527313741
C   C242      1.0  0.52130  0.96930  0.25470  1.0000 0.1527313741
C   C243      1.0  0.25470  0.52130  0.96930  1.0000 0.1527313741
C   C244      1.0  0.03070  0.74530  0.74530  1.0000 0.1527313741
C   C245      1.0  0.47870  0.74530  0.74530  1.0000 0.1527313741
C   C246      1.0  0.74530  0.47870  0.03070  1.0000 0.1527313741
C   C247      1.0  0.47870  0.03070  0.74530  1.0000 0.1527313741
C   C248      1.0  0.74530  0.74530  0.47870  1.0000 0.1527313741
C   C249      1.0  0.74530  0.74530  0.03070  1.0000 0.1527313741
C   C250      1.0  0.74530  0.47870  0.74530  1.0000 0.1527313741
C   C251      1.0  0.03070  0.74530  0.47870  1.0000 0.1527313741
C   C252      1.0  0.74530  0.03070  0.74530  1.0000 0.1527313741
C   C253      1.0  0.25470  0.96930  0.25470  1.0000 0.1527313741
C   C254      1.0  0.52130  0.25470  0.96930  1.0000 0.1527313741
C   C255      1.0  0.25470  0.52130  0.25470  1.0000 0.1527313741
C   C256      1.0  0.25470  0.25470  0.96930  1.0000 0.1527313741
C   C257      1.0  0.96930  0.52130  0.25470  1.0000 0.1527313741
C   C258      1.0  0.25470  0.25470  0.52130  1.0000 0.1527313741
C   C259      1.0  0.96930  0.25470  0.25470  1.0000 0.1527313741
C   C260      1.0  0.25470  0.96930  0.52130  1.0000 0.1527313741
C   C261      1.0  0.52130  0.25470  0.25470  1.0000 0.1527313741
C   C262      1.0  0.74530  0.03070  0.47870  1.0000 0.1527313741
C   C263      1.0  0.03070  0.47870  0.74530  1.0000 0.1527313741
C   C264      1.0  0.47870  0.74530  0.03070  1.0000 0.1527313741
C   C265      1.0  0.92070  0.22294  0.59158  1.0000 0.1583304684
C   C266      1.0  0.59158  0.92070  0.22294  1.0000 0.1583304684
C   C267      1.0  0.22294  0.59158  0.92070  1.0000 0.1583304684
C   C268      1.0  0.07930  0.77706  0.73522  1.0000 0.1583304684
C   C269      1.0  0.40842  0.73522  0.77706  1.0000 0.1583304684
C   C270      1.0  0.73522  0.40842  0.07930  1.0000 0.1583304684
C   C271      1.0  0.40842  0.07930  0.73522  1.0000 0.1583304684
C   C272      1.0  0.73522  0.77706  0.40842  1.0000 0.1583304684
C   C273      1.0  0.77706  0.73522  0.07930  1.0000 0.1583304684
C   C274      1.0  0.77706  0.40842  0.73522  1.0000 0.1583304684
C   C275      1.0  0.07930  0.73522  0.40842  1.0000 0.1583304684
C   C276      1.0  0.73522  0.07930  0.77706  1.0000 0.1583304684
C   C277      1.0  0.22294  0.92070  0.26478  1.0000 0.1583304684
C   C278      1.0  0.59158  0.26478  0.92070  1.0000 0.1583304684
C   C279      1.0  0.26478  0.59158  0.22294  1.0000 0.1583304684
C   C280      1.0  0.26478  0.22294  0.92070  1.0000 0.1583304684
C   C281      1.0  0.92070  0.59158  0.26478  1.0000 0.1583304684
C   C282      1.0  0.22294  0.26478  0.59158  1.0000 0.1583304684
C   C283      1.0  0.92070  0.26478  0.22294  1.0000 0.1583304684
C   C284      1.0  0.26478  0.92070  0.59158  1.0000 0.1583304684
C   C285      1.0  0.59158  0.22294  0.26478  1.0000 0.1583304684
C   C286      1.0  0.77706  0.07930  0.40842  1.0000 0.1583304684
C   C287      1.0  0.07930  0.40842  0.77706  1.0000 0.1583304684
C   C288      1.0  0.40842  0.77706  0.07930  1.0000 0.1583304684
C   C289      1.0  0.07930  0.77706  0.40842  1.0000 0.1583304684
C   C290      1.0  0.40842  0.07930  0.77706  1.0000 0.1583304684
C   C291      1.0  0.77706  0.40842  0.07930  1.0000 0.1583304684
C   C292      1.0  0.92070  0.22294  0.26478  1.0000 0.1583304684
C   C293      1.0  0.59158  0.26478  0.22294  1.0000 0.1583304684
C   C294      1.0  0.26478  0.59158  0.92070  1.0000 0.1583304684
C   C295      1.0  0.59158  0.92070  0.26478  1.0000 0.1583304684
C   C296      1.0  0.26478  0.22294  0.59158  1.0000 0.1583304684
C   C297      1.0  0.22294  0.26478  0.92070  1.0000 0.1583304684
C   C298      1.0  0.22294  0.59158  0.26478  1.0000 0.1583304684
C   C299      1.0  0.92070  0.26478  0.59158  1.0000 0.1583304684
C   C300      1.0  0.26478  0.92070  0.22294  1.0000 0.1583304684
C   C301      1.0  0.77706  0.07930  0.73522  1.0000 0.1583304684
C   C302      1.0  0.40842  0.73522  0.07930  1.0000 0.1583304684
C   C303      1.0  0.73522  0.40842  0.77706  1.0000 0.1583304684
C   C304      1.0  0.73522  0.77706  0.07930  1.0000 0.1583304684
C   C305      1.0  0.07930  0.40842  0.73522  1.0000 0.1583304684
C   C306      1.0  0.77706  0.73522  0.40842  1.0000 0.1583304684
C   C307      1.0  0.07930  0.73522  0.77706  1.0000 0.1583304684
C   C308      1.0  0.73522  0.07930  0.40842  1.0000 0.1583304684
C   C309      1.0  0.40842  0.77706  0.73522  1.0000 0.1583304684
C   C310      1.0  0.22294  0.92070  0.59158  1.0000 0.1583304684
C   C311      1.0  0.92070  0.59158  0.22294  1.0000 0.1583304684
C   C312      1.0  0.59158  0.22294  0.92070  1.0000 0.1583304684
C   C313      1.0  0.86775  0.20809  0.67641  1.0000 -0.0901083236
C   C314      1.0  0.67641  0.86775  0.20809  1.0000 -0.0901083236
C   C315      1.0  0.20809  0.67641  0.86775  1.0000 -0.0901083236
C   C316      1.0  0.13225  0.79191  0.75225  1.0000 -0.0901083236
C   C317      1.0  0.32359  0.75225  0.79191  1.0000 -0.0901083236
C   C318      1.0  0.75225  0.32359  0.13225  1.0000 -0.0901083236
C   C319      1.0  0.32359  0.13225  0.75225  1.0000 -0.0901083236
C   C320      1.0  0.75225  0.79191  0.32359  1.0000 -0.0901083236
C   C321      1.0  0.79191  0.75225  0.13225  1.0000 -0.0901083236
C   C322      1.0  0.79191  0.32359  0.75225  1.0000 -0.0901083236
C   C323      1.0  0.13225  0.75225  0.32359  1.0000 -0.0901083236
C   C324      1.0  0.75225  0.13225  0.79191  1.0000 -0.0901083236
C   C325      1.0  0.20809  0.86775  0.24775  1.0000 -0.0901083236
C   C326      1.0  0.67641  0.24775  0.86775  1.0000 -0.0901083236
C   C327      1.0  0.24775  0.67641  0.20809  1.0000 -0.0901083236
C   C328      1.0  0.24775  0.20809  0.86775  1.0000 -0.0901083236
C   C329      1.0  0.86775  0.67641  0.24775  1.0000 -0.0901083236
C   C330      1.0  0.20809  0.24775  0.67641  1.0000 -0.0901083236
C   C331      1.0  0.86775  0.24775  0.20809  1.0000 -0.0901083236
C   C332      1.0  0.24775  0.86775  0.67641  1.0000 -0.0901083236
C   C333      1.0  0.67641  0.20809  0.24775  1.0000 -0.0901083236
C   C334      1.0  0.79191  0.13225  0.32359  1.0000 -0.0901083236
C   C335      1.0  0.13225  0.32359  0.79191  1.0000 -0.0901083236
C   C336      1.0  0.32359  0.79191  0.13225  1.0000 -0.0901083236
C   C337      1.0  0.13225  0.79191  0.32359  1.0000 -0.0901083236
C   C338      1.0  0.32359  0.13225  0.79191  1.0000 -0.0901083236
C   C339      1.0  0.79191  0.32359  0.13225  1.0000 -0.0901083236
C   C340      1.0  0.86775  0.20809  0.24775  1.0000 -0.0901083236
C   C341      1.0  0.67641  0.24775  0.20809  1.0000 -0.0901083236
C   C342      1.0  0.24775  0.67641  0.86775  1.0000 -0.0901083236
C   C343      1.0  0.67641  0.86775  0.24775  1.0000 -0.0901083236
C   C344      1.0  0.24775  0.20809  0.67641  1.0000 -0.0901083236
C   C345      1.0  0.20809  0.24775  0.86775  1.0000 -0.0901083236
C   C346      1.0  0.20809  0.67641  0.24775  1.0000 -0.0901083236
C   C347      1.0  0.86775  0.24775  0.67641  1.0000 -0.0901083236
C   C348      1.0  0.24775  0.86775  0.20809  1.0000 -0.0901083236
C   C349      1.0  0.79191  0.13225  0.75225  1.0000 -0.0901083236
C   C350      1.0  0.32359  0.75225  0.13225  1.0000 -0.0901083236
C   C351      1.0  0.75225  0.32359  0.79191  1.0000 -0.0901083236
C   C352      1.0  0.75225  0.79191  0.13225  1.0000 -0.0901083236
C   C353      1.0  0.13225  0.32359  0.75225  1.0000 -0.0901083236
C   C354      1.0  0.79191  0.75225  0.32359  1.0000 -0.0901083236
C   C355      1.0  0.13225  0.75225  0.79191  1.0000 -0.0901083236
C   C356      1.0  0.75225  0.13225  0.32359  1.0000 -0.0901083236
C   C357      1.0  0.32359  0.79191  0.75225  1.0000 -0.0901083236
C   C358      1.0  0.20809  0.86775  0.67641  1.0000 -0.0901083236
C   C359      1.0  0.86775  0.67641  0.20809  1.0000 -0.0901083236
C   C360      1.0  0.67641  0.20809  0.86775  1.0000 -0.0901083236
C   C361      1.0  0.06326  0.06326  0.52978  1.0000 0.1667755528
C   C362      1.0  0.52978  0.06326  0.06326  1.0000 0.1667755528
C   C363      1.0  0.06326  0.52978  0.06326  1.0000 0.1667755528
C   C364      1.0  0.93674  0.93674  0.65630  1.0000 0.1667755528
C   C365      1.0  0.47022  0.65630  0.93674  1.0000 0.1667755528
C   C366      1.0  0.65630  0.47022  0.93674  1.0000 0.1667755528
C   C367      1.0  0.47022  0.93674  0.65630  1.0000 0.1667755528
C   C368      1.0  0.65630  0.93674  0.47022  1.0000 0.1667755528
C   C369      1.0  0.93674  0.65630  0.93674  1.0000 0.1667755528
C   C370      1.0  0.93674  0.47022  0.65630  1.0000 0.1667755528
C   C371      1.0  0.93674  0.65630  0.47022  1.0000 0.1667755528
C   C372      1.0  0.65630  0.93674  0.93674  1.0000 0.1667755528
C   C373      1.0  0.06326  0.06326  0.34370  1.0000 0.1667755528
C   C374      1.0  0.52978  0.34370  0.06326  1.0000 0.1667755528
C   C375      1.0  0.34370  0.52978  0.06326  1.0000 0.1667755528
C   C376      1.0  0.34370  0.06326  0.06326  1.0000 0.1667755528
C   C377      1.0  0.06326  0.52978  0.34370  1.0000 0.1667755528
C   C378      1.0  0.06326  0.34370  0.52978  1.0000 0.1667755528
C   C379      1.0  0.06326  0.34370  0.06326  1.0000 0.1667755528
C   C380      1.0  0.34370  0.06326  0.52978  1.0000 0.1667755528
C   C381      1.0  0.52978  0.06326  0.34370  1.0000 0.1667755528
C   C382      1.0  0.93674  0.93674  0.47022  1.0000 0.1667755528
C   C383      1.0  0.93674  0.47022  0.93674  1.0000 0.1667755528
C   C384      1.0  0.47022  0.93674  0.93674  1.0000 0.1667755528
C   C385      1.0  0.04872  0.09082  0.58526  1.0000 0.0762668231
C   C386      1.0  0.58526  0.04872  0.09082  1.0000 0.0762668231
C   C387      1.0  0.09082  0.58526  0.04872  1.0000 0.0762668231
C   C388      1.0  0.95128  0.90918  0.72480  1.0000 0.0762668231
C   C389      1.0  0.41474  0.72480  0.90918  1.0000 0.0762668231
C   C390      1.0  0.72480  0.41474  0.95128  1.0000 0.0762668231
C   C391      1.0  0.41474  0.95128  0.72480  1.0000 0.0762668231
C   C392      1.0  0.72480  0.90918  0.41474  1.0000 0.0762668231
C   C393      1.0  0.90918  0.72480  0.95128  1.0000 0.0748149991
C   C394      1.0  0.90918  0.41474  0.72480  1.0000 0.0762668231
C   C395      1.0  0.95128  0.72480  0.41474  1.0000 0.0762668231
C   C396      1.0  0.72480  0.95128  0.90918  1.0000 0.0762668231
C   C397      1.0  0.09082  0.04872  0.27520  1.0000 0.0762668231
C   C398      1.0  0.58526  0.27520  0.04872  1.0000 0.0748149991
C   C399      1.0  0.27520  0.58526  0.09082  1.0000 0.0762668231
C   C400      1.0  0.27520  0.09082  0.04872  1.0000 0.0748149991
C   C401      1.0  0.04872  0.58526  0.27520  1.0000 0.0762668231
C   C402      1.0  0.09082  0.27520  0.58526  1.0000 0.0762668231
C   C403      1.0  0.04872  0.27520  0.09082  1.0000 0.0748149991
C   C404      1.0  0.27520  0.04872  0.58526  1.0000 0.0762668231
C   C405      1.0  0.58526  0.09082  0.27520  1.0000 0.0762668231
C   C406      1.0  0.90918  0.95128  0.41474  1.0000 0.0762668231
C   C407      1.0  0.95128  0.41474  0.90918  1.0000 0.0762668231
C   C408      1.0  0.41474  0.90918  0.95128  1.0000 0.0762668231
C   C409      1.0  0.95128  0.90918  0.41474  1.0000 0.0762668231
C   C410      1.0  0.41474  0.95128  0.90918  1.0000 0.0762668231
C   C411      1.0  0.90918  0.41474  0.95128  1.0000 0.0748149991
C   C412      1.0  0.04872  0.09082  0.27520  1.0000 0.0748149991
C   C413      1.0  0.58526  0.27520  0.09082  1.0000 0.0762668231
C   C414      1.0  0.27520  0.58526  0.04872  1.0000 0.0762668231
C   C415      1.0  0.58526  0.04872  0.27520  1.0000 0.0762668231
C   C416      1.0  0.27520  0.09082  0.58526  1.0000 0.0762668231
C   C417      1.0  0.09082  0.27520  0.04872  1.0000 0.0762668231
C   C418      1.0  0.09082  0.58526  0.27520  1.0000 0.0762668231
C   C419      1.0  0.04872  0.27520  0.58526  1.0000 0.0762668231
C   C420      1.0  0.27520  0.04872  0.09082  1.0000 0.0762668231
C   C421      1.0  0.90918  0.95128  0.72480  1.0000 0.0762668231
C   C422      1.0  0.41474  0.72480  0.95128  1.0000 0.0762668231
C   C423      1.0  0.72480  0.41474  0.90918  1.0000 0.0762668231
C   C424      1.0  0.72480  0.90918  0.95128  1.0000 0.0762668231
C   C425      1.0  0.95128  0.41474  0.72480  1.0000 0.0762668231
C   C426      1.0  0.90918  0.72480  0.41474  1.0000 0.0762668231
C   C427      1.0  0.95128  0.72480  0.90918  1.0000 0.0762668231
C   C428      1.0  0.72480  0.95128  0.41474  1.0000 0.0762668231
C   C429      1.0  0.41474  0.90918  0.72480  1.0000 0.0748149991
C   C430      1.0  0.09082  0.04872  0.58526  1.0000 0.0762668231
C   C431      1.0  0.04872  0.58526  0.09082  1.0000 0.0762668231
C   C432      1.0  0.58526  0.09082  0.04872  1.0000 0.0748149991
C   C433      1.0  0.02764  0.11766  0.61756  1.0000 -0.1524134478
C   C434      1.0  0.61756  0.02764  0.11766  1.0000 -0.1524134478
C   C435      1.0  0.11766  0.61756  0.02764  1.0000 -0.1524134478
C   C436      1.0  0.97236  0.88234  0.76286  1.0000 -0.1558271017
C   C437      1.0  0.38244  0.76286  0.88234  1.0000 -0.1558271017
C   C438      1.0  0.76286  0.38244  0.97236  1.0000 -0.1558271017
C   C439      1.0  0.38244  0.97236  0.76286  1.0000 -0.1558271017
C   C440      1.0  0.76286  0.88234  0.38244  1.0000 -0.1558271017
C   C441      1.0  0.88234  0.76286  0.97236  1.0000 -0.1558271017
C   C442      1.0  0.88234  0.38244  0.76286  1.0000 -0.1524134478
C   C443      1.0  0.97236  0.76286  0.38244  1.0000 -0.1558271017
C   C444      1.0  0.76286  0.97236  0.88234  1.0000 -0.1524134478
C   C445      1.0  0.11766  0.02764  0.23714  1.0000 -0.1524134478
C   C446      1.0  0.61756  0.23714  0.02764  1.0000 -0.1524134478
C   C447      1.0  0.23714  0.61756  0.11766  1.0000 -0.1524134478
C   C448      1.0  0.23714  0.11766  0.02764  1.0000 -0.1524134478
C   C449      1.0  0.02764  0.61756  0.23714  1.0000 -0.1524134478
C   C450      1.0  0.11766  0.23714  0.61756  1.0000 -0.1524134478
C   C451      1.0  0.02764  0.23714  0.11766  1.0000 -0.1524134478
C   C452      1.0  0.23714  0.02764  0.61756  1.0000 -0.1558271017
C   C453      1.0  0.61756  0.11766  0.23714  1.0000 -0.1558271017
C   C454      1.0  0.88234  0.97236  0.38244  1.0000 -0.1558271017
C   C455      1.0  0.97236  0.38244  0.88234  1.0000 -0.1558271017
C   C456      1.0  0.38244  0.88234  0.97236  1.0000 -0.1558271017
C   C457      1.0  0.97236  0.88234  0.38244  1.0000 -0.1558271017
C   C458      1.0  0.38244  0.97236  0.88234  1.0000 -0.1558271017
C   C459      1.0  0.88234  0.38244  0.97236  1.0000 -0.1524134478
C   C460      1.0  0.02764  0.11766  0.23714  1.0000 -0.1524134478
C   C461      1.0  0.61756  0.23714  0.11766  1.0000 -0.1524134478
C   C462      1.0  0.23714  0.61756  0.02764  1.0000 -0.1558271017
C   C463      1.0  0.61756  0.02764  0.23714  1.0000 -0.1524134478
C   C464      1.0  0.23714  0.11766  0.61756  1.0000 -0.1524134478
C   C465      1.0  0.11766  0.23714  0.02764  1.0000 -0.1524134478
C   C466      1.0  0.11766  0.61756  0.23714  1.0000 -0.1524134478
C   C467      1.0  0.02764  0.23714  0.61756  1.0000 -0.1558271017
C   C468      1.0  0.23714  0.02764  0.11766  1.0000 -0.1524134478
C   C469      1.0  0.88234  0.97236  0.76286  1.0000 -0.1558271017
C   C470      1.0  0.38244  0.76286  0.97236  1.0000 -0.1558271017
C   C471      1.0  0.76286  0.38244  0.88234  1.0000 -0.1558271017
C   C472      1.0  0.76286  0.88234  0.97236  1.0000 -0.1558271017
C   C473      1.0  0.97236  0.38244  0.76286  1.0000 -0.1558271017
C   C474      1.0  0.88234  0.76286  0.38244  1.0000 -0.1524134478
C   C475      1.0  0.97236  0.76286  0.88234  1.0000 -0.1524134478
C   C476      1.0  0.76286  0.97236  0.38244  1.0000 -0.1558271017
C   C477      1.0  0.38244  0.88234  0.76286  1.0000 -0.1524134478
C   C478      1.0  0.11766  0.02764  0.61756  1.0000 -0.1524134478
C   C479      1.0  0.02764  0.61756  0.11766  1.0000 -0.1558271017
C   C480      1.0  0.61756  0.11766  0.02764  1.0000 -0.1524134478
N   N1        1.0  0.10510  0.21130  0.36198  1.0000 -0.1524134478
N   N2        1.0  0.36198  0.10510  0.21130  1.0000 -0.1524134478
N   N3        1.0  0.21130  0.36198  0.10510  1.0000 -0.1524134478
N   N4        1.0  0.89490  0.78870  0.67838  1.0000 -0.1524134478
N   N5        1.0  0.63802  0.67838  0.78870  1.0000 -0.1524134478
N   N6        1.0  0.67838  0.63802  0.89490  1.0000 -0.1524134478
N   N7        1.0  0.63802  0.89490  0.67838  1.0000 -0.1524134478
N   N8        1.0  0.67838  0.78870  0.63802  1.0000 -0.1524134478
N   N9        1.0  0.78870  0.67838  0.89490  1.0000 -0.1524134478
N   N10       1.0  0.78870  0.63802  0.67838  1.0000 -0.1524134478
N   N11       1.0  0.89490  0.67838  0.63802  1.0000 -0.1524134478
N   N12       1.0  0.67838  0.89490  0.78870  1.0000 -0.1524134478
N   N13       1.0  0.21130  0.10510  0.32162  1.0000 -0.1524134478
N   N14       1.0  0.36198  0.32162  0.10510  1.0000 -0.1524134478
N   N15       1.0  0.32162  0.36198  0.21130  1.0000 -0.1524134478
N   N16       1.0  0.32162  0.21130  0.10510  1.0000 -0.1524134478
N   N17       1.0  0.10510  0.36198  0.32162  1.0000 -0.1524134478
N   N18       1.0  0.21130  0.32162  0.36198  1.0000 -0.1524134478
N   N19       1.0  0.10510  0.32162  0.21130  1.0000 -0.1524134478
N   N20       1.0  0.32162  0.10510  0.36198  1.0000 -0.1524134478
N   N21       1.0  0.36198  0.21130  0.32162  1.0000 -0.1524134478
N   N22       1.0  0.78870  0.89490  0.63802  1.0000 -0.1524134478
N   N23       1.0  0.89490  0.63802  0.78870  1.0000 -0.1524134478
N   N24       1.0  0.63802  0.78870  0.89490  1.0000 -0.1524134478
N   N25       1.0  0.89490  0.78870  0.63802  1.0000 -0.1524134478
N   N26       1.0  0.63802  0.89490  0.78870  1.0000 -0.1524134478
N   N27       1.0  0.78870  0.63802  0.89490  1.0000 -0.1524134478
N   N28       1.0  0.10510  0.21130  0.32162  1.0000 -0.1524134478
N   N29       1.0  0.36198  0.32162  0.21130  1.0000 -0.1524134478
N   N30       1.0  0.32162  0.36198  0.10510  1.0000 -0.1524134478
N   N31       1.0  0.36198  0.10510  0.32162  1.0000 -0.1524134478
N   N32       1.0  0.32162  0.21130  0.36198  1.0000 -0.1524134478
N   N33       1.0  0.21130  0.32162  0.10510  1.0000 -0.1524134478
N   N34       1.0  0.21130  0.36198  0.32162  1.0000 -0.1524134478
N   N35       1.0  0.10510  0.32162  0.36198  1.0000 -0.1524134478
N   N36       1.0  0.32162  0.10510  0.21130  1.0000 -0.1524134478
N   N37       1.0  0.78870  0.89490  0.67838  1.0000 -0.1524134478
N   N38       1.0  0.63802  0.67838  0.89490  1.0000 -0.1524134478
N   N39       1.0  0.67838  0.63802  0.78870  1.0000 -0.1524134478
N   N40       1.0  0.67838  0.78870  0.89490  1.0000 -0.1524134478
N   N41       1.0  0.89490  0.63802  0.67838  1.0000 -0.1524134478
N   N42       1.0  0.78870  0.67838  0.63802  1.0000 -0.1524134478
N   N43       1.0  0.89490  0.67838  0.78870  1.0000 -0.1524134478
N   N44       1.0  0.67838  0.89490  0.63802  1.0000 -0.1524134478
N   N45       1.0  0.63802  0.78870  0.67838  1.0000 -0.1524134478
N   N46       1.0  0.21130  0.10510  0.36198  1.0000 -0.1524134478
N   N47       1.0  0.10510  0.36198  0.21130  1.0000 -0.1524134478
N   N48       1.0  0.36198  0.21130  0.10510  1.0000 -0.1524134478
N   N49       1.0  0.79560  0.23300  0.54000  1.0000 -0.1710185957
N   N50       1.0  0.54000  0.79560  0.23300  1.0000 -0.1710185957
N   N51       1.0  0.23300  0.54000  0.79560  1.0000 -0.1710185957
N   N52       1.0  0.20440  0.76700  0.56860  1.0000 -0.1710185957
N   N53       1.0  0.46000  0.56860  0.76700  1.0000 -0.1710185957
N   N54       1.0  0.56860  0.46000  0.20440  1.0000 -0.1780096912
N   N55       1.0  0.46000  0.20440  0.56860  1.0000 -0.1710185957
N   N56       1.0  0.56860  0.76700  0.46000  1.0000 -0.1710185957
N   N57       1.0  0.76700  0.56860  0.20440  1.0000 -0.1780096912
N   N58       1.0  0.76700  0.46000  0.56860  1.0000 -0.1710185957
N   N59       1.0  0.20440  0.56860  0.46000  1.0000 -0.1710185957
N   N60       1.0  0.56860  0.20440  0.76700  1.0000 -0.1780096912
N   N61       1.0  0.23300  0.79560  0.43140  1.0000 -0.1710185957
N   N62       1.0  0.54000  0.43140  0.79560  1.0000 -0.1710185957
N   N63       1.0  0.43140  0.54000  0.23300  1.0000 -0.1710185957
N   N64       1.0  0.43140  0.23300  0.79560  1.0000 -0.1710185957
N   N65       1.0  0.79560  0.54000  0.43140  1.0000 -0.1780096912
N   N66       1.0  0.23300  0.43140  0.54000  1.0000 -0.1710185957
N   N67       1.0  0.79560  0.43140  0.23300  1.0000 -0.1710185957
N   N68       1.0  0.43140  0.79560  0.54000  1.0000 -0.1780096912
N   N69       1.0  0.54000  0.23300  0.43140  1.0000 -0.1710185957
N   N70       1.0  0.76700  0.20440  0.46000  1.0000 -0.1780096912
N   N71       1.0  0.20440  0.46000  0.76700  1.0000 -0.1780096912
N   N72       1.0  0.46000  0.76700  0.20440  1.0000 -0.1710185957
N   N73       1.0  0.20440  0.76700  0.46000  1.0000 -0.1780096912
N   N74       1.0  0.46000  0.20440  0.76700  1.0000 -0.1780096912
N   N75       1.0  0.76700  0.46000  0.20440  1.0000 -0.1710185957
N   N76       1.0  0.79560  0.23300  0.43140  1.0000 -0.1710185957
N   N77       1.0  0.54000  0.43140  0.23300  1.0000 -0.1710185957
N   N78       1.0  0.43140  0.54000  0.79560  1.0000 -0.1710185957
N   N79       1.0  0.54000  0.79560  0.43140  1.0000 -0.1710185957
N   N80       1.0  0.43140  0.23300  0.54000  1.0000 -0.1710185957
N   N81       1.0  0.23300  0.43140  0.79560  1.0000 -0.1710185957
N   N82       1.0  0.23300  0.54000  0.43140  1.0000 -0.1710185957
N   N83       1.0  0.79560  0.43140  0.54000  1.0000 -0.1780096912
N   N84       1.0  0.43140  0.79560  0.23300  1.0000 -0.1710185957
N   N85       1.0  0.76700  0.20440  0.56860  1.0000 -0.1710185957
N   N86       1.0  0.46000  0.56860  0.20440  1.0000 -0.1780096912
N   N87       1.0  0.56860  0.46000  0.76700  1.0000 -0.1710185957
N   N88       1.0  0.56860  0.76700  0.20440  1.0000 -0.1710185957
N   N89       1.0  0.20440  0.46000  0.56860  1.0000 -0.1710185957
N   N90       1.0  0.76700  0.56860  0.46000  1.0000 -0.1710185957
N   N91       1.0  0.20440  0.56860  0.76700  1.0000 -0.1710185957
N   N92       1.0  0.56860  0.20440  0.46000  1.0000 -0.1710185957
N   N93       1.0  0.46000  0.76700  0.56860  1.0000 -0.1710185957
N   N94       1.0  0.23300  0.79560  0.54000  1.0000 -0.1710185957
N   N95       1.0  0.79560  0.54000  0.23300  1.0000 -0.1710185957
N   N96       1.0  0.54000  0.23300  0.79560  1.0000 -0.1780096912
N   N97       1.0  0.89623  0.19119  0.63425  1.0000 -0.3318587889
N   N98       1.0  0.63425  0.89623  0.19119  1.0000 -0.3351793424
N   N99       1.0  0.19119  0.63425  0.89623  1.0000 -0.3351793424
N   N100      1.0  0.10377  0.80881  0.72167  1.0000 -0.3318587889
N   N101      1.0  0.36575  0.72167  0.80881  1.0000 -0.3351793424
N   N102      1.0  0.72167  0.36575  0.10377  1.0000 -0.3351793424
N   N103      1.0  0.36575  0.10377  0.72167  1.0000 -0.3351793424
N   N104      1.0  0.72167  0.80881  0.36575  1.0000 -0.3351793424
N   N105      1.0  0.80881  0.72167  0.10377  1.0000 -0.3318587889
N   N106      1.0  0.80881  0.36575  0.72167  1.0000 -0.3318587889
N   N107      1.0  0.10377  0.72167  0.36575  1.0000 -0.3318587889
N   N108      1.0  0.72167  0.10377  0.80881  1.0000 -0.3318587889
N   N109      1.0  0.19119  0.89623  0.27833  1.0000 -0.3318587889
N   N110      1.0  0.63425  0.27833  0.89623  1.0000 -0.3318587889
N   N111      1.0  0.27833  0.63425  0.19119  1.0000 -0.3318587889
N   N112      1.0  0.27833  0.19119  0.89623  1.0000 -0.3318587889
N   N113      1.0  0.89623  0.63425  0.27833  1.0000 -0.3318587889
N   N114      1.0  0.19119  0.27833  0.63425  1.0000 -0.3318587889
N   N115      1.0  0.89623  0.27833  0.19119  1.0000 -0.3351793424
N   N116      1.0  0.27833  0.89623  0.63425  1.0000 -0.3318587889
N   N117      1.0  0.63425  0.19119  0.27833  1.0000 -0.3318587889
N   N118      1.0  0.80881  0.10377  0.36575  1.0000 -0.3318587889
N   N119      1.0  0.10377  0.36575  0.80881  1.0000 -0.3318587889
N   N120      1.0  0.36575  0.80881  0.10377  1.0000 -0.3318587889
N   N121      1.0  0.10377  0.80881  0.36575  1.0000 -0.3318587889
N   N122      1.0  0.36575  0.10377  0.80881  1.0000 -0.3318587889
N   N123      1.0  0.80881  0.36575  0.10377  1.0000 -0.3318587889
N   N124      1.0  0.89623  0.19119  0.27833  1.0000 -0.3318587889
N   N125      1.0  0.63425  0.27833  0.19119  1.0000 -0.3351793424
N   N126      1.0  0.27833  0.63425  0.89623  1.0000 -0.3318587889
N   N127      1.0  0.63425  0.89623  0.27833  1.0000 -0.3351793424
N   N128      1.0  0.27833  0.19119  0.63425  1.0000 -0.3318587889
N   N129      1.0  0.19119  0.27833  0.89623  1.0000 -0.3318587889
N   N130      1.0  0.19119  0.63425  0.27833  1.0000 -0.3318587889
N   N131      1.0  0.89623  0.27833  0.63425  1.0000 -0.3318587889
N   N132      1.0  0.27833  0.89623  0.19119  1.0000 -0.3351793424
N   N133      1.0  0.80881  0.10377  0.72167  1.0000 -0.3318587889
N   N134      1.0  0.36575  0.72167  0.10377  1.0000 -0.3318587889
N   N135      1.0  0.72167  0.36575  0.80881  1.0000 -0.3318587889
N   N136      1.0  0.72167  0.80881  0.10377  1.0000 -0.3318587889
N   N137      1.0  0.10377  0.36575  0.72167  1.0000 -0.3318587889
N   N138      1.0  0.80881  0.72167  0.36575  1.0000 -0.3318587889
N   N139      1.0  0.10377  0.72167  0.80881  1.0000 -0.3318587889
N   N140      1.0  0.72167  0.10377  0.36575  1.0000 -0.3351793424
N   N141      1.0  0.36575  0.80881  0.72167  1.0000 -0.3351793424
N   N142      1.0  0.19119  0.89623  0.63425  1.0000 -0.3351793424
N   N143      1.0  0.89623  0.63425  0.19119  1.0000 -0.3318587889
N   N144      1.0  0.63425  0.19119  0.89623  1.0000 -0.3318587889
N   N145      1.0  0.05575  0.09617  0.64877  1.0000 -0.1101094638
N   N146      1.0  0.64877  0.05575  0.09617  1.0000 -0.1101094638
N   N147      1.0  0.09617  0.64877  0.05575  1.0000 -0.1039617781
N   N148      1.0  0.94425  0.90383  0.80069  1.0000 -0.1039617781
N   N149      1.0  0.35123  0.80069  0.90383  1.0000 -0.1101094638
N   N150      1.0  0.80069  0.35123  0.94425  1.0000 -0.1101094638
N   N151      1.0  0.35123  0.94425  0.80069  1.0000 -0.1039617781
N   N152      1.0  0.80069  0.90383  0.35123  1.0000 -0.1101094638
N   N153      1.0  0.90383  0.80069  0.94425  1.0000 -0.1101094638
N   N154      1.0  0.90383  0.35123  0.80069  1.0000 -0.1101094638
N   N155      1.0  0.94425  0.80069  0.35123  1.0000 -0.1101094638
N   N156      1.0  0.80069  0.94425  0.90383  1.0000 -0.1101094638
N   N157      1.0  0.09617  0.05575  0.19931  1.0000 -0.1101094638
N   N158      1.0  0.64877  0.19931  0.05575  1.0000 -0.1101094638
N   N159      1.0  0.19931  0.64877  0.09617  1.0000 -0.1039617781
N   N160      1.0  0.19931  0.09617  0.05575  1.0000 -0.1101094638
N   N161      1.0  0.05575  0.64877  0.19931  1.0000 -0.1101094638
N   N162      1.0  0.09617  0.19931  0.64877  1.0000 -0.1101094638
N   N163      1.0  0.05575  0.19931  0.09617  1.0000 -0.1101094638
N   N164      1.0  0.19931  0.05575  0.64877  1.0000 -0.1101094638
N   N165      1.0  0.64877  0.09617  0.19931  1.0000 -0.1101094638
N   N166      1.0  0.90383  0.94425  0.35123  1.0000 -0.1101094638
N   N167      1.0  0.94425  0.35123  0.90383  1.0000 -0.1039617781
N   N168      1.0  0.35123  0.90383  0.94425  1.0000 -0.1101094638
N   N169      1.0  0.94425  0.90383  0.35123  1.0000 -0.1101094638
N   N170      1.0  0.35123  0.94425  0.90383  1.0000 -0.1101094638
N   N171      1.0  0.90383  0.35123  0.94425  1.0000 -0.1101094638
N   N172      1.0  0.05575  0.09617  0.19931  1.0000 -0.1101094638
N   N173      1.0  0.64877  0.19931  0.09617  1.0000 -0.1101094638
N   N174      1.0  0.19931  0.64877  0.05575  1.0000 -0.1101094638
N   N175      1.0  0.64877  0.05575  0.19931  1.0000 -0.1101094638
N   N176      1.0  0.19931  0.09617  0.64877  1.0000 -0.1039617781
N   N177      1.0  0.09617  0.19931  0.05575  1.0000 -0.1101094638
N   N178      1.0  0.09617  0.64877  0.19931  1.0000 -0.1101094638
N   N179      1.0  0.05575  0.19931  0.64877  1.0000 -0.1101094638
N   N180      1.0  0.19931  0.05575  0.09617  1.0000 -0.1101094638
N   N181      1.0  0.90383  0.94425  0.80069  1.0000 -0.1101094638
N   N182      1.0  0.35123  0.80069  0.94425  1.0000 -0.1039617781
N   N183      1.0  0.80069  0.35123  0.90383  1.0000 -0.1101094638
N   N184      1.0  0.80069  0.90383  0.94425  1.0000 -0.1101094638
N   N185      1.0  0.94425  0.35123  0.80069  1.0000 -0.1101094638
N   N186      1.0  0.90383  0.80069  0.35123  1.0000 -0.1101094638
N   N187      1.0  0.94425  0.80069  0.90383  1.0000 -0.1101094638
N   N188      1.0  0.80069  0.94425  0.35123  1.0000 -0.1101094638
N   N189      1.0  0.35123  0.90383  0.80069  1.0000 -0.1101094638
N   N190      1.0  0.09617  0.05575  0.64877  1.0000 -0.1101094638
N   N191      1.0  0.05575  0.64877  0.09617  1.0000 -0.1101094638
N   N192      1.0  0.64877  0.09617  0.05575  1.0000 -0.1101094638
N   N193      1.0  0.99448  0.17260  0.45184  1.0000 -0.3534317871
N   N194      1.0  0.45184  0.99448  0.17260  1.0000 -0.3534317871
N   N195      1.0  0.17260  0.45184  0.99448  1.0000 -0.3534317871
N   N196      1.0  0.00552  0.82740  0.61892  1.0000 -0.3534317871
N   N197      1.0  0.54816  0.61892  0.82740  1.0000 -0.3534317871
N   N198      1.0  0.61892  0.54816  0.00552  1.0000 -0.3534317871
N   N199      1.0  0.54816  0.00552  0.61892  1.0000 -0.3534317871
N   N200      1.0  0.61892  0.82740  0.54816  1.0000 -0.3534317871
N   N201      1.0  0.82740  0.61892  0.00552  1.0000 -0.3534317871
N   N202      1.0  0.82740  0.54816  0.61892  1.0000 -0.3534317871
N   N203      1.0  0.00552  0.61892  0.54816  1.0000 -0.3534317871
N   N204      1.0  0.61892  0.00552  0.82740  1.0000 -0.3534317871
N   N205      1.0  0.17260  0.99448  0.38108  1.0000 -0.3534317871
N   N206      1.0  0.45184  0.38108  0.99448  1.0000 -0.3534317871
N   N207      1.0  0.38108  0.45184  0.17260  1.0000 -0.3534317871
N   N208      1.0  0.38108  0.17260  0.99448  1.0000 -0.3534317871
N   N209      1.0  0.99448  0.45184  0.38108  1.0000 -0.3534317871
N   N210      1.0  0.17260  0.38108  0.45184  1.0000 -0.3534317871
N   N211      1.0  0.99448  0.38108  0.17260  1.0000 -0.3534317871
N   N212      1.0  0.38108  0.99448  0.45184  1.0000 -0.3534317871
N   N213      1.0  0.45184  0.17260  0.38108  1.0000 -0.3534317871
N   N214      1.0  0.82740  0.00552  0.54816  1.0000 -0.3534317871
N   N215      1.0  0.00552  0.54816  0.82740  1.0000 -0.3534317871
N   N216      1.0  0.54816  0.82740  0.00552  1.0000 -0.3534317871
N   N217      1.0  0.00552  0.82740  0.54816  1.0000 -0.3534317871
N   N218      1.0  0.54816  0.00552  0.82740  1.0000 -0.3534317871
N   N219      1.0  0.82740  0.54816  0.00552  1.0000 -0.3534317871
N   N220      1.0  0.99448  0.17260  0.38108  1.0000 -0.3534317871
N   N221      1.0  0.45184  0.38108  0.17260  1.0000 -0.3534317871
N   N222      1.0  0.38108  0.45184  0.99448  1.0000 -0.3534317871
N   N223      1.0  0.45184  0.99448  0.38108  1.0000 -0.3534317871
N   N224      1.0  0.38108  0.17260  0.45184  1.0000 -0.3534317871
N   N225      1.0  0.17260  0.38108  0.99448  1.0000 -0.3534317871
N   N226      1.0  0.17260  0.45184  0.38108  1.0000 -0.3534317871
N   N227      1.0  0.99448  0.38108  0.45184  1.0000 -0.3534317871
N   N228      1.0  0.38108  0.99448  0.17260  1.0000 -0.3534317871
N   N229      1.0  0.82740  0.00552  0.61892  1.0000 -0.3534317871
N   N230      1.0  0.54816  0.61892  0.00552  1.0000 -0.3534317871
N   N231      1.0  0.61892  0.54816  0.82740  1.0000 -0.3534317871
N   N232      1.0  0.61892  0.82740  0.00552  1.0000 -0.3534317871
N   N233      1.0  0.00552  0.54816  0.61892  1.0000 -0.3534317871
N   N234      1.0  0.82740  0.61892  0.54816  1.0000 -0.3534317871
N   N235      1.0  0.00552  0.61892  0.82740  1.0000 -0.3534317871
N   N236      1.0  0.61892  0.00552  0.54816  1.0000 -0.3534317871
N   N237      1.0  0.54816  0.82740  0.61892  1.0000 -0.3534317871
N   N238      1.0  0.17260  0.99448  0.45184  1.0000 -0.3534317871
N   N239      1.0  0.99448  0.45184  0.17260  1.0000 -0.3534317871
N   N240      1.0  0.45184  0.17260  0.99448  1.0000 -0.3534317871
N   N241      1.0  0.91434  0.13618  0.55544  1.0000 -0.3927490838
N   N242      1.0  0.55544  0.91434  0.13618  1.0000 -0.3927490838
N   N243      1.0  0.13618  0.55544  0.91434  1.0000 -0.3927490838
N   N244      1.0  0.08566  0.86382  0.60596  1.0000 -0.395268765
N   N245      1.0  0.44456  0.60596  0.86382  1.0000 -0.395268765
N   N246      1.0  0.60596  0.44456  0.08566  1.0000 -0.3927490838
N   N247      1.0  0.44456  0.08566  0.60596  1.0000 -0.395268765
N   N248      1.0  0.60596  0.86382  0.44456  1.0000 -0.3927490838
N   N249      1.0  0.86382  0.60596  0.08566  1.0000 -0.3927490838
N   N250      1.0  0.86382  0.44456  0.60596  1.0000 -0.3927490838
N   N251      1.0  0.08566  0.60596  0.44456  1.0000 -0.3927490838
N   N252      1.0  0.60596  0.08566  0.86382  1.0000 -0.3927490838
N   N253      1.0  0.13618  0.91434  0.39404  1.0000 -0.3927490838
N   N254      1.0  0.55544  0.39404  0.91434  1.0000 -0.395268765
N   N255      1.0  0.39404  0.55544  0.13618  1.0000 -0.3927490838
N   N256      1.0  0.39404  0.13618  0.91434  1.0000 -0.395268765
N   N257      1.0  0.91434  0.55544  0.39404  1.0000 -0.3927490838
N   N258      1.0  0.13618  0.39404  0.55544  1.0000 -0.3927490838
N   N259      1.0  0.91434  0.39404  0.13618  1.0000 -0.3927490838
N   N260      1.0  0.39404  0.91434  0.55544  1.0000 -0.3927490838
N   N261      1.0  0.55544  0.13618  0.39404  1.0000 -0.3927490838
N   N262      1.0  0.86382  0.08566  0.44456  1.0000 -0.3927490838
N   N263      1.0  0.08566  0.44456  0.86382  1.0000 -0.3927490838
N   N264      1.0  0.44456  0.86382  0.08566  1.0000 -0.3927490838
N   N265      1.0  0.08566  0.86382  0.44456  1.0000 -0.3927490838
N   N266      1.0  0.44456  0.08566  0.86382  1.0000 -0.3927490838
N   N267      1.0  0.86382  0.44456  0.08566  1.0000 -0.3927490838
N   N268      1.0  0.91434  0.13618  0.39404  1.0000 -0.3927490838
N   N269      1.0  0.55544  0.39404  0.13618  1.0000 -0.3927490838
N   N270      1.0  0.39404  0.55544  0.91434  1.0000 -0.395268765
N   N271      1.0  0.55544  0.91434  0.39404  1.0000 -0.3927490838
N   N272      1.0  0.39404  0.13618  0.55544  1.0000 -0.3927490838
N   N273      1.0  0.13618  0.39404  0.91434  1.0000 -0.395268765
N   N274      1.0  0.13618  0.55544  0.39404  1.0000 -0.395268765
N   N275      1.0  0.91434  0.39404  0.55544  1.0000 -0.3927490838
N   N276      1.0  0.39404  0.91434  0.13618  1.0000 -0.3927490838
N   N277      1.0  0.86382  0.08566  0.60596  1.0000 -0.3927490838
N   N278      1.0  0.44456  0.60596  0.08566  1.0000 -0.395268765
N   N279      1.0  0.60596  0.44456  0.86382  1.0000 -0.3927490838
N   N280      1.0  0.60596  0.86382  0.08566  1.0000 -0.3927490838
N   N281      1.0  0.08566  0.44456  0.60596  1.0000 -0.3927490838
N   N282      1.0  0.86382  0.60596  0.44456  1.0000 -0.3927490838
N   N283      1.0  0.08566  0.60596  0.86382  1.0000 -0.3927490838
N   N284      1.0  0.60596  0.08566  0.44456  1.0000 -0.3927490838
N   N285      1.0  0.44456  0.86382  0.60596  1.0000 -0.3927490838
N   N286      1.0  0.13618  0.91434  0.55544  1.0000 -0.3927490838
N   N287      1.0  0.91434  0.55544  0.13618  1.0000 -0.3927490838
N   N288      1.0  0.55544  0.13618  0.91434  1.0000 -0.3927490838
N   N289      1.0  0.95198  0.21540  0.54660  1.0000 -0.377463086
N   N290      1.0  0.54660  0.95198  0.21540  1.0000 -0.377463086
N   N291      1.0  0.21540  0.54660  0.95198  1.0000 -0.377463086
N   N292      1.0  0.04802  0.78460  0.71398  1.0000 -0.377463086
N   N293      1.0  0.45340  0.71398  0.78460  1.0000 -0.377463086
N   N294      1.0  0.71398  0.45340  0.04802  1.0000 -0.377463086
N   N295      1.0  0.45340  0.04802  0.71398  1.0000 -0.377463086
N   N296      1.0  0.71398  0.78460  0.45340  1.0000 -0.377463086
N   N297      1.0  0.78460  0.71398  0.04802  1.0000 -0.377463086
N   N298      1.0  0.78460  0.45340  0.71398  1.0000 -0.377463086
N   N299      1.0  0.04802  0.71398  0.45340  1.0000 -0.377463086
N   N300      1.0  0.71398  0.04802  0.78460  1.0000 -0.377463086
N   N301      1.0  0.21540  0.95198  0.28602  1.0000 -0.377463086
N   N302      1.0  0.54660  0.28602  0.95198  1.0000 -0.377463086
N   N303      1.0  0.28602  0.54660  0.21540  1.0000 -0.377463086
N   N304      1.0  0.28602  0.21540  0.95198  1.0000 -0.377463086
N   N305      1.0  0.95198  0.54660  0.28602  1.0000 -0.377463086
N   N306      1.0  0.21540  0.28602  0.54660  1.0000 -0.377463086
N   N307      1.0  0.95198  0.28602  0.21540  1.0000 -0.377463086
N   N308      1.0  0.28602  0.95198  0.54660  1.0000 -0.377463086
N   N309      1.0  0.54660  0.21540  0.28602  1.0000 -0.377463086
N   N310      1.0  0.78460  0.04802  0.45340  1.0000 -0.377463086
N   N311      1.0  0.04802  0.45340  0.78460  1.0000 -0.377463086
N   N312      1.0  0.45340  0.78460  0.04802  1.0000 -0.377463086
N   N313      1.0  0.04802  0.78460  0.45340  1.0000 -0.377463086
N   N314      1.0  0.45340  0.04802  0.78460  1.0000 -0.377463086
N   N315      1.0  0.78460  0.45340  0.04802  1.0000 -0.377463086
N   N316      1.0  0.95198  0.21540  0.28602  1.0000 -0.377463086
N   N317      1.0  0.54660  0.28602  0.21540  1.0000 -0.377463086
N   N318      1.0  0.28602  0.54660  0.95198  1.0000 -0.377463086
N   N319      1.0  0.54660  0.95198  0.28602  1.0000 -0.377463086
N   N320      1.0  0.28602  0.21540  0.54660  1.0000 -0.377463086
N   N321      1.0  0.21540  0.28602  0.95198  1.0000 -0.377463086
N   N322      1.0  0.21540  0.54660  0.28602  1.0000 -0.377463086
N   N323      1.0  0.95198  0.28602  0.54660  1.0000 -0.377463086
N   N324      1.0  0.28602  0.95198  0.21540  1.0000 -0.377463086
N   N325      1.0  0.78460  0.04802  0.71398  1.0000 -0.377463086
N   N326      1.0  0.45340  0.71398  0.04802  1.0000 -0.377463086
N   N327      1.0  0.71398  0.45340  0.78460  1.0000 -0.377463086
N   N328      1.0  0.71398  0.78460  0.04802  1.0000 -0.377463086
N   N329      1.0  0.04802  0.45340  0.71398  1.0000 -0.377463086
N   N330      1.0  0.78460  0.71398  0.45340  1.0000 -0.377463086
N   N331      1.0  0.04802  0.71398  0.78460  1.0000 -0.377463086
N   N332      1.0  0.71398  0.04802  0.45340  1.0000 -0.377463086
N   N333      1.0  0.45340  0.78460  0.71398  1.0000 -0.377463086
N   N334      1.0  0.21540  0.95198  0.54660  1.0000 -0.377463086
N   N335      1.0  0.95198  0.54660  0.21540  1.0000 -0.377463086
N   N336      1.0  0.54660  0.21540  0.95198  1.0000 -0.377463086
N   N337      1.0  0.03077  0.10143  0.54793  1.0000 -0.3625614902
N   N338      1.0  0.54793  0.03077  0.10143  1.0000 -0.3625614902
N   N339      1.0  0.10143  0.54793  0.03077  1.0000 -0.3625614902
N   N340      1.0  0.96923  0.89857  0.68013  1.0000 -0.3625614902
N   N341      1.0  0.45207  0.68013  0.89857  1.0000 -0.3625614902
N   N342      1.0  0.68013  0.45207  0.96923  1.0000 -0.3625614902
N   N343      1.0  0.45207  0.96923  0.68013  1.0000 -0.3625614902
N   N344      1.0  0.68013  0.89857  0.45207  1.0000 -0.3625614902
N   N345      1.0  0.89857  0.68013  0.96923  1.0000 -0.3625614902
N   N346      1.0  0.89857  0.45207  0.68013  1.0000 -0.3625614902
N   N347      1.0  0.96923  0.68013  0.45207  1.0000 -0.3625614902
N   N348      1.0  0.68013  0.96923  0.89857  1.0000 -0.3625614902
N   N349      1.0  0.10143  0.03077  0.31987  1.0000 -0.3625614902
N   N350      1.0  0.54793  0.31987  0.03077  1.0000 -0.3625614902
N   N351      1.0  0.31987  0.54793  0.10143  1.0000 -0.3625614902
N   N352      1.0  0.31987  0.10143  0.03077  1.0000 -0.3625614902
N   N353      1.0  0.03077  0.54793  0.31987  1.0000 -0.3625614902
N   N354      1.0  0.10143  0.31987  0.54793  1.0000 -0.3625614902
N   N355      1.0  0.03077  0.31987  0.10143  1.0000 -0.3625614902
N   N356      1.0  0.31987  0.03077  0.54793  1.0000 -0.3625614902
N   N357      1.0  0.54793  0.10143  0.31987  1.0000 -0.3625614902
N   N358      1.0  0.89857  0.96923  0.45207  1.0000 -0.3625614902
N   N359      1.0  0.96923  0.45207  0.89857  1.0000 -0.3625614902
N   N360      1.0  0.45207  0.89857  0.96923  1.0000 -0.3625614902
N   N361      1.0  0.96923  0.89857  0.45207  1.0000 -0.3625614902
N   N362      1.0  0.45207  0.96923  0.89857  1.0000 -0.3625614902
N   N363      1.0  0.89857  0.45207  0.96923  1.0000 -0.3625614902
N   N364      1.0  0.03077  0.10143  0.31987  1.0000 -0.3625614902
N   N365      1.0  0.54793  0.31987  0.10143  1.0000 -0.3625614902
N   N366      1.0  0.31987  0.54793  0.03077  1.0000 -0.3625614902
N   N367      1.0  0.54793  0.03077  0.31987  1.0000 -0.3625614902
N   N368      1.0  0.31987  0.10143  0.54793  1.0000 -0.3625614902
N   N369      1.0  0.10143  0.31987  0.03077  1.0000 -0.3625614902
N   N370      1.0  0.10143  0.54793  0.31987  1.0000 -0.3625614902
N   N371      1.0  0.03077  0.31987  0.54793  1.0000 -0.3625614902
N   N372      1.0  0.31987  0.03077  0.10143  1.0000 -0.3625614902
N   N373      1.0  0.89857  0.96923  0.68013  1.0000 -0.3625614902
N   N374      1.0  0.45207  0.68013  0.96923  1.0000 -0.3625614902
N   N375      1.0  0.68013  0.45207  0.89857  1.0000 -0.3625614902
N   N376      1.0  0.68013  0.89857  0.96923  1.0000 -0.3625614902
N   N377      1.0  0.96923  0.45207  0.68013  1.0000 -0.3625614902
N   N378      1.0  0.89857  0.68013  0.45207  1.0000 -0.3625614902
N   N379      1.0  0.96923  0.68013  0.89857  1.0000 -0.3625614902
N   N380      1.0  0.68013  0.96923  0.45207  1.0000 -0.3625614902
N   N381      1.0  0.45207  0.89857  0.68013  1.0000 -0.3625614902
N   N382      1.0  0.10143  0.03077  0.54793  1.0000 -0.3625614902
N   N383      1.0  0.03077  0.54793  0.10143  1.0000 -0.3625614902
N   N384      1.0  0.54793  0.10143  0.03077  1.0000 -0.3625614902
