# DDEC6 charges by PACMAN v1.1 (https://github.com/mtap-research/PACMAN-charge/)
data_2007[DyCu][nan]3[ASR]1
_chemical_formula_sum              "Dy8 Cu6 H144 C288 N24 O48"
_cell_length_a       16.1376
_cell_length_b       16.1376
_cell_length_c       30.9377
_cell_angle_alpha    79.2373
_cell_angle_beta     100.763
_cell_angle_gamma    84.083

_symmetry_space_group_name_H-M    "P 1"
_symmetry_Int_Tables_number       1

loop_
  _symmetry_equiv_pos_as_xyz
  'x, y, z'

loop_
  _atom_site_type_symbol
  _atom_site_label
  _atom_site_symmetry_multiplicity
  _atom_site_fract_x
  _atom_site_fract_y
  _atom_site_fract_z
  _atom_site_occupancy
  _atom_site_charge
Dy  Dy1       1.0  0.68859  0.86143  0.69944  1.0000 2.1105827134
Dy  Dy2       1.0  0.86143  0.68859  0.80056  1.0000 2.1105827134
Dy  Dy3       1.0  0.31141  0.13857  0.30056  1.0000 2.1105827134
Dy  Dy4       1.0  0.13857  0.31141  0.19944  1.0000 2.1105827134
Dy  Dy5       1.0  0.13336  0.48420  0.08726  1.0000 1.9669520896
Dy  Dy6       1.0  0.48420  0.13336  0.41274  1.0000 1.9669520896
Dy  Dy7       1.0  0.86664  0.51580  0.91274  1.0000 1.9669520896
Dy  Dy8       1.0  0.51580  0.86664  0.58726  1.0000 1.9669520896
Cu  Cu1       1.0  0.64059  0.97441  0.07157  1.0000 0.5986739318
Cu  Cu2       1.0  0.97441  0.64059  0.42843  1.0000 0.5986739318
Cu  Cu3       1.0  0.35941  0.02559  0.92843  1.0000 0.5942698162
Cu  Cu4       1.0  0.02559  0.35941  0.57157  1.0000 0.5986739318
Cu  Cu5       1.0  0.27643  0.27643  0.75000  1.0000 0.5986739318
Cu  Cu6       1.0  0.72357  0.72357  0.25000  1.0000 0.5986739318
H   H1        1.0  0.43020  0.82260  0.98500  1.0000 0.1277811291
H   H2        1.0  0.82260  0.43020  0.51500  1.0000 0.1277811291
H   H3        1.0  0.56980  0.17740  0.01500  1.0000 0.1277811291
H   H4        1.0  0.17740  0.56980  0.48500  1.0000 0.1277811291
H   H5        1.0  0.51880  0.87440  0.93020  1.0000 0.1277811291
H   H6        1.0  0.87440  0.51880  0.56980  1.0000 0.1277811291
H   H7        1.0  0.48120  0.12560  0.06980  1.0000 0.1277811291
H   H8        1.0  0.12560  0.48120  0.43020  1.0000 0.1277811291
H   H9        1.0  0.80720  0.00940  0.94720  1.0000 0.1277811291
H   H10       1.0  0.00940  0.80720  0.55280  1.0000 0.1277811291
H   H11       1.0  0.19280  0.99060  0.05280  1.0000 0.1277811291
H   H12       1.0  0.99060  0.19280  0.44720  1.0000 0.1277811291
H   H13       1.0  0.87470  0.09330  0.00000  1.0000 0.1277811291
H   H14       1.0  0.09330  0.87470  0.50000  1.0000 0.1277811291
H   H15       1.0  0.12530  0.90670  0.00000  1.0000 0.1277811291
H   H16       1.0  0.90670  0.12530  0.50000  1.0000 0.1277811291
H   H17       1.0  0.77860  0.20300  0.13840  1.0000 0.1277811291
H   H18       1.0  0.20300  0.77860  0.36160  1.0000 0.1277811291
H   H19       1.0  0.22140  0.79700  0.86160  1.0000 0.1277811291
H   H20       1.0  0.79700  0.22140  0.63840  1.0000 0.1277811291
H   H21       1.0  0.68710  0.15110  0.18980  1.0000 0.1277811291
H   H22       1.0  0.15110  0.68710  0.31020  1.0000 0.1277811291
H   H23       1.0  0.31290  0.84890  0.81020  1.0000 0.1277811291
H   H24       1.0  0.84890  0.31290  0.68980  1.0000 0.1277811291
H   H25       1.0  0.54900  0.86500  0.21610  1.0000 0.1277811291
H   H26       1.0  0.86500  0.54900  0.28390  1.0000 0.1277811291
H   H27       1.0  0.45100  0.13500  0.78390  1.0000 0.1277811291
H   H28       1.0  0.13500  0.45100  0.71610  1.0000 0.1277811291
H   H29       1.0  0.49370  0.77150  0.16570  1.0000 0.1277811291
H   H30       1.0  0.77150  0.49370  0.33430  1.0000 0.1277811291
H   H31       1.0  0.50630  0.22850  0.83430  1.0000 0.1277811291
H   H32       1.0  0.22850  0.50630  0.66570  1.0000 0.1277811291
H   H33       1.0  0.58060  0.01580  0.88360  1.0000 0.1185715707
H   H34       1.0  0.01580  0.58060  0.61640  1.0000 0.1185715707
H   H35       1.0  0.41940  0.98420  0.11640  1.0000 0.1185715707
H   H36       1.0  0.98420  0.41940  0.38360  1.0000 0.1185715707
H   H37       1.0  0.59900  0.98140  0.81600  1.0000 0.1185715707
H   H38       1.0  0.98140  0.59900  0.68400  1.0000 0.1185715707
H   H39       1.0  0.40100  0.01860  0.18400  1.0000 0.1185715707
H   H40       1.0  0.01860  0.40100  0.31600  1.0000 0.1185715707
H   H41       1.0  0.79090  0.79490  0.88440  1.0000 0.1277811291
H   H42       1.0  0.79490  0.79090  0.61560  1.0000 0.1277811291
H   H43       1.0  0.20910  0.20510  0.11560  1.0000 0.1277811291
H   H44       1.0  0.20510  0.20910  0.38440  1.0000 0.1277811291
H   H45       1.0  0.77370  0.83130  0.95140  1.0000 0.1185715707
H   H46       1.0  0.83130  0.77370  0.54860  1.0000 0.1185715707
H   H47       1.0  0.22630  0.16870  0.04860  1.0000 0.1185715707
H   H48       1.0  0.16870  0.22630  0.45140  1.0000 0.1185715707
H   H49       1.0  0.95140  0.08120  0.11130  1.0000 0.1185715707
H   H50       1.0  0.08120  0.95140  0.38870  1.0000 0.1185715707
H   H51       1.0  0.04860  0.91880  0.88870  1.0000 0.1185715707
H   H52       1.0  0.91880  0.04860  0.61130  1.0000 0.1185715707
H   H53       1.0  0.04620  0.18160  0.12320  1.0000 0.1185715707
H   H54       1.0  0.18160  0.04620  0.37680  1.0000 0.1185715707
H   H55       1.0  0.95380  0.81840  0.87680  1.0000 0.1185715707
H   H56       1.0  0.81840  0.95380  0.62320  1.0000 0.1185715707
H   H57       1.0  0.87130  0.36930  0.04240  1.0000 0.1368620287
H   H58       1.0  0.36930  0.87130  0.45760  1.0000 0.1368620287
H   H59       1.0  0.12870  0.63070  0.95760  1.0000 0.1368620287
H   H60       1.0  0.63070  0.12870  0.54240  1.0000 0.1368620287
H   H61       1.0  0.77410  0.27510  0.03250  1.0000 0.1277811291
H   H62       1.0  0.27510  0.77410  0.46750  1.0000 0.1277811291
H   H63       1.0  0.22590  0.72490  0.96750  1.0000 0.1277811291
H   H64       1.0  0.72490  0.22590  0.53250  1.0000 0.1277811291
H   H65       1.0  0.52280  0.13620  0.18960  1.0000 0.1185715707
H   H66       1.0  0.13620  0.52280  0.31040  1.0000 0.1185715707
H   H67       1.0  0.47720  0.86380  0.81040  1.0000 0.1185715707
H   H68       1.0  0.86380  0.47720  0.68960  1.0000 0.1185715707
H   H69       1.0  0.48960  0.16380  0.25540  1.0000 0.1277811291
H   H70       1.0  0.16380  0.48960  0.24460  1.0000 0.1277811291
H   H71       1.0  0.51040  0.83620  0.74460  1.0000 0.1277811291
H   H72       1.0  0.83620  0.51040  0.75540  1.0000 0.1277811291
H   H73       1.0  0.64450  0.95150  0.32700  1.0000 0.1133209756
H   H74       1.0  0.95150  0.64450  0.17300  1.0000 0.1133209756
H   H75       1.0  0.35550  0.04850  0.67300  1.0000 0.1133209756
H   H76       1.0  0.04850  0.35550  0.82700  1.0000 0.1133209756
H   H77       1.0  0.67570  0.92070  0.26040  1.0000 0.1185715707
H   H78       1.0  0.92070  0.67570  0.23960  1.0000 0.1185715707
H   H79       1.0  0.32430  0.07930  0.73960  1.0000 0.1185715707
H   H80       1.0  0.07930  0.32430  0.76040  1.0000 0.1185715707
H   H81       1.0  0.49870  0.68350  0.05100  1.0000 0.1185715707
H   H82       1.0  0.68350  0.49870  0.44900  1.0000 0.1185715707
H   H83       1.0  0.50130  0.31650  0.94900  1.0000 0.1185715707
H   H84       1.0  0.31650  0.50130  0.55100  1.0000 0.1185715707
H   H85       1.0  0.39880  0.58700  0.05490  1.0000 0.1277811291
H   H86       1.0  0.58700  0.39880  0.44510  1.0000 0.1277811291
H   H87       1.0  0.60120  0.41300  0.94510  1.0000 0.1277811291
H   H88       1.0  0.41300  0.60120  0.55490  1.0000 0.1277811291
H   H89       1.0  0.25170  0.74730  0.10460  1.0000 0.1277811291
H   H90       1.0  0.74730  0.25170  0.39540  1.0000 0.1185715707
H   H91       1.0  0.74830  0.25270  0.89540  1.0000 0.1185715707
H   H92       1.0  0.25270  0.74830  0.60460  1.0000 0.1185715707
H   H93       1.0  0.34850  0.84350  0.09950  1.0000 0.1185715707
H   H94       1.0  0.84350  0.34850  0.40050  1.0000 0.1185715707
H   H95       1.0  0.65150  0.15650  0.90050  1.0000 0.1185715707
H   H96       1.0  0.15650  0.65150  0.59950  1.0000 0.1185715707
H   H97       1.0  0.09880  0.09020  0.83740  1.0000 0.1277811291
H   H98       1.0  0.09020  0.09880  0.66260  1.0000 0.1277811291
H   H99       1.0  0.90120  0.90980  0.16260  1.0000 0.1277811291
H   H100      1.0  0.90980  0.90120  0.33740  1.0000 0.1277811291
H   H101      1.0  0.15400  0.18120  0.88840  1.0000 0.1277811291
H   H102      1.0  0.18120  0.15400  0.61160  1.0000 0.1277811291
H   H103      1.0  0.84600  0.81880  0.11160  1.0000 0.1277811291
H   H104      1.0  0.81880  0.84600  0.38840  1.0000 0.1277811291
H   H105      1.0  0.35540  0.41580  0.88370  1.0000 0.1277811291
H   H106      1.0  0.41580  0.35540  0.61630  1.0000 0.1277811291
H   H107      1.0  0.64460  0.58420  0.11630  1.0000 0.1277811291
H   H108      1.0  0.58420  0.64460  0.38370  1.0000 0.1277811291
H   H109      1.0  0.44250  0.47530  0.83070  1.0000 0.1277811291
H   H110      1.0  0.47530  0.44250  0.66930  1.0000 0.1277811291
H   H111      1.0  0.55750  0.52470  0.16930  1.0000 0.1277811291
H   H112      1.0  0.52470  0.55750  0.33070  1.0000 0.1277811291
H   H113      1.0  0.14770  0.96870  0.79240  1.0000 0.1185715707
H   H114      1.0  0.96870  0.14770  0.70760  1.0000 0.1185715707
H   H115      1.0  0.85230  0.03130  0.20760  1.0000 0.1185715707
H   H116      1.0  0.03130  0.85230  0.29240  1.0000 0.1185715707
H   H117      1.0  0.05240  0.87440  0.79380  1.0000 0.1185715707
H   H118      1.0  0.87440  0.05240  0.70620  1.0000 0.1185715707
H   H119      1.0  0.94760  0.12560  0.20620  1.0000 0.1185715707
H   H120      1.0  0.12560  0.94760  0.29380  1.0000 0.1185715707
H   H121      1.0  0.14100  0.41060  0.87500  1.0000 0.1185715707
H   H122      1.0  0.41060  0.14100  0.62500  1.0000 0.1185715707
H   H123      1.0  0.85900  0.58940  0.12500  1.0000 0.1185715707
H   H124      1.0  0.58940  0.85900  0.37500  1.0000 0.1185715707
H   H125      1.0  0.12660  0.43600  0.94570  1.0000 0.1368620287
H   H126      1.0  0.43600  0.12660  0.55430  1.0000 0.1368620287
H   H127      1.0  0.87340  0.56400  0.05430  1.0000 0.1368620287
H   H128      1.0  0.56400  0.87340  0.44570  1.0000 0.1368620287
H   H129      1.0  0.32110  0.25790  0.00570  1.0000 0.1133209756
H   H130      1.0  0.25790  0.32110  0.49430  1.0000 0.1133209756
H   H131      1.0  0.67890  0.74210  0.99430  1.0000 0.1133209756
H   H132      1.0  0.74210  0.67890  0.50570  1.0000 0.1133209756
H   H133      1.0  0.33490  0.22690  0.93820  1.0000 0.1133209756
H   H134      1.0  0.22690  0.33490  0.56180  1.0000 0.1133209756
H   H135      1.0  0.66510  0.77310  0.06180  1.0000 0.1133209756
H   H136      1.0  0.77310  0.66510  0.43820  1.0000 0.1133209756
H   H137      1.0  0.58080  0.40300  0.79230  1.0000 0.1185715707
H   H138      1.0  0.40300  0.58080  0.70770  1.0000 0.1185715707
H   H139      1.0  0.41920  0.59700  0.20770  1.0000 0.1185715707
H   H140      1.0  0.59700  0.41920  0.29230  1.0000 0.1185715707
H   H141      1.0  0.67870  0.49870  0.79280  1.0000 0.1277811291
H   H142      1.0  0.49870  0.67870  0.70720  1.0000 0.1277811291
H   H143      1.0  0.32130  0.50130  0.20720  1.0000 0.1277811291
H   H144      1.0  0.50130  0.32130  0.29280  1.0000 0.1277811291
C   C1        1.0  0.51690  0.86930  0.03280  1.0000 0.1799111941
C   C2        1.0  0.86930  0.51690  0.46720  1.0000 0.1799111941
C   C3        1.0  0.48310  0.13070  0.96720  1.0000 0.1799111941
C   C4        1.0  0.13070  0.48310  0.53280  1.0000 0.1799111941
C   C5        1.0  0.47900  0.85020  0.99080  1.0000 -0.1803574791
C   C6        1.0  0.85020  0.47900  0.50920  1.0000 -0.1803574791
C   C7        1.0  0.52100  0.14980  0.00920  1.0000 -0.1803574791
C   C8        1.0  0.14980  0.52100  0.49080  1.0000 -0.1803574791
C   C9        1.0  0.52680  0.87940  0.96080  1.0000 -0.1875365038
C   C10       1.0  0.87940  0.52680  0.53920  1.0000 -0.1875365038
C   C11       1.0  0.47320  0.12060  0.03920  1.0000 -0.1875365038
C   C12       1.0  0.12060  0.47320  0.46080  1.0000 -0.1875365038
C   C13       1.0  0.59180  0.91920  0.98430  1.0000 0.1888349522
C   C14       1.0  0.91920  0.59180  0.51570  1.0000 0.1888349522
C   C15       1.0  0.40820  0.08080  0.01570  1.0000 0.1888349522
C   C16       1.0  0.08080  0.40820  0.48430  1.0000 0.1888349522
C   C17       1.0  0.66100  0.94620  0.96700  1.0000 -0.0731634576
C   C18       1.0  0.94620  0.66100  0.53300  1.0000 -0.0731634576
C   C19       1.0  0.33900  0.05380  0.03300  1.0000 -0.0731634576
C   C20       1.0  0.05380  0.33900  0.46700  1.0000 -0.0731634576
C   C21       1.0  0.72040  0.98620  0.99140  1.0000 0.1888349522
C   C22       1.0  0.98620  0.72040  0.50860  1.0000 0.1888349522
C   C23       1.0  0.27960  0.01380  0.00860  1.0000 0.1888349522
C   C24       1.0  0.01380  0.27960  0.49140  1.0000 0.1888349522
C   C25       1.0  0.79010  0.01870  0.97390  1.0000 -0.1803574791
C   C26       1.0  0.01870  0.79010  0.52610  1.0000 -0.1803574791
C   C27       1.0  0.20990  0.98130  0.02610  1.0000 -0.1803574791
C   C28       1.0  0.98130  0.20990  0.47390  1.0000 -0.1803574791
C   C29       1.0  0.82640  0.06500  0.00230  1.0000 -0.1691302712
C   C30       1.0  0.06500  0.82640  0.49770  1.0000 -0.1691302712
C   C31       1.0  0.17360  0.93500  0.99770  1.0000 -0.1691302712
C   C32       1.0  0.93500  0.17360  0.50230  1.0000 -0.1691302712
C   C33       1.0  0.77730  0.06270  0.03710  1.0000 0.1799111941
C   C34       1.0  0.06270  0.77730  0.46290  1.0000 0.1799111941
C   C35       1.0  0.22270  0.93730  0.96290  1.0000 0.1799111941
C   C36       1.0  0.93730  0.22270  0.53710  1.0000 0.1799111941
C   C37       1.0  0.78680  0.11000  0.07050  1.0000 -0.0731634576
C   C38       1.0  0.11000  0.78680  0.42950  1.0000 -0.0788212601
C   C39       1.0  0.21320  0.89000  0.92950  1.0000 -0.0788212601
C   C40       1.0  0.89000  0.21320  0.57050  1.0000 -0.0731634576
C   C41       1.0  0.73880  0.10520  0.10340  1.0000 0.1888349522
C   C42       1.0  0.10520  0.73880  0.39660  1.0000 0.1888349522
C   C43       1.0  0.26120  0.89480  0.89660  1.0000 0.1888349522
C   C44       1.0  0.89480  0.26120  0.60340  1.0000 0.1888349522
C   C45       1.0  0.74570  0.15770  0.13670  1.0000 -0.1803574791
C   C46       1.0  0.15770  0.74570  0.36330  1.0000 -0.1803574791
C   C47       1.0  0.25430  0.84230  0.86330  1.0000 -0.1803574791
C   C48       1.0  0.84230  0.25430  0.63670  1.0000 -0.1803574791
C   C49       1.0  0.69660  0.12900  0.16450  1.0000 -0.1803574791
C   C50       1.0  0.12900  0.69660  0.33550  1.0000 -0.1803574791
C   C51       1.0  0.30340  0.87100  0.83550  1.0000 -0.1803574791
C   C52       1.0  0.87100  0.30340  0.66450  1.0000 -0.1803574791
C   C53       1.0  0.66040  0.05960  0.15000  1.0000 0.1693372767
C   C54       1.0  0.05960  0.66040  0.35000  1.0000 0.1693372767
C   C55       1.0  0.33960  0.94040  0.85000  1.0000 0.1693372767
C   C56       1.0  0.94040  0.33960  0.65000  1.0000 0.1693372767
C   C57       1.0  0.61750  0.00450  0.17490  1.0000 -0.0731634576
C   C58       1.0  0.00450  0.61750  0.32510  1.0000 -0.0731634576
C   C59       1.0  0.38250  0.99550  0.82510  1.0000 -0.0731634576
C   C60       1.0  0.99550  0.38250  0.67490  1.0000 -0.0731634576
C   C61       1.0  0.58860  0.93340  0.15980  1.0000 0.1888349522
C   C62       1.0  0.93340  0.58860  0.34020  1.0000 0.1888349522
C   C63       1.0  0.41140  0.06660  0.84020  1.0000 0.1888349522
C   C64       1.0  0.06660  0.41140  0.65980  1.0000 0.1888349522
C   C65       1.0  0.55130  0.87070  0.18530  1.0000 -0.20015851
C   C66       1.0  0.87070  0.55130  0.31470  1.0000 -0.20015851
C   C67       1.0  0.44870  0.12930  0.81470  1.0000 -0.20015851
C   C68       1.0  0.12930  0.44870  0.68530  1.0000 -0.20015851
C   C69       1.0  0.51990  0.82050  0.15780  1.0000 -0.1691302712
C   C70       1.0  0.82050  0.51990  0.34220  1.0000 -0.1691302712
C   C71       1.0  0.48010  0.17950  0.84220  1.0000 -0.1691302712
C   C72       1.0  0.17950  0.48010  0.65780  1.0000 -0.1691302712
C   C73       1.0  0.53420  0.85600  0.11420  1.0000 0.1693372767
C   C74       1.0  0.85600  0.53420  0.38580  1.0000 0.1693372767
C   C75       1.0  0.46580  0.14400  0.88580  1.0000 0.1693372767
C   C76       1.0  0.14400  0.46580  0.61420  1.0000 0.1693372767
C   C77       1.0  0.49790  0.83590  0.07400  1.0000 -0.0788212601
C   C78       1.0  0.83590  0.49790  0.42600  1.0000 -0.0788212601
C   C79       1.0  0.50210  0.16410  0.92600  1.0000 -0.0788212601
C   C80       1.0  0.16410  0.50210  0.57400  1.0000 -0.0788212601
C   C81       1.0  0.67320  0.92700  0.92350  1.0000 0.0888969827
C   C82       1.0  0.92700  0.67320  0.57650  1.0000 0.0888969827
C   C83       1.0  0.32680  0.07300  0.07650  1.0000 0.0888969827
C   C84       1.0  0.07300  0.32680  0.42350  1.0000 0.0888969827
C   C85       1.0  0.62320  0.97060  0.88380  1.0000 -0.1487127762
C   C86       1.0  0.97060  0.62320  0.61620  1.0000 -0.1487127762
C   C87       1.0  0.37680  0.02940  0.11620  1.0000 -0.1487127762
C   C88       1.0  0.02940  0.37680  0.38380  1.0000 -0.1487127762
C   C89       1.0  0.63380  0.94980  0.84360  1.0000 -0.0887291964
C   C90       1.0  0.94980  0.63380  0.65640  1.0000 -0.0887291964
C   C91       1.0  0.36620  0.05020  0.15640  1.0000 -0.0887291964
C   C92       1.0  0.05020  0.36620  0.34360  1.0000 -0.0887291964
C   C93       1.0  0.69560  0.88260  0.84340  1.0000 -0.0338157784
C   C94       1.0  0.88260  0.69560  0.65660  1.0000 -0.0338157784
C   C95       1.0  0.30440  0.11740  0.15660  1.0000 -0.0338157784
C   C96       1.0  0.11740  0.30440  0.34340  1.0000 -0.0338157784
C   C97       1.0  0.74750  0.83970  0.88410  1.0000 -0.0788212601
C   C98       1.0  0.83970  0.74750  0.61590  1.0000 -0.0788212601
C   C99       1.0  0.25250  0.16030  0.11590  1.0000 -0.0788212601
C   C100      1.0  0.16030  0.25250  0.38410  1.0000 -0.0788212601
C   C101      1.0  0.73750  0.86090  0.92380  1.0000 -0.1330542673
C   C102      1.0  0.86090  0.73750  0.57620  1.0000 -0.1330542673
C   C103      1.0  0.26250  0.13910  0.07620  1.0000 -0.1330542673
C   C104      1.0  0.13910  0.26250  0.42380  1.0000 -0.1330542673
C   C105      1.0  0.70480  0.85800  0.80030  1.0000 0.6502358159
C   C106      1.0  0.85800  0.70480  0.69970  1.0000 0.6502358159
C   C107      1.0  0.29520  0.14200  0.19970  1.0000 0.6502358159
C   C108      1.0  0.14200  0.29520  0.30030  1.0000 0.6502358159
C   C109      1.0  0.85150  0.16970  0.07130  1.0000 0.0888969827
C   C110      1.0  0.16970  0.85150  0.42870  1.0000 0.0888969827
C   C111      1.0  0.14850  0.83030  0.92870  1.0000 0.0888969827
C   C112      1.0  0.83030  0.14850  0.57130  1.0000 0.0888969827
C   C113      1.0  0.93430  0.14010  0.09810  1.0000 -0.1691302712
C   C114      1.0  0.14010  0.93430  0.40190  1.0000 -0.1691302712
C   C115      1.0  0.06570  0.85990  0.90190  1.0000 -0.1691302712
C   C116      1.0  0.85990  0.06570  0.59810  1.0000 -0.1691302712
C   C117      1.0  0.99100  0.20020  0.10470  1.0000 -0.0887291964
C   C118      1.0  0.20020  0.99100  0.39530  1.0000 -0.0887291964
C   C119      1.0  0.00900  0.79980  0.89530  1.0000 -0.0887291964
C   C120      1.0  0.79980  0.00900  0.60470  1.0000 -0.0887291964
C   C121      1.0  0.96650  0.28710  0.08430  1.0000 -0.0502782448
C   C122      1.0  0.28710  0.96650  0.41570  1.0000 -0.0502782448
C   C123      1.0  0.03350  0.71290  0.91570  1.0000 -0.0502782448
C   C124      1.0  0.71290  0.03350  0.58430  1.0000 -0.0502782448
C   C125      1.0  0.88740  0.31120  0.05740  1.0000 -0.0731634576
C   C126      1.0  0.31120  0.88740  0.44260  1.0000 -0.0731634576
C   C127      1.0  0.11260  0.68880  0.94260  1.0000 -0.0731634576
C   C128      1.0  0.68880  0.11260  0.55740  1.0000 -0.0731634576
C   C129      1.0  0.82920  0.25500  0.05090  1.0000 -0.1487127762
C   C130      1.0  0.25500  0.82920  0.44910  1.0000 -0.1487127762
C   C131      1.0  0.17080  0.74500  0.94910  1.0000 -0.1487127762
C   C132      1.0  0.74500  0.17080  0.55090  1.0000 -0.1487127762
C   C133      1.0  0.02480  0.34960  0.09260  1.0000 0.6075725894
C   C134      1.0  0.34960  0.02480  0.40740  1.0000 0.6075725894
C   C135      1.0  0.97520  0.65040  0.90740  1.0000 0.6075725894
C   C136      1.0  0.65040  0.97520  0.59260  1.0000 0.6075725894
C   C137      1.0  0.60160  0.02400  0.21830  1.0000 0.0969725143
C   C138      1.0  0.02400  0.60160  0.28170  1.0000 0.0969725143
C   C139      1.0  0.39840  0.97600  0.78170  1.0000 0.0969725143
C   C140      1.0  0.97600  0.39840  0.71830  1.0000 0.0969725143
C   C141      1.0  0.54660  0.09740  0.21740  1.0000 -0.1487127762
C   C142      1.0  0.09740  0.54660  0.28260  1.0000 -0.1487127762
C   C143      1.0  0.45340  0.90260  0.78260  1.0000 -0.1487127762
C   C144      1.0  0.90260  0.45340  0.71740  1.0000 -0.1487127762
C   C145      1.0  0.52670  0.11330  0.25660  1.0000 -0.0788212601
C   C146      1.0  0.11330  0.52670  0.24340  1.0000 -0.0731634576
C   C147      1.0  0.47330  0.88670  0.74340  1.0000 -0.0731634576
C   C148      1.0  0.88670  0.47330  0.75660  1.0000 -0.0788212601
C   C149      1.0  0.55880  0.05860  0.29740  1.0000 -0.0444490273
C   C150      1.0  0.05860  0.55880  0.20260  1.0000 -0.0444490273
C   C151      1.0  0.44120  0.94140  0.70260  1.0000 -0.0444490273
C   C152      1.0  0.94140  0.44120  0.79740  1.0000 -0.0444490273
C   C153      1.0  0.61770  0.98770  0.29890  1.0000 -0.0887291964
C   C154      1.0  0.98770  0.61770  0.20110  1.0000 -0.0887291964
C   C155      1.0  0.38230  0.01230  0.70110  1.0000 -0.0887291964
C   C156      1.0  0.01230  0.38230  0.79890  1.0000 -0.0887291964
C   C157      1.0  0.63730  0.97030  0.25920  1.0000 -0.1487127762
C   C158      1.0  0.97030  0.63730  0.24080  1.0000 -0.1487127762
C   C159      1.0  0.36270  0.02970  0.74080  1.0000 -0.1487127762
C   C160      1.0  0.02970  0.36270  0.75920  1.0000 -0.1487127762
C   C161      1.0  0.53150  0.07150  0.33840  1.0000 0.6075725894
C   C162      1.0  0.07150  0.53150  0.16160  1.0000 0.6075725894
C   C163      1.0  0.46850  0.92850  0.66160  1.0000 0.6075725894
C   C164      1.0  0.92850  0.46850  0.83840  1.0000 0.6075725894
C   C165      1.0  0.43440  0.77280  0.07580  1.0000 0.0969725143
C   C166      1.0  0.77280  0.43440  0.42420  1.0000 0.0969725143
C   C167      1.0  0.56560  0.22720  0.92420  1.0000 0.0969725143
C   C168      1.0  0.22720  0.56560  0.57580  1.0000 0.0969725143
C   C169      1.0  0.44880  0.69680  0.06200  1.0000 -0.1487127762
C   C170      1.0  0.69680  0.44880  0.43800  1.0000 -0.1487127762
C   C171      1.0  0.55120  0.30320  0.93800  1.0000 -0.1487127762
C   C172      1.0  0.30320  0.55120  0.56200  1.0000 -0.1487127762
C   C173      1.0  0.38910  0.63930  0.06420  1.0000 -0.1026765812
C   C174      1.0  0.63930  0.38910  0.43580  1.0000 -0.1026765812
C   C175      1.0  0.61090  0.36070  0.93580  1.0000 -0.1026765812
C   C176      1.0  0.36070  0.61090  0.56420  1.0000 -0.1026765812
C   C177      1.0  0.31690  0.65870  0.07970  1.0000 -0.0190121584
C   C178      1.0  0.65870  0.31690  0.42030  1.0000 -0.0190121584
C   C179      1.0  0.68310  0.34130  0.92030  1.0000 -0.0190121584
C   C180      1.0  0.34130  0.68310  0.57970  1.0000 -0.0190121584
C   C181      1.0  0.30140  0.73440  0.09340  1.0000 -0.1026765812
C   C182      1.0  0.73440  0.30140  0.40660  1.0000 -0.1026765812
C   C183      1.0  0.69860  0.26560  0.90660  1.0000 -0.1026765812
C   C184      1.0  0.26560  0.69860  0.59340  1.0000 -0.1026765812
C   C185      1.0  0.35970  0.79070  0.09080  1.0000 -0.1487127762
C   C186      1.0  0.79070  0.35970  0.40920  1.0000 -0.1487127762
C   C187      1.0  0.64030  0.20930  0.90920  1.0000 -0.1487127762
C   C188      1.0  0.20930  0.64030  0.59080  1.0000 -0.1487127762
C   C189      1.0  0.25300  0.59740  0.08190  1.0000 0.5770580213
C   C190      1.0  0.59740  0.25300  0.41810  1.0000 0.5770580213
C   C191      1.0  0.74700  0.40260  0.91810  1.0000 0.5770580213
C   C192      1.0  0.40260  0.74700  0.58190  1.0000 0.5770580213
C   C193      1.0  0.13270  0.13270  0.75000  1.0000 -0.0887291964
C   C194      1.0  0.86730  0.86730  0.25000  1.0000 -0.0887291964
C   C195      1.0  0.16220  0.15900  0.78990  1.0000 0.1693372767
C   C196      1.0  0.15900  0.16220  0.71010  1.0000 0.1693372767
C   C197      1.0  0.83780  0.84100  0.21010  1.0000 0.1693372767
C   C198      1.0  0.84100  0.83780  0.28990  1.0000 0.1693372767
C   C199      1.0  0.13340  0.13340  0.83120  1.0000 -0.1691302712
C   C200      1.0  0.13340  0.13340  0.66880  1.0000 -0.1691302712
C   C201      1.0  0.86660  0.86660  0.16880  1.0000 -0.1691302712
C   C202      1.0  0.86660  0.86660  0.33120  1.0000 -0.1691302712
C   C203      1.0  0.16430  0.18190  0.85910  1.0000 -0.1691302712
C   C204      1.0  0.18190  0.16430  0.64090  1.0000 -0.1691302712
C   C205      1.0  0.83570  0.81810  0.14090  1.0000 -0.1691302712
C   C206      1.0  0.81810  0.83570  0.35910  1.0000 -0.1691302712
C   C207      1.0  0.21600  0.23560  0.83690  1.0000 0.1799111941
C   C208      1.0  0.23560  0.21600  0.66310  1.0000 0.1799111941
C   C209      1.0  0.78400  0.76440  0.16310  1.0000 0.1799111941
C   C210      1.0  0.76440  0.78400  0.33690  1.0000 0.1799111941
C   C211      1.0  0.25500  0.29780  0.85540  1.0000 -0.0595619079
C   C212      1.0  0.29780  0.25500  0.64460  1.0000 -0.0595619079
C   C213      1.0  0.74500  0.70220  0.14460  1.0000 -0.0595619079
C   C214      1.0  0.70220  0.74500  0.35540  1.0000 -0.0595619079
C   C215      1.0  0.30850  0.34570  0.83430  1.0000 0.1888349522
C   C216      1.0  0.34570  0.30850  0.66570  1.0000 0.1888349522
C   C217      1.0  0.69150  0.65430  0.16570  1.0000 0.1888349522
C   C218      1.0  0.65430  0.69150  0.33430  1.0000 0.1888349522
C   C219      1.0  0.35660  0.40300  0.85500  1.0000 -0.1691302712
C   C220      1.0  0.40300  0.35660  0.64500  1.0000 -0.1691302712
C   C221      1.0  0.64340  0.59700  0.14500  1.0000 -0.1691302712
C   C222      1.0  0.59700  0.64340  0.35500  1.0000 -0.1691302712
C   C223      1.0  0.40410  0.43530  0.82630  1.0000 -0.1691302712
C   C224      1.0  0.43530  0.40410  0.67370  1.0000 -0.1691302712
C   C225      1.0  0.59590  0.56470  0.17370  1.0000 -0.1691302712
C   C226      1.0  0.56470  0.59590  0.32630  1.0000 -0.1691302712
C   C227      1.0  0.38560  0.39800  0.78820  1.0000 0.1693372767
C   C228      1.0  0.39800  0.38560  0.71180  1.0000 0.1693372767
C   C229      1.0  0.61440  0.60200  0.21180  1.0000 0.1647512953
C   C230      1.0  0.60200  0.61440  0.28820  1.0000 0.1647512953
C   C231      1.0  0.42080  0.42080  0.75000  1.0000 -0.0502782448
C   C232      1.0  0.57920  0.57920  0.25000  1.0000 -0.0502782448
C   C233      1.0  0.06970  0.06970  0.75000  1.0000 0.0969725143
C   C234      1.0  0.93030  0.93030  0.25000  1.0000 0.0969725143
C   C235      1.0  0.09130  0.98650  0.77510  1.0000 -0.1487127762
C   C236      1.0  0.98650  0.09130  0.72490  1.0000 -0.1487127762
C   C237      1.0  0.90870  0.01350  0.22490  1.0000 -0.1487127762
C   C238      1.0  0.01350  0.90870  0.27510  1.0000 -0.1487127762
C   C239      1.0  0.03450  0.92990  0.77550  1.0000 -0.0788212601
C   C240      1.0  0.92990  0.03450  0.72450  1.0000 -0.0788212601
C   C241      1.0  0.96550  0.07010  0.22450  1.0000 -0.0788212601
C   C242      1.0  0.07010  0.96550  0.27550  1.0000 -0.0788212601
C   C243      1.0  0.94990  0.94990  0.75000  1.0000 -0.1090932522
C   C244      1.0  0.05010  0.05010  0.25000  1.0000 -0.1090932522
C   C245      1.0  0.89110  0.89110  0.75000  1.0000 0.6412836354
C   C246      1.0  0.10890  0.10890  0.25000  1.0000 0.6412836354
C   C247      1.0  0.24080  0.31320  0.89930  1.0000 0.0771052133
C   C248      1.0  0.31320  0.24080  0.60070  1.0000 0.0771052133
C   C249      1.0  0.75920  0.68680  0.10070  1.0000 0.0771052133
C   C250      1.0  0.68680  0.75920  0.39930  1.0000 0.0771052133
C   C251      1.0  0.17820  0.37780  0.90160  1.0000 -0.137781914
C   C252      1.0  0.37780  0.17820  0.59840  1.0000 -0.137781914
C   C253      1.0  0.82180  0.62220  0.09840  1.0000 -0.137781914
C   C254      1.0  0.62220  0.82180  0.40160  1.0000 -0.137781914
C   C255      1.0  0.17110  0.39370  0.94460  1.0000 -0.0731634576
C   C256      1.0  0.39370  0.17110  0.55540  1.0000 -0.0731634576
C   C257      1.0  0.82890  0.60630  0.05540  1.0000 -0.0731634576
C   C258      1.0  0.60630  0.82890  0.44460  1.0000 -0.0731634576
C   C259      1.0  0.22420  0.35240  0.98450  1.0000 -0.0887291964
C   C260      1.0  0.35240  0.22420  0.51550  1.0000 -0.0887291964
C   C261      1.0  0.77580  0.64760  0.01550  1.0000 -0.0887291964
C   C262      1.0  0.64760  0.77580  0.48450  1.0000 -0.0887291964
C   C263      1.0  0.28310  0.29030  0.97930  1.0000 -0.0887291964
C   C264      1.0  0.29030  0.28310  0.52070  1.0000 -0.0887291964
C   C265      1.0  0.71690  0.70970  0.02070  1.0000 -0.0887291964
C   C266      1.0  0.70970  0.71690  0.47930  1.0000 -0.0887291964
C   C267      1.0  0.29160  0.27120  0.93860  1.0000 -0.1487127762
C   C268      1.0  0.27120  0.29160  0.56140  1.0000 -0.1487127762
C   C269      1.0  0.70840  0.72880  0.06140  1.0000 -0.1487127762
C   C270      1.0  0.72880  0.70840  0.43860  1.0000 -0.1487127762
C   C271      1.0  0.21610  0.37150  0.02620  1.0000 0.5740491193
C   C272      1.0  0.37150  0.21610  0.47380  1.0000 0.5740491193
C   C273      1.0  0.78390  0.62850  0.97380  1.0000 0.5740491193
C   C274      1.0  0.62850  0.78390  0.52620  1.0000 0.5740491193
C   C275      1.0  0.48240  0.48240  0.75000  1.0000 0.0688392114
C   C276      1.0  0.51760  0.51760  0.25000  1.0000 0.0688392114
C   C277      1.0  0.56400  0.45940  0.77490  1.0000 -0.1487127762
C   C278      1.0  0.45940  0.56400  0.72510  1.0000 -0.1487127762
C   C279      1.0  0.43600  0.54060  0.22510  1.0000 -0.1487127762
C   C280      1.0  0.54060  0.43600  0.27490  1.0000 -0.1487127762
C   C281      1.0  0.62260  0.51620  0.77530  1.0000 -0.0887291964
C   C282      1.0  0.51620  0.62260  0.72470  1.0000 -0.0887291964
C   C283      1.0  0.37740  0.48380  0.22470  1.0000 -0.0887291964
C   C284      1.0  0.48380  0.37740  0.27530  1.0000 -0.0887291964
C   C285      1.0  0.59920  0.59920  0.75000  1.0000 -0.0338157784
C   C286      1.0  0.40080  0.40080  0.25000  1.0000 -0.0338157784
C   C287      1.0  0.66170  0.66170  0.75000  1.0000 0.6502358159
C   C288      1.0  0.33830  0.33830  0.25000  1.0000 0.6502358159
N   N1        1.0  0.58260  0.91700  0.02807  1.0000 -0.3789790474
N   N2        1.0  0.91700  0.58260  0.47193  1.0000 -0.3789790474
N   N3        1.0  0.41740  0.08300  0.97193  1.0000 -0.3789790474
N   N4        1.0  0.08300  0.41740  0.52807  1.0000 -0.3789790474
N   N5        1.0  0.71340  0.01120  0.03050  1.0000 -0.3789790474
N   N6        1.0  0.01120  0.71340  0.46950  1.0000 -0.3789790474
N   N7        1.0  0.28660  0.98880  0.96950  1.0000 -0.3789790474
N   N8        1.0  0.98880  0.28660  0.53050  1.0000 -0.3789790474
N   N9        1.0  0.68440  0.04780  0.11071  1.0000 -0.3714777191
N   N10       1.0  0.04780  0.68440  0.38929  1.0000 -0.3714777191
N   N11       1.0  0.31560  0.95220  0.88929  1.0000 -0.3714777191
N   N12       1.0  0.95220  0.31560  0.61071  1.0000 -0.3714777191
N   N13       1.0  0.58350  0.92150  0.11724  1.0000 -0.3789790474
N   N14       1.0  0.92150  0.58350  0.38276  1.0000 -0.3789790474
N   N15       1.0  0.41650  0.07850  0.88276  1.0000 -0.3789790474
N   N16       1.0  0.07850  0.41650  0.61724  1.0000 -0.3789790474
N   N17       1.0  0.21510  0.22110  0.79428  1.0000 -0.3789790474
N   N18       1.0  0.22110  0.21510  0.70572  1.0000 -0.3789790474
N   N19       1.0  0.78490  0.77890  0.20572  1.0000 -0.3789790474
N   N20       1.0  0.77890  0.78490  0.29428  1.0000 -0.3789790474
N   N21       1.0  0.32520  0.34340  0.79299  1.0000 -0.3714777191
N   N22       1.0  0.34340  0.32520  0.70701  1.0000 -0.3714777191
N   N23       1.0  0.67480  0.65660  0.20701  1.0000 -0.3714777191
N   N24       1.0  0.65660  0.67480  0.29299  1.0000 -0.3714777191
O   O1        1.0  0.65828  0.90088  0.76423  1.0000 -0.6463962753
O   O2        1.0  0.90088  0.65828  0.73577  1.0000 -0.6463962753
O   O3        1.0  0.34172  0.09912  0.23577  1.0000 -0.6463962753
O   O4        1.0  0.09912  0.34172  0.26423  1.0000 -0.6463962753
O   O5        1.0  0.75950  0.79450  0.80117  1.0000 -0.7421665747
O   O6        1.0  0.79450  0.75950  0.69883  1.0000 -0.7421665747
O   O7        1.0  0.24050  0.20550  0.19883  1.0000 -0.7421665747
O   O8        1.0  0.20550  0.24050  0.30117  1.0000 -0.7421665747
O   O9        1.0  0.00379  0.42519  0.07239  1.0000 -0.5856644471
O   O10       1.0  0.42519  0.00379  0.42761  1.0000 -0.5856644471
O   O11       1.0  0.99621  0.57481  0.92761  1.0000 -0.5856644471
O   O12       1.0  0.57481  0.99621  0.57239  1.0000 -0.5856644471
O   O13       1.0  0.09523  0.32463  0.12082  1.0000 -0.7461655695
O   O14       1.0  0.32463  0.09523  0.37918  1.0000 -0.7461655695
O   O15       1.0  0.90477  0.67537  0.87918  1.0000 -0.7461655695
O   O16       1.0  0.67537  0.90477  0.62082  1.0000 -0.7461655695
O   O17       1.0  0.46052  0.12292  0.33333  1.0000 -0.7947921712
O   O18       1.0  0.12292  0.46052  0.16667  1.0000 -0.7947921712
O   O19       1.0  0.53948  0.87708  0.66667  1.0000 -0.7947921712
O   O20       1.0  0.87708  0.53948  0.83333  1.0000 -0.7947921712
O   O21       1.0  0.57154  0.03634  0.37664  1.0000 -0.5530470569
O   O22       1.0  0.03634  0.57154  0.12336  1.0000 -0.5530470569
O   O23       1.0  0.42846  0.96366  0.62336  1.0000 -0.5530470569
O   O24       1.0  0.96366  0.42846  0.87664  1.0000 -0.5530470569
O   O25       1.0  0.20660  0.59600  0.11020  1.0000 -0.6181585897
O   O26       1.0  0.59600  0.20660  0.38980  1.0000 -0.6181585897
O   O27       1.0  0.79340  0.40400  0.88980  1.0000 -0.6181585897
O   O28       1.0  0.40400  0.79340  0.61020  1.0000 -0.6181585897
O   O29       1.0  0.24710  0.54670  0.05440  1.0000 -0.6404808123
O   O30       1.0  0.54670  0.24710  0.44560  1.0000 -0.6404808123
O   O31       1.0  0.75290  0.45330  0.94560  1.0000 -0.6404808123
O   O32       1.0  0.45330  0.75290  0.55440  1.0000 -0.6404808123
O   O33       1.0  0.81537  0.91337  0.72602  1.0000 -0.6910245974
O   O34       1.0  0.91337  0.81537  0.77398  1.0000 -0.6910245974
O   O35       1.0  0.18463  0.08663  0.27398  1.0000 -0.6910245974
O   O36       1.0  0.08663  0.18463  0.22602  1.0000 -0.6910245974
O   O37       1.0  0.27920  0.34620  0.05950  1.0000 -0.5572385003
O   O38       1.0  0.34620  0.27920  0.44050  1.0000 -0.5572385003
O   O39       1.0  0.72080  0.65380  0.94050  1.0000 -0.5572385003
O   O40       1.0  0.65380  0.72080  0.55950  1.0000 -0.5572385003
O   O41       1.0  0.15240  0.41340  0.03130  1.0000 -0.6146218736
O   O42       1.0  0.41340  0.15240  0.46870  1.0000 -0.6146218736
O   O43       1.0  0.84760  0.58660  0.96870  1.0000 -0.6146218736
O   O44       1.0  0.58660  0.84760  0.53130  1.0000 -0.6146218736
O   O45       1.0  0.73553  0.63713  0.77276  1.0000 -0.6578555066
O   O46       1.0  0.63713  0.73553  0.72724  1.0000 -0.6578555066
O   O47       1.0  0.26447  0.36287  0.22724  1.0000 -0.6578555066
O   O48       1.0  0.36287  0.26447  0.27276  1.0000 -0.6578555066
