# DDEC6 charges by PACMAN v1.1 (https://github.com/mtap-research/PACMAN-charge/)
data_2007[Zn][srs]3[ASR]1
_chemical_formula_sum              "Zn24 H192 C288 I48 N96"
_cell_length_a       13.69
_cell_length_b       27.596
_cell_length_c       45.419
_cell_angle_alpha    90
_cell_angle_beta     90
_cell_angle_gamma    90

_symmetry_space_group_name_H-M    "P 1"
_symmetry_Int_Tables_number       1

loop_
  _symmetry_equiv_pos_as_xyz
  'x, y, z'

loop_
  _atom_site_type_symbol
  _atom_site_label
  _atom_site_symmetry_multiplicity
  _atom_site_fract_x
  _atom_site_fract_y
  _atom_site_fract_z
  _atom_site_occupancy
  _atom_site_charge
Zn  Zn1       1.0  0.34367  0.74761  0.81417  1.0000 0.467277731
Zn  Zn2       1.0  0.65633  0.75239  0.31417  1.0000 0.467277731
Zn  Zn3       1.0  0.84367  0.25239  0.68583  1.0000 0.467277731
Zn  Zn4       1.0  0.15633  0.24761  0.18583  1.0000 0.467277731
Zn  Zn5       1.0  0.34739  0.54947  0.07550  1.0000 0.4526108347
Zn  Zn6       1.0  0.65261  0.95053  0.57550  1.0000 0.4526108347
Zn  Zn7       1.0  0.84739  0.45053  0.42450  1.0000 0.4526108347
Zn  Zn8       1.0  0.15261  0.04947  0.92450  1.0000 0.4526108347
Zn  Zn9       1.0  0.13734  0.52762  0.90951  1.0000 0.4612256467
Zn  Zn10      1.0  0.86266  0.97238  0.40951  1.0000 0.4612256467
Zn  Zn11      1.0  0.63734  0.47238  0.59049  1.0000 0.4612256467
Zn  Zn12      1.0  0.36266  0.02762  0.09049  1.0000 0.4612256467
Zn  Zn13      1.0  0.65633  0.25239  0.18583  1.0000 0.467277731
Zn  Zn14      1.0  0.34367  0.24761  0.68583  1.0000 0.467277731
Zn  Zn15      1.0  0.15633  0.74761  0.31417  1.0000 0.467277731
Zn  Zn16      1.0  0.84367  0.75239  0.81417  1.0000 0.467277731
Zn  Zn17      1.0  0.65261  0.45053  0.92450  1.0000 0.4526108347
Zn  Zn18      1.0  0.34739  0.04947  0.42450  1.0000 0.4526108347
Zn  Zn19      1.0  0.15261  0.54947  0.57550  1.0000 0.4526108347
Zn  Zn20      1.0  0.84739  0.95053  0.07550  1.0000 0.4526108347
Zn  Zn21      1.0  0.86266  0.47238  0.09049  1.0000 0.4612256467
Zn  Zn22      1.0  0.13734  0.02762  0.59049  1.0000 0.4612256467
Zn  Zn23      1.0  0.36266  0.52762  0.40951  1.0000 0.4612256467
Zn  Zn24      1.0  0.63734  0.97238  0.90951  1.0000 0.4612256467
H   H1        1.0  0.96890  0.56900  0.87640  1.0000 0.1094727989
H   H2        1.0  0.03110  0.93100  0.37640  1.0000 0.1094727989
H   H3        1.0  0.46890  0.43100  0.62360  1.0000 0.1094727989
H   H4        1.0  0.53110  0.06900  0.12360  1.0000 0.1094727989
H   H5        1.0  0.81360  0.59940  0.88420  1.0000 0.1368835216
H   H6        1.0  0.18640  0.90060  0.38420  1.0000 0.1368835216
H   H7        1.0  0.31360  0.40060  0.61580  1.0000 0.1368835216
H   H8        1.0  0.68640  0.09940  0.11580  1.0000 0.1368835216
H   H9        1.0  0.00760  0.55190  0.96160  1.0000 0.1094727989
H   H10       1.0  0.99240  0.94810  0.46160  1.0000 0.1094727989
H   H11       1.0  0.50760  0.44810  0.53840  1.0000 0.1094727989
H   H12       1.0  0.49240  0.05190  0.03840  1.0000 0.1094727989
H   H13       1.0  0.85270  0.58070  0.97080  1.0000 0.1368835216
H   H14       1.0  0.14730  0.91930  0.47080  1.0000 0.1368835216
H   H15       1.0  0.35270  0.41930  0.52920  1.0000 0.1368835216
H   H16       1.0  0.64730  0.08070  0.02920  1.0000 0.1368835216
H   H17       1.0  0.54850  0.53630  0.04880  1.0000 0.1094727989
H   H18       1.0  0.45150  0.96370  0.54880  1.0000 0.1094727989
H   H19       1.0  0.04850  0.46370  0.45120  1.0000 0.1094727989
H   H20       1.0  0.95150  0.03630  0.95120  1.0000 0.1094727989
H   H21       1.0  0.63570  0.56050  0.00810  1.0000 0.1368835216
H   H22       1.0  0.36430  0.93950  0.50810  1.0000 0.1368835216
H   H23       1.0  0.13570  0.43950  0.49190  1.0000 0.1368835216
H   H24       1.0  0.86430  0.06050  0.99190  1.0000 0.1368835216
H   H25       1.0  0.30660  0.59150  0.01570  1.0000 0.1094727989
H   H26       1.0  0.69340  0.90850  0.51570  1.0000 0.1094727989
H   H27       1.0  0.80660  0.40850  0.48430  1.0000 0.1094727989
H   H28       1.0  0.19340  0.09150  0.98430  1.0000 0.1094727989
H   H29       1.0  0.38820  0.61570  0.97390  1.0000 0.1368835216
H   H30       1.0  0.61180  0.88430  0.47390  1.0000 0.1368835216
H   H31       1.0  0.88820  0.38430  0.52610  1.0000 0.1368835216
H   H32       1.0  0.11180  0.11570  0.02610  1.0000 0.1368835216
H   H33       1.0  0.30550  0.68880  0.86740  1.0000 0.1094727989
H   H34       1.0  0.69450  0.81120  0.36740  1.0000 0.1094727989
H   H35       1.0  0.80550  0.31120  0.63260  1.0000 0.1094727989
H   H36       1.0  0.19450  0.18880  0.13260  1.0000 0.1094727989
H   H37       1.0  0.38680  0.65170  0.90620  1.0000 0.1323931093
H   H38       1.0  0.61320  0.84830  0.40620  1.0000 0.1368835216
H   H39       1.0  0.88680  0.34830  0.59380  1.0000 0.1368835216
H   H40       1.0  0.11320  0.15170  0.09380  1.0000 0.1368835216
H   H41       1.0  0.55270  0.73170  0.83210  1.0000 0.1094727989
H   H42       1.0  0.44730  0.76830  0.33210  1.0000 0.1094727989
H   H43       1.0  0.05270  0.26830  0.66790  1.0000 0.1094727989
H   H44       1.0  0.94730  0.23170  0.16790  1.0000 0.1094727989
H   H45       1.0  0.64230  0.69440  0.86960  1.0000 0.1368835216
H   H46       1.0  0.35770  0.80560  0.36960  1.0000 0.1368835216
H   H47       1.0  0.14230  0.30560  0.63040  1.0000 0.1368835216
H   H48       1.0  0.85770  0.19440  0.13040  1.0000 0.1368835216
H   H49       1.0  0.41430  0.66730  0.77600  1.0000 0.1094727989
H   H50       1.0  0.58570  0.83270  0.27600  1.0000 0.1094727989
H   H51       1.0  0.91430  0.33270  0.72400  1.0000 0.1094727989
H   H52       1.0  0.08570  0.16730  0.22400  1.0000 0.1094727989
H   H53       1.0  0.47550  0.65590  0.72890  1.0000 0.1368835216
H   H54       1.0  0.52450  0.84410  0.22890  1.0000 0.1323931093
H   H55       1.0  0.97550  0.34410  0.77110  1.0000 0.1368835216
H   H56       1.0  0.02450  0.15590  0.27110  1.0000 0.1368835216
H   H57       1.0  0.45820  0.80850  0.77110  1.0000 0.1094727989
H   H58       1.0  0.54180  0.69150  0.27110  1.0000 0.1094727989
H   H59       1.0  0.95820  0.19150  0.72890  1.0000 0.1094727989
H   H60       1.0  0.04180  0.30850  0.22890  1.0000 0.1094727989
H   H61       1.0  0.51780  0.80130  0.72320  1.0000 0.1323931093
H   H62       1.0  0.48220  0.69870  0.22320  1.0000 0.1323931093
H   H63       1.0  0.01780  0.19870  0.77680  1.0000 0.1323931093
H   H64       1.0  0.98220  0.30130  0.27680  1.0000 0.1323931093
H   H65       1.0  0.57510  0.91980  0.63440  1.0000 0.1007592862
H   H66       1.0  0.42490  0.58020  0.13440  1.0000 0.1007592862
H   H67       1.0  0.07510  0.08020  0.86560  1.0000 0.1007592862
H   H68       1.0  0.92490  0.41980  0.36560  1.0000 0.1007592862
H   H69       1.0  0.54770  0.85020  0.66180  1.0000 0.1323931093
H   H70       1.0  0.45230  0.64980  0.16180  1.0000 0.1323931093
H   H71       1.0  0.04770  0.14980  0.83820  1.0000 0.1323931093
H   H72       1.0  0.95230  0.35020  0.33820  1.0000 0.1323931093
H   H73       1.0  0.65320  0.84330  0.56550  1.0000 0.1007592862
H   H74       1.0  0.34680  0.65670  0.06550  1.0000 0.1007592862
H   H75       1.0  0.15320  0.15670  0.93450  1.0000 0.1007592862
H   H76       1.0  0.84680  0.34330  0.43450  1.0000 0.1007592862
H   H77       1.0  0.62550  0.77100  0.59060  1.0000 0.1368835216
H   H78       1.0  0.37450  0.72900  0.09060  1.0000 0.1368835216
H   H79       1.0  0.12550  0.22900  0.90940  1.0000 0.1368835216
H   H80       1.0  0.87450  0.27100  0.40940  1.0000 0.1368835216
H   H81       1.0  0.62280  0.57660  0.57350  1.0000 0.1094727989
H   H82       1.0  0.37720  0.92340  0.07350  1.0000 0.1094727989
H   H83       1.0  0.12280  0.42340  0.92650  1.0000 0.1094727989
H   H84       1.0  0.87720  0.07660  0.42650  1.0000 0.1094727989
H   H85       1.0  0.59870  0.65230  0.59420  1.0000 0.1323931093
H   H86       1.0  0.40130  0.84770  0.09420  1.0000 0.1323931093
H   H87       1.0  0.09870  0.34770  0.90580  1.0000 0.1323931093
H   H88       1.0  0.90130  0.15230  0.40580  1.0000 0.1323931093
H   H89       1.0  0.58290  0.51350  0.64990  1.0000 0.1094727989
H   H90       1.0  0.41710  0.98650  0.14990  1.0000 0.1094727989
H   H91       1.0  0.08290  0.48650  0.85010  1.0000 0.1094727989
H   H92       1.0  0.91710  0.01350  0.35010  1.0000 0.1094727989
H   H93       1.0  0.55850  0.58820  0.67290  1.0000 0.1323931093
H   H94       1.0  0.44150  0.91180  0.17290  1.0000 0.1323931093
H   H95       1.0  0.05850  0.41180  0.82710  1.0000 0.1368835216
H   H96       1.0  0.94150  0.08820  0.32710  1.0000 0.1323931093
H   H97       1.0  0.03110  0.43100  0.12360  1.0000 0.1094727989
H   H98       1.0  0.96890  0.06900  0.62360  1.0000 0.1094727989
H   H99       1.0  0.53110  0.56900  0.37640  1.0000 0.1094727989
H   H100      1.0  0.46890  0.93100  0.87640  1.0000 0.1094727989
H   H101      1.0  0.18640  0.40060  0.11580  1.0000 0.1368835216
H   H102      1.0  0.81360  0.09940  0.61580  1.0000 0.1368835216
H   H103      1.0  0.68640  0.59940  0.38420  1.0000 0.1368835216
H   H104      1.0  0.31360  0.90060  0.88420  1.0000 0.1368835216
H   H105      1.0  0.99240  0.44810  0.03840  1.0000 0.1094727989
H   H106      1.0  0.00760  0.05190  0.53840  1.0000 0.1094727989
H   H107      1.0  0.49240  0.55190  0.46160  1.0000 0.1094727989
H   H108      1.0  0.50760  0.94810  0.96160  1.0000 0.1094727989
H   H109      1.0  0.14730  0.41930  0.02920  1.0000 0.1368835216
H   H110      1.0  0.85270  0.08070  0.52920  1.0000 0.1368835216
H   H111      1.0  0.64730  0.58070  0.47080  1.0000 0.1368835216
H   H112      1.0  0.35270  0.91930  0.97080  1.0000 0.1368835216
H   H113      1.0  0.45150  0.46370  0.95120  1.0000 0.1094727989
H   H114      1.0  0.54850  0.03630  0.45120  1.0000 0.1094727989
H   H115      1.0  0.95150  0.53630  0.54880  1.0000 0.1094727989
H   H116      1.0  0.04850  0.96370  0.04880  1.0000 0.1094727989
H   H117      1.0  0.36430  0.43950  0.99190  1.0000 0.1368835216
H   H118      1.0  0.63570  0.06050  0.49190  1.0000 0.1368835216
H   H119      1.0  0.86430  0.56050  0.50810  1.0000 0.1368835216
H   H120      1.0  0.13570  0.93950  0.00810  1.0000 0.1368835216
H   H121      1.0  0.69340  0.40850  0.98430  1.0000 0.1094727989
H   H122      1.0  0.30660  0.09150  0.48430  1.0000 0.1094727989
H   H123      1.0  0.19340  0.59150  0.51570  1.0000 0.1094727989
H   H124      1.0  0.80660  0.90850  0.01570  1.0000 0.1094727989
H   H125      1.0  0.61180  0.38430  0.02610  1.0000 0.1368835216
H   H126      1.0  0.38820  0.11570  0.52610  1.0000 0.1368835216
H   H127      1.0  0.11180  0.61570  0.47390  1.0000 0.1368835216
H   H128      1.0  0.88820  0.88430  0.97390  1.0000 0.1368835216
H   H129      1.0  0.69450  0.31120  0.13260  1.0000 0.1094727989
H   H130      1.0  0.30550  0.18880  0.63260  1.0000 0.1094727989
H   H131      1.0  0.19450  0.68880  0.36740  1.0000 0.1094727989
H   H132      1.0  0.80550  0.81120  0.86740  1.0000 0.1094727989
H   H133      1.0  0.61320  0.34830  0.09380  1.0000 0.1368835216
H   H134      1.0  0.38680  0.15170  0.59380  1.0000 0.1368835216
H   H135      1.0  0.11320  0.65170  0.40620  1.0000 0.1368835216
H   H136      1.0  0.88680  0.84830  0.90620  1.0000 0.1368835216
H   H137      1.0  0.44730  0.26830  0.16790  1.0000 0.1094727989
H   H138      1.0  0.55270  0.23170  0.66790  1.0000 0.1094727989
H   H139      1.0  0.94730  0.73170  0.33210  1.0000 0.1094727989
H   H140      1.0  0.05270  0.76830  0.83210  1.0000 0.1094727989
H   H141      1.0  0.35770  0.30560  0.13040  1.0000 0.1368835216
H   H142      1.0  0.64230  0.19440  0.63040  1.0000 0.1368835216
H   H143      1.0  0.85770  0.69440  0.36960  1.0000 0.1368835216
H   H144      1.0  0.14230  0.80560  0.86960  1.0000 0.1368835216
H   H145      1.0  0.58570  0.33270  0.22400  1.0000 0.1094727989
H   H146      1.0  0.41430  0.16730  0.72400  1.0000 0.1094727989
H   H147      1.0  0.08570  0.66730  0.27600  1.0000 0.1094727989
H   H148      1.0  0.91430  0.83270  0.77600  1.0000 0.1094727989
H   H149      1.0  0.52450  0.34410  0.27110  1.0000 0.1323931093
H   H150      1.0  0.47550  0.15590  0.77110  1.0000 0.1368835216
H   H151      1.0  0.02450  0.65590  0.22890  1.0000 0.1323931093
H   H152      1.0  0.97550  0.84410  0.72890  1.0000 0.1368835216
H   H153      1.0  0.54180  0.19150  0.22890  1.0000 0.1094727989
H   H154      1.0  0.45820  0.30850  0.72890  1.0000 0.1094727989
H   H155      1.0  0.04180  0.80850  0.27110  1.0000 0.1094727989
H   H156      1.0  0.95820  0.69150  0.77110  1.0000 0.1094727989
H   H157      1.0  0.48220  0.19870  0.27680  1.0000 0.1323931093
H   H158      1.0  0.51780  0.30130  0.77680  1.0000 0.1323931093
H   H159      1.0  0.98220  0.80130  0.22320  1.0000 0.1323931093
H   H160      1.0  0.01780  0.69870  0.72320  1.0000 0.1323931093
H   H161      1.0  0.42490  0.08020  0.36560  1.0000 0.1007592862
H   H162      1.0  0.57510  0.41980  0.86560  1.0000 0.1007592862
H   H163      1.0  0.92490  0.91980  0.13440  1.0000 0.1007592862
H   H164      1.0  0.07510  0.58020  0.63440  1.0000 0.1007592862
H   H165      1.0  0.45230  0.14980  0.33820  1.0000 0.1323931093
H   H166      1.0  0.54770  0.35020  0.83820  1.0000 0.1323931093
H   H167      1.0  0.95230  0.85020  0.16180  1.0000 0.1323931093
H   H168      1.0  0.04770  0.64980  0.66180  1.0000 0.1323931093
H   H169      1.0  0.34680  0.15670  0.43450  1.0000 0.1007592862
H   H170      1.0  0.65320  0.34330  0.93450  1.0000 0.1007592862
H   H171      1.0  0.84680  0.84330  0.06550  1.0000 0.1007592862
H   H172      1.0  0.15320  0.65670  0.56550  1.0000 0.1007592862
H   H173      1.0  0.37450  0.22900  0.40940  1.0000 0.1368835216
H   H174      1.0  0.62550  0.27100  0.90940  1.0000 0.1368835216
H   H175      1.0  0.87450  0.77100  0.09060  1.0000 0.1368835216
H   H176      1.0  0.12550  0.72900  0.59060  1.0000 0.1368835216
H   H177      1.0  0.37720  0.42340  0.42650  1.0000 0.1094727989
H   H178      1.0  0.62280  0.07660  0.92650  1.0000 0.1094727989
H   H179      1.0  0.87720  0.57660  0.07350  1.0000 0.1094727989
H   H180      1.0  0.12280  0.92340  0.57350  1.0000 0.1094727989
H   H181      1.0  0.40130  0.34770  0.40580  1.0000 0.1323931093
H   H182      1.0  0.59870  0.15230  0.90580  1.0000 0.1323931093
H   H183      1.0  0.90130  0.65230  0.09420  1.0000 0.1323931093
H   H184      1.0  0.09870  0.84770  0.59420  1.0000 0.1323931093
H   H185      1.0  0.41710  0.48650  0.35010  1.0000 0.1094727989
H   H186      1.0  0.58290  0.01350  0.85010  1.0000 0.1094727989
H   H187      1.0  0.91710  0.51350  0.14990  1.0000 0.1094727989
H   H188      1.0  0.08290  0.98650  0.64990  1.0000 0.1094727989
H   H189      1.0  0.44150  0.41180  0.32710  1.0000 0.1323931093
H   H190      1.0  0.55850  0.08820  0.82710  1.0000 0.1323931093
H   H191      1.0  0.94150  0.58820  0.17290  1.0000 0.1323931093
H   H192      1.0  0.05850  0.91180  0.67290  1.0000 0.1323931093
C   C1        1.0  0.94490  0.57150  0.89600  1.0000 0.0816749539
C   C2        1.0  0.05510  0.92850  0.39600  1.0000 0.0816749539
C   C3        1.0  0.44490  0.42850  0.60400  1.0000 0.0816749539
C   C4        1.0  0.55510  0.07150  0.10400  1.0000 0.0816749539
C   C5        1.0  0.85240  0.58950  0.90046  1.0000 -0.1145307099
C   C6        1.0  0.14760  0.91050  0.40046  1.0000 -0.1145307099
C   C7        1.0  0.35240  0.41050  0.59954  1.0000 -0.1145307099
C   C8        1.0  0.64760  0.08950  0.09954  1.0000 -0.1145307099
C   C9        1.0  0.96750  0.56130  0.94553  1.0000 0.0816749539
C   C10       1.0  0.03250  0.93870  0.44553  1.0000 0.0816749539
C   C11       1.0  0.46750  0.43870  0.55447  1.0000 0.0816749539
C   C12       1.0  0.53250  0.06130  0.05447  1.0000 0.0816749539
C   C13       1.0  0.87560  0.57860  0.95107  1.0000 -0.1283083798
C   C14       1.0  0.12440  0.92140  0.45107  1.0000 -0.1283083798
C   C15       1.0  0.37560  0.42140  0.54893  1.0000 -0.1283083798
C   C16       1.0  0.62440  0.07860  0.04893  1.0000 -0.1283083798
C   C17       1.0  0.81700  0.59289  0.92855  1.0000 0.0601575435
C   C18       1.0  0.18300  0.90711  0.42855  1.0000 0.0601575435
C   C19       1.0  0.31700  0.40711  0.57145  1.0000 0.0601575435
C   C20       1.0  0.68300  0.09289  0.07145  1.0000 0.0601575435
C   C21       1.0  0.71430  0.61008  0.93366  1.0000 0.3779503274
C   C22       1.0  0.28570  0.88992  0.43366  1.0000 0.3779503274
C   C23       1.0  0.21430  0.38992  0.56634  1.0000 0.3779503274
C   C24       1.0  0.78570  0.11008  0.06634  1.0000 0.3850896724
C   C25       1.0  0.51550  0.55321  0.03355  1.0000 0.0735872352
C   C26       1.0  0.48450  0.94679  0.53355  1.0000 0.0735872352
C   C27       1.0  0.01550  0.44679  0.46645  1.0000 0.0735872352
C   C28       1.0  0.98450  0.05321  0.96645  1.0000 0.0735872352
C   C29       1.0  0.56800  0.56762  0.00934  1.0000 -0.1408143982
C   C30       1.0  0.43200  0.93238  0.50934  1.0000 -0.1408143982
C   C31       1.0  0.06800  0.43238  0.49066  1.0000 -0.1408143982
C   C32       1.0  0.93200  0.06762  0.99066  1.0000 -0.1408143982
C   C33       1.0  0.37460  0.58520  0.01421  1.0000 0.0735872352
C   C34       1.0  0.62540  0.91480  0.51421  1.0000 0.0735872352
C   C35       1.0  0.87460  0.41480  0.48579  1.0000 0.0735872352
C   C36       1.0  0.12540  0.08520  0.98579  1.0000 0.0735872352
C   C37       1.0  0.42280  0.60010  0.98937  1.0000 -0.1491401464
C   C38       1.0  0.57720  0.89990  0.48937  1.0000 -0.1491401464
C   C39       1.0  0.92280  0.39990  0.51063  1.0000 -0.1491401464
C   C40       1.0  0.07720  0.10010  0.01063  1.0000 -0.1491401464
C   C41       1.0  0.52310  0.59229  0.98694  1.0000 0.0601575435
C   C42       1.0  0.47690  0.90771  0.48694  1.0000 0.0601575435
C   C43       1.0  0.02310  0.40771  0.51306  1.0000 0.0601575435
C   C44       1.0  0.97690  0.09229  0.01306  1.0000 0.0601575435
C   C45       1.0  0.57660  0.60857  0.96030  1.0000 0.3698587473
C   C46       1.0  0.42340  0.89143  0.46030  1.0000 0.3698587473
C   C47       1.0  0.07660  0.39143  0.53970  1.0000 0.3698587473
C   C48       1.0  0.92340  0.10857  0.03970  1.0000 0.3698587473
C   C49       1.0  0.37480  0.69011  0.86806  1.0000 0.089465965
C   C50       1.0  0.62520  0.80989  0.36806  1.0000 0.089465965
C   C51       1.0  0.87480  0.30989  0.63194  1.0000 0.089465965
C   C52       1.0  0.12520  0.19011  0.13194  1.0000 0.089465965
C   C53       1.0  0.42260  0.66785  0.89122  1.0000 -0.1283083798
C   C54       1.0  0.57740  0.83215  0.39122  1.0000 -0.1283083798
C   C55       1.0  0.92260  0.33215  0.60878  1.0000 -0.1283083798
C   C56       1.0  0.07740  0.16785  0.10878  1.0000 -0.1283083798
C   C57       1.0  0.51920  0.71500  0.84736  1.0000 0.089465965
C   C58       1.0  0.48080  0.78500  0.34736  1.0000 0.089465965
C   C59       1.0  0.01920  0.28500  0.65264  1.0000 0.089465965
C   C60       1.0  0.98080  0.21500  0.15264  1.0000 0.089465965
C   C61       1.0  0.57290  0.69317  0.86969  1.0000 -0.1283083798
C   C62       1.0  0.42710  0.80683  0.36969  1.0000 -0.1283083798
C   C63       1.0  0.07290  0.30683  0.63031  1.0000 -0.1283083798
C   C64       1.0  0.92710  0.19317  0.13031  1.0000 -0.1283083798
C   C65       1.0  0.52370  0.66948  0.89215  1.0000 0.0601575435
C   C66       1.0  0.47630  0.83052  0.39215  1.0000 0.0601575435
C   C67       1.0  0.02370  0.33052  0.60785  1.0000 0.0601575435
C   C68       1.0  0.97630  0.16948  0.10785  1.0000 0.0601575435
C   C69       1.0  0.57690  0.64498  0.91638  1.0000 0.3698587473
C   C70       1.0  0.42310  0.85502  0.41638  1.0000 0.3698587473
C   C71       1.0  0.07690  0.35502  0.58362  1.0000 0.3698587473
C   C72       1.0  0.92310  0.14498  0.08362  1.0000 0.3698587473
C   C73       1.0  0.43510  0.69467  0.76493  1.0000 0.0816749539
C   C74       1.0  0.56490  0.80533  0.26493  1.0000 0.0816749539
C   C75       1.0  0.93510  0.30533  0.73507  1.0000 0.0816749539
C   C76       1.0  0.06490  0.19467  0.23507  1.0000 0.0816749539
C   C77       1.0  0.47080  0.68756  0.73689  1.0000 -0.1602196446
C   C78       1.0  0.52920  0.81244  0.23689  1.0000 -0.1602196446
C   C79       1.0  0.97080  0.31244  0.76311  1.0000 -0.1602196446
C   C80       1.0  0.02920  0.18756  0.26311  1.0000 -0.1602196446
C   C81       1.0  0.46030  0.77741  0.76212  1.0000 0.1007592862
C   C82       1.0  0.53970  0.72259  0.26212  1.0000 0.1007592862
C   C83       1.0  0.96030  0.22259  0.73788  1.0000 0.1007592862
C   C84       1.0  0.03970  0.27741  0.23788  1.0000 0.1007592862
C   C85       1.0  0.49620  0.77348  0.73363  1.0000 -0.1491401464
C   C86       1.0  0.50380  0.72652  0.23363  1.0000 -0.1491401464
C   C87       1.0  0.99620  0.22652  0.76637  1.0000 -0.1491401464
C   C88       1.0  0.00380  0.27348  0.26637  1.0000 -0.1491401464
C   C89       1.0  0.49980  0.72760  0.72063  1.0000 0.0601575435
C   C90       1.0  0.50020  0.77240  0.22063  1.0000 0.0601575435
C   C91       1.0  0.99980  0.27240  0.77937  1.0000 0.0601575435
C   C92       1.0  0.00020  0.22760  0.27937  1.0000 0.0601575435
C   C93       1.0  0.53090  0.72248  0.68933  1.0000 0.3698587473
C   C94       1.0  0.46910  0.77752  0.18933  1.0000 0.3779503274
C   C95       1.0  0.03090  0.27752  0.81067  1.0000 0.3698587473
C   C96       1.0  0.96910  0.22248  0.31067  1.0000 0.3698587473
C   C97       1.0  0.58620  0.88912  0.62550  1.0000 0.1007592862
C   C98       1.0  0.41380  0.61088  0.12550  1.0000 0.1007592862
C   C99       1.0  0.08620  0.11088  0.87450  1.0000 0.1007592862
C   C100      1.0  0.91380  0.38912  0.37450  1.0000 0.1007592862
C   C101      1.0  0.56920  0.84783  0.64199  1.0000 -0.1602196446
C   C102      1.0  0.43080  0.65217  0.14199  1.0000 -0.1602196446
C   C103      1.0  0.06920  0.15217  0.85801  1.0000 -0.1602196446
C   C104      1.0  0.93080  0.34783  0.35801  1.0000 -0.1602196446
C   C105      1.0  0.63130  0.84441  0.58530  1.0000 0.0816749539
C   C106      1.0  0.36870  0.65559  0.08530  1.0000 0.0816749539
C   C107      1.0  0.13130  0.15559  0.91470  1.0000 0.0816749539
C   C108      1.0  0.86870  0.34441  0.41470  1.0000 0.0816749539
C   C109      1.0  0.61520  0.80116  0.60013  1.0000 -0.1602196446
C   C110      1.0  0.38480  0.69884  0.10013  1.0000 -0.1602196446
C   C111      1.0  0.11520  0.19884  0.89987  1.0000 -0.1602196446
C   C112      1.0  0.88480  0.30116  0.39987  1.0000 -0.1602196446
C   C113      1.0  0.58400  0.80290  0.62908  1.0000 0.054039587
C   C114      1.0  0.41600  0.69710  0.12908  1.0000 0.054039587
C   C115      1.0  0.08400  0.19710  0.87092  1.0000 0.0601575435
C   C116      1.0  0.91600  0.30290  0.37092  1.0000 0.054039587
C   C117      1.0  0.56770  0.75796  0.64616  1.0000 0.3698587473
C   C118      1.0  0.43230  0.74204  0.14616  1.0000 0.3779503274
C   C119      1.0  0.06770  0.24204  0.85384  1.0000 0.3698587473
C   C120      1.0  0.93230  0.25796  0.35384  1.0000 0.3698587473
C   C121      1.0  0.61020  0.57887  0.59403  1.0000 0.089465965
C   C122      1.0  0.38980  0.92113  0.09403  1.0000 0.089465965
C   C123      1.0  0.11020  0.42113  0.90597  1.0000 0.089465965
C   C124      1.0  0.88980  0.07887  0.40597  1.0000 0.089465965
C   C125      1.0  0.59600  0.62415  0.60627  1.0000 -0.1491401464
C   C126      1.0  0.40400  0.87585  0.10627  1.0000 -0.1491401464
C   C127      1.0  0.09600  0.37585  0.89373  1.0000 -0.1491401464
C   C128      1.0  0.90400  0.12415  0.39373  1.0000 -0.1491401464
C   C129      1.0  0.58710  0.54230  0.63846  1.0000 0.089465965
C   C130      1.0  0.41290  0.95770  0.13846  1.0000 0.089465965
C   C131      1.0  0.08710  0.45770  0.86154  1.0000 0.089465965
C   C132      1.0  0.91290  0.04230  0.36154  1.0000 0.089465965
C   C133      1.0  0.57220  0.58678  0.65241  1.0000 -0.1491401464
C   C134      1.0  0.42780  0.91322  0.15241  1.0000 -0.1491401464
C   C135      1.0  0.07220  0.41322  0.84759  1.0000 -0.1491401464
C   C136      1.0  0.92780  0.08678  0.34759  1.0000 -0.1491401464
C   C137      1.0  0.57780  0.62842  0.63596  1.0000 0.054039587
C   C138      1.0  0.42220  0.87158  0.13596  1.0000 0.054039587
C   C139      1.0  0.07780  0.37158  0.86404  1.0000 0.0601575435
C   C140      1.0  0.92220  0.12842  0.36404  1.0000 0.0601575435
C   C141      1.0  0.56420  0.67649  0.64985  1.0000 0.3779503274
C   C142      1.0  0.43580  0.82351  0.14985  1.0000 0.3779503274
C   C143      1.0  0.06420  0.32351  0.85015  1.0000 0.3779503274
C   C144      1.0  0.93580  0.17649  0.35015  1.0000 0.3779503274
C   C145      1.0  0.05510  0.42850  0.10400  1.0000 0.0816749539
C   C146      1.0  0.94490  0.07150  0.60400  1.0000 0.0816749539
C   C147      1.0  0.55510  0.57150  0.39600  1.0000 0.0816749539
C   C148      1.0  0.44490  0.92850  0.89600  1.0000 0.0816749539
C   C149      1.0  0.14760  0.41050  0.09954  1.0000 -0.1145307099
C   C150      1.0  0.85240  0.08950  0.59954  1.0000 -0.1145307099
C   C151      1.0  0.64760  0.58950  0.40046  1.0000 -0.1145307099
C   C152      1.0  0.35240  0.91050  0.90046  1.0000 -0.1154686369
C   C153      1.0  0.03250  0.43870  0.05447  1.0000 0.0816749539
C   C154      1.0  0.96750  0.06130  0.55447  1.0000 0.0816749539
C   C155      1.0  0.53250  0.56130  0.44553  1.0000 0.0816749539
C   C156      1.0  0.46750  0.93870  0.94553  1.0000 0.0816749539
C   C157      1.0  0.12440  0.42140  0.04893  1.0000 -0.1283083798
C   C158      1.0  0.87560  0.07860  0.54893  1.0000 -0.1283083798
C   C159      1.0  0.62440  0.57860  0.45107  1.0000 -0.1283083798
C   C160      1.0  0.37560  0.92140  0.95107  1.0000 -0.1283083798
C   C161      1.0  0.18300  0.40711  0.07145  1.0000 0.0601575435
C   C162      1.0  0.81700  0.09289  0.57145  1.0000 0.0601575435
C   C163      1.0  0.68300  0.59289  0.42855  1.0000 0.0601575435
C   C164      1.0  0.31700  0.90711  0.92855  1.0000 0.0601575435
C   C165      1.0  0.28570  0.38992  0.06634  1.0000 0.3779503274
C   C166      1.0  0.71430  0.11008  0.56634  1.0000 0.3779503274
C   C167      1.0  0.78570  0.61008  0.43366  1.0000 0.3779503274
C   C168      1.0  0.21430  0.88992  0.93366  1.0000 0.3779503274
C   C169      1.0  0.48450  0.44679  0.96645  1.0000 0.0735872352
C   C170      1.0  0.51550  0.05321  0.46645  1.0000 0.0735872352
C   C171      1.0  0.98450  0.55321  0.53355  1.0000 0.0735872352
C   C172      1.0  0.01550  0.94679  0.03355  1.0000 0.0735872352
C   C173      1.0  0.43200  0.43238  0.99066  1.0000 -0.1408143982
C   C174      1.0  0.56800  0.06762  0.49066  1.0000 -0.1408143982
C   C175      1.0  0.93200  0.56762  0.50934  1.0000 -0.1408143982
C   C176      1.0  0.06800  0.93238  0.00934  1.0000 -0.1408143982
C   C177      1.0  0.62540  0.41480  0.98579  1.0000 0.0735872352
C   C178      1.0  0.37460  0.08520  0.48579  1.0000 0.0735872352
C   C179      1.0  0.12540  0.58520  0.51421  1.0000 0.0735872352
C   C180      1.0  0.87460  0.91480  0.01421  1.0000 0.0735872352
C   C181      1.0  0.57720  0.39990  0.01063  1.0000 -0.1491401464
C   C182      1.0  0.42280  0.10010  0.51063  1.0000 -0.1491401464
C   C183      1.0  0.07720  0.60010  0.48937  1.0000 -0.1491401464
C   C184      1.0  0.92280  0.89990  0.98937  1.0000 -0.1491401464
C   C185      1.0  0.47690  0.40771  0.01306  1.0000 0.0601575435
C   C186      1.0  0.52310  0.09229  0.51306  1.0000 0.0601575435
C   C187      1.0  0.97690  0.59229  0.48694  1.0000 0.0601575435
C   C188      1.0  0.02310  0.90771  0.98694  1.0000 0.0601575435
C   C189      1.0  0.42340  0.39143  0.03970  1.0000 0.3698587473
C   C190      1.0  0.57660  0.10857  0.53970  1.0000 0.3698587473
C   C191      1.0  0.92340  0.60857  0.46030  1.0000 0.3698587473
C   C192      1.0  0.07660  0.89143  0.96030  1.0000 0.3698587473
C   C193      1.0  0.62520  0.30989  0.13194  1.0000 0.089465965
C   C194      1.0  0.37480  0.19011  0.63194  1.0000 0.089465965
C   C195      1.0  0.12520  0.69011  0.36806  1.0000 0.089465965
C   C196      1.0  0.87480  0.80989  0.86806  1.0000 0.089465965
C   C197      1.0  0.57740  0.33215  0.10878  1.0000 -0.1283083798
C   C198      1.0  0.42260  0.16785  0.60878  1.0000 -0.1283083798
C   C199      1.0  0.07740  0.66785  0.39122  1.0000 -0.1283083798
C   C200      1.0  0.92260  0.83215  0.89122  1.0000 -0.1283083798
C   C201      1.0  0.48080  0.28500  0.15264  1.0000 0.089465965
C   C202      1.0  0.51920  0.21500  0.65264  1.0000 0.089465965
C   C203      1.0  0.98080  0.71500  0.34736  1.0000 0.089465965
C   C204      1.0  0.01920  0.78500  0.84736  1.0000 0.089465965
C   C205      1.0  0.42710  0.30683  0.13031  1.0000 -0.1283083798
C   C206      1.0  0.57290  0.19317  0.63031  1.0000 -0.1283083798
C   C207      1.0  0.92710  0.69317  0.36969  1.0000 -0.1283083798
C   C208      1.0  0.07290  0.80683  0.86969  1.0000 -0.1283083798
C   C209      1.0  0.47630  0.33052  0.10785  1.0000 0.0601575435
C   C210      1.0  0.52370  0.16948  0.60785  1.0000 0.0601575435
C   C211      1.0  0.97630  0.66948  0.39215  1.0000 0.0601575435
C   C212      1.0  0.02370  0.83052  0.89215  1.0000 0.0601575435
C   C213      1.0  0.42310  0.35502  0.08362  1.0000 0.3698587473
C   C214      1.0  0.57690  0.14498  0.58362  1.0000 0.3698587473
C   C215      1.0  0.92310  0.64498  0.41638  1.0000 0.3698587473
C   C216      1.0  0.07690  0.85502  0.91638  1.0000 0.3698587473
C   C217      1.0  0.56490  0.30533  0.23507  1.0000 0.0816749539
C   C218      1.0  0.43510  0.19467  0.73507  1.0000 0.0816749539
C   C219      1.0  0.06490  0.69467  0.26493  1.0000 0.0816749539
C   C220      1.0  0.93510  0.80533  0.76493  1.0000 0.0816749539
C   C221      1.0  0.52920  0.31244  0.26311  1.0000 -0.1602196446
C   C222      1.0  0.47080  0.18756  0.76311  1.0000 -0.1602196446
C   C223      1.0  0.02920  0.68756  0.23689  1.0000 -0.1602196446
C   C224      1.0  0.97080  0.81244  0.73689  1.0000 -0.1602196446
C   C225      1.0  0.53970  0.22259  0.23788  1.0000 0.1007592862
C   C226      1.0  0.46030  0.27741  0.73788  1.0000 0.1007592862
C   C227      1.0  0.03970  0.77741  0.26212  1.0000 0.1007592862
C   C228      1.0  0.96030  0.72259  0.76212  1.0000 0.1007592862
C   C229      1.0  0.50380  0.22652  0.26637  1.0000 -0.1491401464
C   C230      1.0  0.49620  0.27348  0.76637  1.0000 -0.1491401464
C   C231      1.0  0.00380  0.77348  0.23363  1.0000 -0.1491401464
C   C232      1.0  0.99620  0.72652  0.73363  1.0000 -0.1491401464
C   C233      1.0  0.50020  0.27240  0.27937  1.0000 0.0601575435
C   C234      1.0  0.49980  0.22760  0.77937  1.0000 0.0601575435
C   C235      1.0  0.00020  0.72760  0.22063  1.0000 0.0601575435
C   C236      1.0  0.99980  0.77240  0.72063  1.0000 0.0601575435
C   C237      1.0  0.46910  0.27752  0.31067  1.0000 0.3779503274
C   C238      1.0  0.53090  0.22248  0.81067  1.0000 0.3698587473
C   C239      1.0  0.96910  0.72248  0.18933  1.0000 0.3698587473
C   C240      1.0  0.03090  0.77752  0.68933  1.0000 0.3779503274
C   C241      1.0  0.41380  0.11088  0.37450  1.0000 0.1007592862
C   C242      1.0  0.58620  0.38912  0.87450  1.0000 0.1007592862
C   C243      1.0  0.91380  0.88912  0.12550  1.0000 0.1007592862
C   C244      1.0  0.08620  0.61088  0.62550  1.0000 0.1007592862
C   C245      1.0  0.43080  0.15217  0.35801  1.0000 -0.1602196446
C   C246      1.0  0.56920  0.34783  0.85801  1.0000 -0.1602196446
C   C247      1.0  0.93080  0.84783  0.14199  1.0000 -0.1602196446
C   C248      1.0  0.06920  0.65217  0.64199  1.0000 -0.1602196446
C   C249      1.0  0.36870  0.15559  0.41470  1.0000 0.0816749539
C   C250      1.0  0.63130  0.34441  0.91470  1.0000 0.0816749539
C   C251      1.0  0.86870  0.84441  0.08530  1.0000 0.0816749539
C   C252      1.0  0.13130  0.65559  0.58530  1.0000 0.0816749539
C   C253      1.0  0.38480  0.19884  0.39987  1.0000 -0.1602196446
C   C254      1.0  0.61520  0.30116  0.89987  1.0000 -0.1602196446
C   C255      1.0  0.88480  0.80116  0.10013  1.0000 -0.1602196446
C   C256      1.0  0.11520  0.69884  0.60013  1.0000 -0.1602196446
C   C257      1.0  0.41600  0.19710  0.37092  1.0000 0.054039587
C   C258      1.0  0.58400  0.30290  0.87092  1.0000 0.054039587
C   C259      1.0  0.91600  0.80290  0.12908  1.0000 0.054039587
C   C260      1.0  0.08400  0.69710  0.62908  1.0000 0.054039587
C   C261      1.0  0.43230  0.24204  0.35384  1.0000 0.3698587473
C   C262      1.0  0.56770  0.25796  0.85384  1.0000 0.3698587473
C   C263      1.0  0.93230  0.75796  0.14616  1.0000 0.3779503274
C   C264      1.0  0.06770  0.74204  0.64616  1.0000 0.3779503274
C   C265      1.0  0.38980  0.42113  0.40597  1.0000 0.089465965
C   C266      1.0  0.61020  0.07887  0.90597  1.0000 0.089465965
C   C267      1.0  0.88980  0.57887  0.09403  1.0000 0.089465965
C   C268      1.0  0.11020  0.92113  0.59403  1.0000 0.089465965
C   C269      1.0  0.40400  0.37585  0.39373  1.0000 -0.1491401464
C   C270      1.0  0.59600  0.12415  0.89373  1.0000 -0.1491401464
C   C271      1.0  0.90400  0.62415  0.10627  1.0000 -0.1491401464
C   C272      1.0  0.09600  0.87585  0.60627  1.0000 -0.1491401464
C   C273      1.0  0.41290  0.45770  0.36154  1.0000 0.089465965
C   C274      1.0  0.58710  0.04230  0.86154  1.0000 0.089465965
C   C275      1.0  0.91290  0.54230  0.13846  1.0000 0.089465965
C   C276      1.0  0.08710  0.95770  0.63846  1.0000 0.089465965
C   C277      1.0  0.42780  0.41322  0.34759  1.0000 -0.1491401464
C   C278      1.0  0.57220  0.08678  0.84759  1.0000 -0.1491401464
C   C279      1.0  0.92780  0.58678  0.15241  1.0000 -0.1491401464
C   C280      1.0  0.07220  0.91322  0.65241  1.0000 -0.1491401464
C   C281      1.0  0.42220  0.37158  0.36404  1.0000 0.054039587
C   C282      1.0  0.57780  0.12842  0.86404  1.0000 0.0601575435
C   C283      1.0  0.92220  0.62842  0.13596  1.0000 0.0601575435
C   C284      1.0  0.07780  0.87158  0.63596  1.0000 0.054039587
C   C285      1.0  0.43580  0.32351  0.35015  1.0000 0.3779503274
C   C286      1.0  0.56420  0.17649  0.85015  1.0000 0.3779503274
C   C287      1.0  0.93580  0.67649  0.14985  1.0000 0.3779503274
C   C288      1.0  0.06420  0.82351  0.64985  1.0000 0.3779503274
I   I1        1.0  0.32721  0.83767  0.82553  1.0000 -0.4606004608
I   I2        1.0  0.67279  0.66233  0.32553  1.0000 -0.4606004608
I   I3        1.0  0.82721  0.16233  0.67447  1.0000 -0.4606004608
I   I4        1.0  0.17279  0.33767  0.17447  1.0000 -0.4606004608
I   I5        1.0  0.19124  0.69637  0.80445  1.0000 -0.4684991792
I   I6        1.0  0.80876  0.80363  0.30445  1.0000 -0.4684991792
I   I7        1.0  0.69124  0.30363  0.69555  1.0000 -0.4684991792
I   I8        1.0  0.30876  0.19637  0.19555  1.0000 -0.4606004608
I   I9        1.0  0.16356  0.55502  0.06741  1.0000 -0.4606004608
I   I10       1.0  0.83644  0.94498  0.56741  1.0000 -0.4492868093
I   I11       1.0  0.66356  0.44498  0.43259  1.0000 -0.4606004608
I   I12       1.0  0.33644  0.05502  0.93259  1.0000 -0.4492868093
I   I13       1.0  0.43159  0.48165  0.10356  1.0000 -0.4338429254
I   I14       1.0  0.56841  0.01835  0.60356  1.0000 -0.4360058538
I   I15       1.0  0.93159  0.51835  0.39644  1.0000 -0.4338429254
I   I16       1.0  0.06841  0.98165  0.89644  1.0000 -0.4338429254
I   I17       1.0  0.22009  0.51215  0.95899  1.0000 -0.4684991792
I   I18       1.0  0.77991  0.98785  0.45899  1.0000 -0.4684991792
I   I19       1.0  0.72009  0.48785  0.54101  1.0000 -0.4684991792
I   I20       1.0  0.27991  0.01215  0.04101  1.0000 -0.4684991792
I   I21       1.0  0.21608  0.57852  0.86924  1.0000 -0.4492868093
I   I22       1.0  0.78392  0.92148  0.36924  1.0000 -0.4492868093
I   I23       1.0  0.71608  0.42148  0.63076  1.0000 -0.4492868093
I   I24       1.0  0.28392  0.07852  0.13076  1.0000 -0.4492868093
I   I25       1.0  0.67279  0.16233  0.17447  1.0000 -0.4606004608
I   I26       1.0  0.32721  0.33767  0.67447  1.0000 -0.4606004608
I   I27       1.0  0.17279  0.83767  0.32553  1.0000 -0.4606004608
I   I28       1.0  0.82721  0.66233  0.82553  1.0000 -0.4606004608
I   I29       1.0  0.80876  0.30363  0.19555  1.0000 -0.4606004608
I   I30       1.0  0.19124  0.19637  0.69555  1.0000 -0.4684991792
I   I31       1.0  0.30876  0.69637  0.30445  1.0000 -0.4606004608
I   I32       1.0  0.69124  0.80363  0.80445  1.0000 -0.4684991792
I   I33       1.0  0.83644  0.44498  0.93259  1.0000 -0.4606004608
I   I34       1.0  0.16356  0.05502  0.43259  1.0000 -0.4606004608
I   I35       1.0  0.33644  0.55502  0.56741  1.0000 -0.4492868093
I   I36       1.0  0.66356  0.94498  0.06741  1.0000 -0.4492868093
I   I37       1.0  0.56841  0.51835  0.89644  1.0000 -0.4338429254
I   I38       1.0  0.43159  0.98165  0.39644  1.0000 -0.4338429254
I   I39       1.0  0.06841  0.48165  0.60356  1.0000 -0.4338429254
I   I40       1.0  0.93159  0.01835  0.10356  1.0000 -0.4360058538
I   I41       1.0  0.77991  0.48785  0.04101  1.0000 -0.4684991792
I   I42       1.0  0.22009  0.01215  0.54101  1.0000 -0.4684991792
I   I43       1.0  0.27991  0.51215  0.45899  1.0000 -0.4684991792
I   I44       1.0  0.72009  0.98785  0.95899  1.0000 -0.4684991792
I   I45       1.0  0.78392  0.42148  0.13076  1.0000 -0.4492868093
I   I46       1.0  0.21608  0.07852  0.63076  1.0000 -0.4492868093
I   I47       1.0  0.28392  0.57852  0.36924  1.0000 -0.4492868093
I   I48       1.0  0.71608  0.92148  0.86924  1.0000 -0.4492868093
N   N1        1.0  0.00210  0.55745  0.91825  1.0000 -0.1716619756
N   N2        1.0  0.99790  0.94255  0.41825  1.0000 -0.1716619756
N   N3        1.0  0.50210  0.44255  0.58175  1.0000 -0.1716619756
N   N4        1.0  0.49790  0.05745  0.08175  1.0000 -0.1716619756
N   N5        1.0  0.41880  0.56202  0.03662  1.0000 -0.1874205198
N   N6        1.0  0.58120  0.93798  0.53662  1.0000 -0.1874205198
N   N7        1.0  0.91880  0.43798  0.46338  1.0000 -0.1874205198
N   N8        1.0  0.08120  0.06202  0.96338  1.0000 -0.1874205198
N   N9        1.0  0.42120  0.71314  0.84679  1.0000 -0.1787105517
N   N10       1.0  0.57880  0.78686  0.34679  1.0000 -0.1787105517
N   N11       1.0  0.92120  0.28686  0.65321  1.0000 -0.1787105517
N   N12       1.0  0.07880  0.21314  0.15321  1.0000 -0.1787105517
N   N13       1.0  0.67130  0.59673  0.95880  1.0000 -0.3816115222
N   N14       1.0  0.32870  0.90327  0.45880  1.0000 -0.3816115222
N   N15       1.0  0.17130  0.40327  0.54120  1.0000 -0.3816115222
N   N16       1.0  0.82870  0.09673  0.04120  1.0000 -0.3816115222
N   N17       1.0  0.52600  0.63221  0.94018  1.0000 -0.3856668505
N   N18       1.0  0.47400  0.86779  0.44018  1.0000 -0.3856668505
N   N19       1.0  0.02600  0.36779  0.55982  1.0000 -0.3816115222
N   N20       1.0  0.97400  0.13221  0.05982  1.0000 -0.3856668505
N   N21       1.0  0.67250  0.63490  0.91184  1.0000 -0.3735461764
N   N22       1.0  0.32750  0.86510  0.41184  1.0000 -0.3735461764
N   N23       1.0  0.17250  0.36510  0.58816  1.0000 -0.3735461764
N   N24       1.0  0.82750  0.13490  0.08816  1.0000 -0.3735461764
N   N25       1.0  0.42870  0.73916  0.77735  1.0000 -0.1874205198
N   N26       1.0  0.57130  0.76084  0.27735  1.0000 -0.1874205198
N   N27       1.0  0.92870  0.26084  0.72265  1.0000 -0.1874205198
N   N28       1.0  0.07130  0.23916  0.22265  1.0000 -0.1874205198
N   N29       1.0  0.61710  0.88788  0.59799  1.0000 -0.1874205198
N   N30       1.0  0.38290  0.61212  0.09799  1.0000 -0.1874205198
N   N31       1.0  0.11710  0.11212  0.90201  1.0000 -0.1874205198
N   N32       1.0  0.88290  0.38788  0.40201  1.0000 -0.1874205198
N   N33       1.0  0.60700  0.53851  0.60972  1.0000 -0.1787105517
N   N34       1.0  0.39300  0.96149  0.10972  1.0000 -0.1787105517
N   N35       1.0  0.10700  0.46149  0.89028  1.0000 -0.1787105517
N   N36       1.0  0.89300  0.03851  0.39028  1.0000 -0.1787105517
N   N37       1.0  0.54390  0.76358  0.67435  1.0000 -0.4132200233
N   N38       1.0  0.45610  0.73642  0.17435  1.0000 -0.4132200233
N   N39       1.0  0.04390  0.23642  0.82565  1.0000 -0.4132200233
N   N40       1.0  0.95610  0.26358  0.32565  1.0000 -0.4132200233
N   N41       1.0  0.57870  0.71524  0.63265  1.0000 -0.4192028508
N   N42       1.0  0.42130  0.78476  0.13265  1.0000 -0.4192028508
N   N43       1.0  0.07870  0.28476  0.86735  1.0000 -0.4192028508
N   N44       1.0  0.92130  0.21524  0.36735  1.0000 -0.4192028508
N   N45       1.0  0.54080  0.67799  0.67842  1.0000 -0.4132200233
N   N46       1.0  0.45920  0.82201  0.17842  1.0000 -0.4132200233
N   N47       1.0  0.04080  0.32201  0.82158  1.0000 -0.4192028508
N   N48       1.0  0.95920  0.17799  0.32158  1.0000 -0.4132200233
N   N49       1.0  0.99790  0.44255  0.08175  1.0000 -0.1716619756
N   N50       1.0  0.00210  0.05745  0.58175  1.0000 -0.1716619756
N   N51       1.0  0.49790  0.55745  0.41825  1.0000 -0.1716619756
N   N52       1.0  0.50210  0.94255  0.91825  1.0000 -0.1716619756
N   N53       1.0  0.58120  0.43798  0.96338  1.0000 -0.1874205198
N   N54       1.0  0.41880  0.06202  0.46338  1.0000 -0.1874205198
N   N55       1.0  0.08120  0.56202  0.53662  1.0000 -0.1874205198
N   N56       1.0  0.91880  0.93798  0.03662  1.0000 -0.1874205198
N   N57       1.0  0.57880  0.28686  0.15321  1.0000 -0.1787105517
N   N58       1.0  0.42120  0.21314  0.65321  1.0000 -0.1787105517
N   N59       1.0  0.07880  0.71314  0.34679  1.0000 -0.1787105517
N   N60       1.0  0.92120  0.78686  0.84679  1.0000 -0.1787105517
N   N61       1.0  0.32870  0.40327  0.04120  1.0000 -0.3816115222
N   N62       1.0  0.67130  0.09673  0.54120  1.0000 -0.3816115222
N   N63       1.0  0.82870  0.59673  0.45880  1.0000 -0.3816115222
N   N64       1.0  0.17130  0.90327  0.95880  1.0000 -0.3816115222
N   N65       1.0  0.47400  0.36779  0.05982  1.0000 -0.3856668505
N   N66       1.0  0.52600  0.13221  0.55982  1.0000 -0.3856668505
N   N67       1.0  0.97400  0.63221  0.44018  1.0000 -0.3856668505
N   N68       1.0  0.02600  0.86779  0.94018  1.0000 -0.3816115222
N   N69       1.0  0.32750  0.36510  0.08816  1.0000 -0.3735461764
N   N70       1.0  0.67250  0.13490  0.58816  1.0000 -0.3735461764
N   N71       1.0  0.82750  0.63490  0.41184  1.0000 -0.3735461764
N   N72       1.0  0.17250  0.86510  0.91184  1.0000 -0.3735461764
N   N73       1.0  0.57130  0.26084  0.22265  1.0000 -0.1874205198
N   N74       1.0  0.42870  0.23916  0.72265  1.0000 -0.1874205198
N   N75       1.0  0.07130  0.73916  0.27735  1.0000 -0.1874205198
N   N76       1.0  0.92870  0.76084  0.77735  1.0000 -0.1874205198
N   N77       1.0  0.38290  0.11212  0.40201  1.0000 -0.1874205198
N   N78       1.0  0.61710  0.38788  0.90201  1.0000 -0.1874205198
N   N79       1.0  0.88290  0.88788  0.09799  1.0000 -0.1874205198
N   N80       1.0  0.11710  0.61212  0.59799  1.0000 -0.1874205198
N   N81       1.0  0.39300  0.46149  0.39028  1.0000 -0.1787105517
N   N82       1.0  0.60700  0.03851  0.89028  1.0000 -0.1787105517
N   N83       1.0  0.89300  0.53851  0.10972  1.0000 -0.1787105517
N   N84       1.0  0.10700  0.96149  0.60972  1.0000 -0.1787105517
N   N85       1.0  0.45610  0.23642  0.32565  1.0000 -0.4132200233
N   N86       1.0  0.54390  0.26358  0.82565  1.0000 -0.4132200233
N   N87       1.0  0.95610  0.76358  0.17435  1.0000 -0.4132200233
N   N88       1.0  0.04390  0.73642  0.67435  1.0000 -0.4132200233
N   N89       1.0  0.42130  0.28476  0.36735  1.0000 -0.4192028508
N   N90       1.0  0.57870  0.21524  0.86735  1.0000 -0.4192028508
N   N91       1.0  0.92130  0.71524  0.13265  1.0000 -0.4192028508
N   N92       1.0  0.07870  0.78476  0.63265  1.0000 -0.4192028508
N   N93       1.0  0.45920  0.32201  0.32158  1.0000 -0.4132200233
N   N94       1.0  0.54080  0.17799  0.82158  1.0000 -0.4132200233
N   N95       1.0  0.95920  0.67799  0.17842  1.0000 -0.4132200233
N   N96       1.0  0.04080  0.82201  0.67842  1.0000 -0.4132200233
