# DDEC6 charges by PACMAN v1.1 (https://github.com/mtap-research/PACMAN-charge/)
data_2007[Zn][nan]3[ASR]7
_chemical_formula_sum              "Zn16 H36 C108 O76"
_cell_length_a       11.3684
_cell_length_b       17.0175
_cell_length_c       24.5043
_cell_angle_alpha    90
_cell_angle_beta     91.237
_cell_angle_gamma    90

_symmetry_space_group_name_H-M    "P 1"
_symmetry_Int_Tables_number       1

loop_
  _symmetry_equiv_pos_as_xyz
  'x, y, z'

loop_
  _atom_site_type_symbol
  _atom_site_label
  _atom_site_symmetry_multiplicity
  _atom_site_fract_x
  _atom_site_fract_y
  _atom_site_fract_z
  _atom_site_occupancy
  _atom_site_charge
Zn  Zn1       1.0  0.15975  0.96021  0.65766  1.0000 1.0000538893
Zn  Zn2       1.0  0.84025  0.46021  0.84234  1.0000 1.0000538893
Zn  Zn3       1.0  0.84025  0.03979  0.34234  1.0000 1.0000538893
Zn  Zn4       1.0  0.15975  0.53979  0.15766  1.0000 1.0000538893
Zn  Zn5       1.0  0.13810  0.45316  0.83139  1.0000 0.9927980668
Zn  Zn6       1.0  0.86190  0.95316  0.66861  1.0000 0.9927980668
Zn  Zn7       1.0  0.86190  0.54684  0.16861  1.0000 0.9927980668
Zn  Zn8       1.0  0.13810  0.04684  0.33139  1.0000 0.9927980668
Zn  Zn9       1.0  0.00374  0.83480  0.57228  1.0000 1.043946392
Zn  Zn10      1.0  0.99626  0.33480  0.92772  1.0000 1.043946392
Zn  Zn11      1.0  0.99626  0.16520  0.42772  1.0000 1.043946392
Zn  Zn12      1.0  0.00374  0.66520  0.07228  1.0000 1.043946392
Zn  Zn13      1.0  0.31876  0.99727  0.99128  1.0000 0.9744487471
Zn  Zn14      1.0  0.68124  0.49727  0.50872  1.0000 0.9744487471
Zn  Zn15      1.0  0.68124  0.00273  0.00872  1.0000 0.9744487471
Zn  Zn16      1.0  0.31876  0.50273  0.49128  1.0000 0.9744487471
H   H1        1.0  0.15080  0.72780  0.93510  1.0000 0.1227246962
H   H2        1.0  0.84920  0.22780  0.56490  1.0000 0.1227246962
H   H3        1.0  0.84920  0.27220  0.06490  1.0000 0.1227246962
H   H4        1.0  0.15080  0.77220  0.43510  1.0000 0.1227246962
H   H5        1.0  0.15760  0.69580  0.77300  1.0000 0.1301815651
H   H6        1.0  0.84240  0.19580  0.72700  1.0000 0.1301815651
H   H7        1.0  0.84240  0.30420  0.22700  1.0000 0.1301815651
H   H8        1.0  0.15760  0.80420  0.27300  1.0000 0.1301815651
H   H9        1.0  0.17990  0.91360  0.83500  1.0000 0.1301815651
H   H10       1.0  0.82010  0.41360  0.66500  1.0000 0.1301815651
H   H11       1.0  0.82010  0.08640  0.16500  1.0000 0.1301815651
H   H12       1.0  0.17990  0.58640  0.33500  1.0000 0.1301815651
H   H13       1.0  0.17880  0.42010  0.65170  1.0000 0.1369141357
H   H14       1.0  0.82120  0.92010  0.84830  1.0000 0.1369141357
H   H15       1.0  0.82120  0.57990  0.34830  1.0000 0.1369141357
H   H16       1.0  0.17880  0.07990  0.15170  1.0000 0.1369141357
H   H17       1.0  0.19300  0.23220  0.55250  1.0000 0.1227246962
H   H18       1.0  0.80700  0.73220  0.94750  1.0000 0.1227246962
H   H19       1.0  0.80700  0.76780  0.44750  1.0000 0.1227246962
H   H20       1.0  0.19300  0.26780  0.05250  1.0000 0.1227246962
H   H21       1.0  0.14300  0.20280  0.71250  1.0000 0.1301815651
H   H22       1.0  0.85700  0.70280  0.78750  1.0000 0.1301815651
H   H23       1.0  0.85700  0.79720  0.28750  1.0000 0.1301815651
H   H24       1.0  0.14300  0.29720  0.21250  1.0000 0.1301815651
H   H25       1.0  0.50570  0.90520  0.60670  1.0000 0.1301815651
H   H26       1.0  0.49430  0.40520  0.89330  1.0000 0.1301815651
H   H27       1.0  0.49430  0.09480  0.39330  1.0000 0.1301815651
H   H28       1.0  0.50570  0.59480  0.10670  1.0000 0.1301815651
H   H29       1.0  0.68030  0.71480  0.55620  1.0000 0.1369141357
H   H30       1.0  0.31970  0.21480  0.94380  1.0000 0.1369141357
H   H31       1.0  0.31970  0.28520  0.44380  1.0000 0.1369141357
H   H32       1.0  0.68030  0.78520  0.05620  1.0000 0.1369141357
H   H33       1.0  0.32770  0.71800  0.54780  1.0000 0.1369141357
H   H34       1.0  0.67230  0.21800  0.95220  1.0000 0.1369141357
H   H35       1.0  0.67230  0.28200  0.45220  1.0000 0.1369141357
H   H36       1.0  0.32770  0.78200  0.04780  1.0000 0.1369141357
C   C1        1.0  0.16838  0.82912  0.89288  1.0000 -0.0021866719
C   C2        1.0  0.83162  0.32912  0.60712  1.0000 -0.0021866719
C   C3        1.0  0.83162  0.17088  0.10712  1.0000 -0.0021866719
C   C4        1.0  0.16838  0.67088  0.39288  1.0000 -0.0021866719
C   C5        1.0  0.15556  0.74849  0.90009  1.0000 -0.0874411695
C   C6        1.0  0.84444  0.24849  0.59991  1.0000 -0.0874411695
C   C7        1.0  0.84444  0.25151  0.09991  1.0000 -0.0874411695
C   C8        1.0  0.15556  0.75151  0.40009  1.0000 -0.0874411695
C   C9        1.0  0.14992  0.69875  0.85517  1.0000 -0.0093298138
C   C10       1.0  0.85008  0.19875  0.64483  1.0000 -0.0093298138
C   C11       1.0  0.85008  0.30125  0.14483  1.0000 -0.0093298138
C   C12       1.0  0.14992  0.80125  0.35517  1.0000 -0.0093298138
C   C13       1.0  0.15856  0.72942  0.80290  1.0000 -0.0874411695
C   C14       1.0  0.84144  0.22942  0.69710  1.0000 -0.0874411695
C   C15       1.0  0.84144  0.27058  0.19710  1.0000 -0.0874411695
C   C16       1.0  0.15856  0.77058  0.30290  1.0000 -0.0874411695
C   C17       1.0  0.16870  0.81039  0.79497  1.0000 -0.0093298138
C   C18       1.0  0.83130  0.31039  0.70503  1.0000 -0.0093298138
C   C19       1.0  0.83130  0.18961  0.20503  1.0000 -0.0093298138
C   C20       1.0  0.16870  0.68961  0.29497  1.0000 -0.0093298138
C   C21       1.0  0.17339  0.85966  0.84004  1.0000 -0.1006261863
C   C22       1.0  0.82661  0.35966  0.65996  1.0000 -0.1006261863
C   C23       1.0  0.82661  0.14034  0.15996  1.0000 -0.1006261863
C   C24       1.0  0.17339  0.64034  0.34004  1.0000 -0.1006261863
C   C25       1.0  0.18739  0.88234  0.94145  1.0000 0.5503719128
C   C26       1.0  0.81261  0.38234  0.55855  1.0000 0.5503719128
C   C27       1.0  0.81261  0.11766  0.05855  1.0000 0.5503719128
C   C28       1.0  0.18739  0.61766  0.44145  1.0000 0.5503719128
C   C29       1.0  0.13961  0.61076  0.86353  1.0000 0.5503719128
C   C30       1.0  0.86039  0.11076  0.63647  1.0000 0.5503719128
C   C31       1.0  0.86039  0.38924  0.13647  1.0000 0.5503719128
C   C32       1.0  0.13961  0.88924  0.36353  1.0000 0.5503719128
C   C33       1.0  0.17800  0.84236  0.73802  1.0000 0.5503719128
C   C34       1.0  0.82200  0.34236  0.76198  1.0000 0.5503719128
C   C35       1.0  0.82200  0.15764  0.26198  1.0000 0.5503719128
C   C36       1.0  0.17800  0.65764  0.23802  1.0000 0.5503719128
C   C37       1.0  0.15551  0.31682  0.69062  1.0000 -0.0093298138
C   C38       1.0  0.84449  0.81682  0.80938  1.0000 -0.0021866719
C   C39       1.0  0.84449  0.68318  0.30938  1.0000 -0.0021866719
C   C40       1.0  0.15551  0.18318  0.19062  1.0000 -0.0021866719
C   C41       1.0  0.17452  0.36607  0.64653  1.0000 -0.1006261863
C   C42       1.0  0.82548  0.86607  0.85347  1.0000 -0.1006261863
C   C43       1.0  0.82548  0.63393  0.35347  1.0000 -0.1006261863
C   C44       1.0  0.17452  0.13393  0.14653  1.0000 -0.1006261863
C   C45       1.0  0.18714  0.33473  0.59452  1.0000 -0.0093298138
C   C46       1.0  0.81286  0.83473  0.90548  1.0000 -0.0093298138
C   C47       1.0  0.81286  0.66527  0.40548  1.0000 -0.0093298138
C   C48       1.0  0.18714  0.16527  0.09452  1.0000 -0.0093298138
C   C49       1.0  0.18453  0.25321  0.58725  1.0000 -0.0833840006
C   C50       1.0  0.81547  0.75321  0.91275  1.0000 -0.0833840006
C   C51       1.0  0.81547  0.74679  0.41275  1.0000 -0.0833840006
C   C52       1.0  0.18453  0.24679  0.08725  1.0000 -0.0833840006
C   C53       1.0  0.16936  0.20331  0.63163  1.0000 -0.0160780622
C   C54       1.0  0.83064  0.70331  0.86837  1.0000 -0.0160780622
C   C55       1.0  0.83064  0.79669  0.36837  1.0000 -0.0160780622
C   C56       1.0  0.16936  0.29669  0.13163  1.0000 -0.0160780622
C   C57       1.0  0.15426  0.23580  0.68274  1.0000 -0.0874411695
C   C58       1.0  0.84574  0.73580  0.81726  1.0000 -0.0874411695
C   C59       1.0  0.84574  0.76420  0.31726  1.0000 -0.0874411695
C   C60       1.0  0.15426  0.26420  0.18274  1.0000 -0.0874411695
C   C61       1.0  0.14271  0.34974  0.74820  1.0000 0.5396815903
C   C62       1.0  0.85729  0.84974  0.75180  1.0000 0.5396815903
C   C63       1.0  0.85729  0.65026  0.25180  1.0000 0.5396815903
C   C64       1.0  0.14271  0.15026  0.24820  1.0000 0.5396815903
C   C65       1.0  0.20830  0.38696  0.54655  1.0000 0.5503719128
C   C66       1.0  0.79170  0.88696  0.95345  1.0000 0.5503719128
C   C67       1.0  0.79170  0.61304  0.45345  1.0000 0.5503719128
C   C68       1.0  0.20830  0.11304  0.04655  1.0000 0.5503719128
C   C69       1.0  0.17286  0.11593  0.62383  1.0000 0.5503719128
C   C70       1.0  0.82714  0.61593  0.87617  1.0000 0.5503719128
C   C71       1.0  0.82714  0.88407  0.37617  1.0000 0.5503719128
C   C72       1.0  0.17286  0.38407  0.12383  1.0000 0.5503719128
C   C73       1.0  0.39840  0.81913  0.57796  1.0000 -0.0093298138
C   C74       1.0  0.60160  0.31913  0.92204  1.0000 -0.0093298138
C   C75       1.0  0.60160  0.18087  0.42204  1.0000 -0.0093298138
C   C76       1.0  0.39840  0.68087  0.07796  1.0000 -0.0093298138
C   C77       1.0  0.50523  0.85526  0.59137  1.0000 -0.0874411695
C   C78       1.0  0.49477  0.35526  0.90863  1.0000 -0.0874411695
C   C79       1.0  0.49477  0.14474  0.40863  1.0000 -0.0874411695
C   C80       1.0  0.50523  0.64474  0.09137  1.0000 -0.0874411695
C   C81       1.0  0.61084  0.81736  0.58202  1.0000 -0.0093298138
C   C82       1.0  0.38916  0.31736  0.91798  1.0000 -0.0093298138
C   C83       1.0  0.38916  0.18264  0.41798  1.0000 -0.0093298138
C   C84       1.0  0.61084  0.68264  0.08202  1.0000 -0.0093298138
C   C85       1.0  0.60976  0.74056  0.56246  1.0000 -0.0874411695
C   C86       1.0  0.39024  0.24056  0.93754  1.0000 -0.0874411695
C   C87       1.0  0.39024  0.25944  0.43754  1.0000 -0.0874411695
C   C88       1.0  0.60976  0.75944  0.06246  1.0000 -0.0874411695
C   C89       1.0  0.50375  0.70232  0.55225  1.0000 -0.0330402803
C   C90       1.0  0.49625  0.20232  0.94775  1.0000 -0.0330402803
C   C91       1.0  0.49625  0.29768  0.44775  1.0000 -0.0330402803
C   C92       1.0  0.50375  0.79768  0.05225  1.0000 -0.0330402803
C   C93       1.0  0.39836  0.74223  0.55764  1.0000 -0.0874411695
C   C94       1.0  0.60164  0.24223  0.94236  1.0000 -0.0874411695
C   C95       1.0  0.60164  0.25777  0.44236  1.0000 -0.0874411695
C   C96       1.0  0.39836  0.75777  0.05764  1.0000 -0.0874411695
C   C97       1.0  0.28340  0.85985  0.58750  1.0000 0.594026155
C   C98       1.0  0.71660  0.35985  0.91250  1.0000 0.594026155
C   C99       1.0  0.71660  0.14015  0.41250  1.0000 0.594026155
C   C100      1.0  0.28340  0.64015  0.08750  1.0000 0.594026155
C   C101      1.0  0.72771  0.85583  0.59574  1.0000 0.598751194
C   C102      1.0  0.27229  0.35583  0.90426  1.0000 0.598751194
C   C103      1.0  0.27229  0.14417  0.40426  1.0000 0.598751194
C   C104      1.0  0.72771  0.64417  0.09574  1.0000 0.598751194
C   C105      1.0  0.50208  0.61734  0.53674  1.0000 0.607580728
C   C106      1.0  0.49792  0.11734  0.96326  1.0000 0.607580728
C   C107      1.0  0.49792  0.38266  0.46326  1.0000 0.607580728
C   C108      1.0  0.50208  0.88266  0.03674  1.0000 0.607580728
O   O1        1.0  0.23529  0.94861  0.93080  1.0000 -0.4910084874
O   O2        1.0  0.76471  0.44861  0.56920  1.0000 -0.4910084874
O   O3        1.0  0.76471  0.05139  0.06920  1.0000 -0.4910084874
O   O4        1.0  0.23529  0.55139  0.43080  1.0000 -0.4910084874
O   O5        1.0  0.16347  0.86102  0.98767  1.0000 -0.4482062861
O   O6        1.0  0.83653  0.36102  0.51233  1.0000 -0.4482062861
O   O7        1.0  0.83653  0.13898  0.01233  1.0000 -0.4482062861
O   O8        1.0  0.16347  0.63898  0.48767  1.0000 -0.4407890439
O   O9        1.0  0.12130  0.58404  0.90957  1.0000 -0.4295521163
O   O10       1.0  0.87870  0.08404  0.59043  1.0000 -0.4295521163
O   O11       1.0  0.87870  0.41596  0.09043  1.0000 -0.4295521163
O   O12       1.0  0.12130  0.91596  0.40957  1.0000 -0.4295521163
O   O13       1.0  0.15022  0.56833  0.82097  1.0000 -0.4732003344
O   O14       1.0  0.84978  0.06833  0.67903  1.0000 -0.4732003344
O   O15       1.0  0.84978  0.43167  0.17903  1.0000 -0.4732003344
O   O16       1.0  0.15022  0.93167  0.32097  1.0000 -0.4732003344
O   O17       1.0  0.20219  0.79576  0.70046  1.0000 -0.4407890439
O   O18       1.0  0.79781  0.29576  0.79954  1.0000 -0.4407890439
O   O19       1.0  0.79781  0.20424  0.29954  1.0000 -0.4407890439
O   O20       1.0  0.20219  0.70424  0.20046  1.0000 -0.4407890439
O   O21       1.0  0.16194  0.91549  0.73173  1.0000 -0.4910084874
O   O22       1.0  0.83806  0.41549  0.76827  1.0000 -0.4910084874
O   O23       1.0  0.83806  0.08451  0.26827  1.0000 -0.4910084874
O   O24       1.0  0.16194  0.58451  0.23173  1.0000 -0.4910084874
O   O25       1.0  0.13319  0.30284  0.78572  1.0000 -0.4407890439
O   O26       1.0  0.86681  0.80284  0.71428  1.0000 -0.4407890439
O   O27       1.0  0.86681  0.69716  0.21428  1.0000 -0.4407890439
O   O28       1.0  0.13319  0.19716  0.28572  1.0000 -0.4407890439
O   O29       1.0  0.14264  0.42255  0.75410  1.0000 -0.4594261729
O   O30       1.0  0.85736  0.92255  0.74590  1.0000 -0.4594261729
O   O31       1.0  0.85736  0.57745  0.24590  1.0000 -0.4594261729
O   O32       1.0  0.14264  0.07745  0.25410  1.0000 -0.4594261729
O   O33       1.0  0.17847  0.36588  0.49995  1.0000 -0.4482062861
O   O34       1.0  0.82153  0.86588  0.00005  1.0000 -0.4482062861
O   O35       1.0  0.82153  0.63412  0.50005  1.0000 -0.4482062861
O   O36       1.0  0.17847  0.13412  0.99995  1.0000 -0.4482062861
O   O37       1.0  0.26244  0.45235  0.55674  1.0000 -0.5213173562
O   O38       1.0  0.73756  0.95235  0.94326  1.0000 -0.5213173562
O   O39       1.0  0.73756  0.54765  0.44326  1.0000 -0.5213173562
O   O40       1.0  0.26244  0.04765  0.05674  1.0000 -0.5213173562
O   O41       1.0  0.16814  0.07576  0.66749  1.0000 -0.4732003344
O   O42       1.0  0.83186  0.57576  0.83251  1.0000 -0.4732003344
O   O43       1.0  0.83186  0.92424  0.33251  1.0000 -0.4732003344
O   O44       1.0  0.16814  0.42424  0.16749  1.0000 -0.4732003344
O   O45       1.0  0.18037  0.08774  0.57759  1.0000 -0.4295521163
O   O46       1.0  0.81963  0.58774  0.92241  1.0000 -0.4295521163
O   O47       1.0  0.81963  0.91226  0.42241  1.0000 -0.4295521163
O   O48       1.0  0.18037  0.41226  0.07759  1.0000 -0.4295521163
O   O49       1.0  0.29150  0.92180  0.61631  1.0000 -0.4910084874
O   O50       1.0  0.70850  0.42180  0.88369  1.0000 -0.4910084874
O   O51       1.0  0.70850  0.07820  0.38369  1.0000 -0.4910084874
O   O52       1.0  0.29150  0.57820  0.11631  1.0000 -0.4910084874
O   O53       1.0  0.19112  0.83057  0.56802  1.0000 -0.5073988818
O   O54       1.0  0.80888  0.33057  0.93198  1.0000 -0.5073988818
O   O55       1.0  0.80888  0.16943  0.43198  1.0000 -0.5073988818
O   O56       1.0  0.19112  0.66943  0.06802  1.0000 -0.5073988818
O   O57       1.0  0.81735  0.82663  0.57582  1.0000 -0.4979274952
O   O58       1.0  0.18265  0.32663  0.92418  1.0000 -0.4979274952
O   O59       1.0  0.18265  0.17337  0.42418  1.0000 -0.4979274952
O   O60       1.0  0.81735  0.67337  0.07582  1.0000 -0.4979274952
O   O61       1.0  0.72390  0.91415  0.62825  1.0000 -0.4910084874
O   O62       1.0  0.27610  0.41415  0.87175  1.0000 -0.4910084874
O   O63       1.0  0.27610  0.08585  0.37175  1.0000 -0.4910084874
O   O64       1.0  0.72390  0.58585  0.12825  1.0000 -0.4910084874
O   O65       1.0  0.41205  0.59140  0.51656  1.0000 -0.4732003344
O   O66       1.0  0.58795  0.09140  0.98344  1.0000 -0.4732003344
O   O67       1.0  0.58795  0.40860  0.48344  1.0000 -0.4732003344
O   O68       1.0  0.41205  0.90860  0.01656  1.0000 -0.4732003344
O   O69       1.0  0.59248  0.57852  0.54735  1.0000 -0.4819937506
O   O70       1.0  0.40752  0.07852  0.95265  1.0000 -0.4819937506
O   O71       1.0  0.40752  0.42148  0.45265  1.0000 -0.4819937506
O   O72       1.0  0.59248  0.92148  0.04735  1.0000 -0.4819937506
O   O73       1.0  0.00363  0.93739  0.62332  1.0000 -0.8819152646
O   O74       1.0  0.99637  0.43739  0.87668  1.0000 -0.8819152646
O   O75       1.0  0.99637  0.06261  0.37668  1.0000 -0.8819152646
O   O76       1.0  0.00363  0.56261  0.12332  1.0000 -0.8819152646
