# DDEC6 charges by PACMAN v1.1 (https://github.com/mtap-research/PACMAN-charge/)
data_2007[Pr][nan]3[ASR]2
_chemical_formula_sum              "Pr2 H24 C18 O12"
_cell_length_a       7.8538
_cell_length_b       11.0219
_cell_length_c       11.6693
_cell_angle_alpha    108.674
_cell_angle_beta     105.812
_cell_angle_gamma    104.108

_symmetry_space_group_name_H-M    "P 1"
_symmetry_Int_Tables_number       1

loop_
  _symmetry_equiv_pos_as_xyz
  'x, y, z'

loop_
  _atom_site_type_symbol
  _atom_site_label
  _atom_site_symmetry_multiplicity
  _atom_site_fract_x
  _atom_site_fract_y
  _atom_site_fract_z
  _atom_site_occupancy
  _atom_site_charge
Pr  Pr1       1.0  0.27462  0.02108  0.06542  1.0000 2.0974039976
Pr  Pr2       1.0  0.72538  0.97892  0.93458  1.0000 2.0974039976
H   H1        1.0  0.23080  0.40520  0.05140  1.0000 0.1383889584
H   H2        1.0  0.76920  0.59480  0.94860  1.0000 0.1383889584
H   H3        1.0  0.26220  0.30270  0.93790  1.0000 0.1383889584
H   H4        1.0  0.73780  0.69730  0.06210  1.0000 0.1383889584
H   H5        1.0  0.98790  0.42280  0.88240  1.0000 0.0893886093
H   H6        1.0  0.01210  0.57720  0.11760  1.0000 0.0893886093
H   H7        1.0  0.06660  0.34590  0.78290  1.0000 0.0893886093
H   H8        1.0  0.93340  0.65410  0.21710  1.0000 0.0893886093
H   H9        1.0  0.84570  0.81730  0.53580  1.0000 0.1309589166
H   H10       1.0  0.15430  0.18270  0.46420  1.0000 0.1309589166
H   H11       1.0  0.06430  0.84550  0.58250  1.0000 0.1309589166
H   H12       1.0  0.93570  0.15450  0.41750  1.0000 0.1309589166
H   H13       1.0  0.10330  0.64680  0.83390  1.0000 0.1383889584
H   H14       1.0  0.89670  0.35320  0.16610  1.0000 0.1383889584
H   H15       1.0  0.16780  0.55650  0.73210  1.0000 0.1309589166
H   H16       1.0  0.83220  0.44350  0.26790  1.0000 0.1309589166
H   H17       1.0  0.12700  0.08130  0.63020  1.0000 0.0893886093
H   H18       1.0  0.87300  0.91870  0.36980  1.0000 0.0893886093
H   H19       1.0  0.90840  0.05200  0.58140  1.0000 0.0893886093
H   H20       1.0  0.09160  0.94800  0.41860  1.0000 0.0893886093
H   H21       1.0  0.28390  0.60310  0.99920  1.0000 0.1007936429
H   H22       1.0  0.71610  0.39690  0.00080  1.0000 0.1007936429
H   H23       1.0  0.36950  0.52540  0.90620  1.0000 0.0893886093
H   H24       1.0  0.63050  0.47460  0.09380  1.0000 0.0893886093
C   C1        1.0  0.98200  0.91890  0.73440  1.0000 0.6946614329
C   C2        1.0  0.01800  0.08110  0.26560  1.0000 0.6946614329
C   C3        1.0  0.16820  0.33660  0.96170  1.0000 -0.3330645617
C   C4        1.0  0.83180  0.66340  0.03830  1.0000 -0.3330645617
C   C5        1.0  0.10040  0.40620  0.87350  1.0000 -0.1308413688
C   C6        1.0  0.89960  0.59380  0.12650  1.0000 -0.1308413688
C   C7        1.0  0.97010  0.88510  0.59620  1.0000 -0.3330645617
C   C8        1.0  0.02990  0.11490  0.40380  1.0000 -0.3330645617
C   C9        1.0  0.20700  0.61750  0.82330  1.0000 -0.3245024588
C   C10       1.0  0.79300  0.38250  0.17670  1.0000 -0.3245024588
C   C11       1.0  0.01440  0.21860  0.95590  1.0000 0.661822075
C   C12       1.0  0.98560  0.78140  0.04410  1.0000 0.661822075
C   C13       1.0  0.00370  0.01340  0.56800  1.0000 -0.1516724061
C   C14       1.0  0.99630  0.98660  0.43200  1.0000 -0.1516724061
C   C15       1.0  0.25530  0.54270  0.90950  1.0000 -0.1442247983
C   C16       1.0  0.74470  0.45730  0.09050  1.0000 -0.1442247983
C   C17       1.0  0.38100  0.74100  0.86250  1.0000 0.661822075
C   C18       1.0  0.61900  0.25900  0.13750  1.0000 0.661822075
O   O1        1.0  0.06820  0.14930  0.01830  1.0000 -0.7501451429
O   O2        1.0  0.93180  0.85070  0.98170  1.0000 -0.7501451429
O   O3        1.0  0.14680  0.96010  0.82350  1.0000 -0.6932792422
O   O4        1.0  0.85320  0.03990  0.17650  1.0000 -0.6932792422
O   O5        1.0  0.41010  0.85600  0.95220  1.0000 -0.7578118201
O   O6        1.0  0.58990  0.14400  0.04780  1.0000 -0.7578118201
O   O7        1.0  0.83460  0.91050  0.75690  1.0000 -0.6489588078
O   O8        1.0  0.16540  0.08950  0.24310  1.0000 -0.6489588078
O   O9        1.0  0.49990  0.72840  0.81120  1.0000 -0.6111014541
O   O10       1.0  0.50010  0.27160  0.18880  1.0000 -0.6111014541
O   O11       1.0  0.84390  0.19150  0.89560  1.0000 -0.5928232726
O   O12       1.0  0.15610  0.80850  0.10440  1.0000 -0.5928232726
