# DDEC6 charges by PACMAN v1.1 (https://github.com/mtap-research/PACMAN-charge/)
data_2007[Mg][dia]3[ASR]1
_chemical_formula_sum              "Mg12 H24 C24 O48"
_cell_length_a       11.315
_cell_length_b       9.853
_cell_length_c       18.1075
_cell_angle_alpha    90
_cell_angle_beta     127.341
_cell_angle_gamma    90

_symmetry_space_group_name_H-M    "P 1"
_symmetry_Int_Tables_number       1

loop_
  _symmetry_equiv_pos_as_xyz
  'x, y, z'

loop_
  _atom_site_type_symbol
  _atom_site_label
  _atom_site_symmetry_multiplicity
  _atom_site_fract_x
  _atom_site_fract_y
  _atom_site_fract_z
  _atom_site_occupancy
  _atom_site_charge
Mg  Mg1       1.0  0.12057  0.08193  0.86508  1.0000 1.3193160103
Mg  Mg2       1.0  0.87943  0.58193  0.63492  1.0000 1.3193160103
Mg  Mg3       1.0  0.87943  0.91807  0.13492  1.0000 1.3193160103
Mg  Mg4       1.0  0.12057  0.41807  0.36508  1.0000 1.3193160103
Mg  Mg5       1.0  0.00000  0.00000  0.00000  1.0000 1.3090650843
Mg  Mg6       1.0  0.00000  0.50000  0.50000  1.0000 1.3090650843
Mg  Mg7       1.0  0.92721  0.89212  0.68845  1.0000 1.2897082971
Mg  Mg8       1.0  0.07279  0.39212  0.81155  1.0000 1.2897082971
Mg  Mg9       1.0  0.07279  0.10788  0.31155  1.0000 1.2897082971
Mg  Mg10      1.0  0.92721  0.60788  0.18845  1.0000 1.2897082971
Mg  Mg11      1.0  0.50000  0.00000  0.00000  1.0000 1.3090650843
Mg  Mg12      1.0  0.50000  0.50000  0.50000  1.0000 1.3090650843
H   H1        1.0  0.70810  0.96680  0.73330  1.0000 0.0791005258
H   H2        1.0  0.29190  0.46680  0.76670  1.0000 0.0791005258
H   H3        1.0  0.29190  0.03320  0.26670  1.0000 0.0791005258
H   H4        1.0  0.70810  0.53320  0.23330  1.0000 0.0791005258
H   H5        1.0  0.01450  0.38260  0.95760  1.0000 0.073428932
H   H6        1.0  0.98550  0.88260  0.54240  1.0000 0.073428932
H   H7        1.0  0.98550  0.61740  0.04240  1.0000 0.073428932
H   H8        1.0  0.01450  0.11740  0.45760  1.0000 0.073428932
H   H9        1.0  0.99370  0.24400  0.63000  1.0000 0.0791005258
H   H10       1.0  0.00630  0.74400  0.87000  1.0000 0.0791005258
H   H11       1.0  0.00630  0.75600  0.37000  1.0000 0.0791005258
H   H12       1.0  0.99370  0.25600  0.13000  1.0000 0.0791005258
H   H13       1.0  0.48210  0.29550  0.99140  1.0000 0.0791005258
H   H14       1.0  0.51790  0.79550  0.50860  1.0000 0.0791005258
H   H15       1.0  0.51790  0.70450  0.00860  1.0000 0.0791005258
H   H16       1.0  0.48210  0.20450  0.49140  1.0000 0.0791005258
H   H17       1.0  0.24640  0.81320  0.76500  1.0000 0.0791005258
H   H18       1.0  0.75360  0.31320  0.73500  1.0000 0.0791005258
H   H19       1.0  0.75360  0.18680  0.23500  1.0000 0.0791005258
H   H20       1.0  0.24640  0.68680  0.26500  1.0000 0.0791005258
H   H21       1.0  0.26850  0.84150  0.07020  1.0000 0.073428932
H   H22       1.0  0.73150  0.34150  0.42980  1.0000 0.073428932
H   H23       1.0  0.73150  0.15850  0.92980  1.0000 0.073428932
H   H24       1.0  0.26850  0.65850  0.57020  1.0000 0.073428932
C   C1        1.0  0.80536  0.98686  0.78744  1.0000 0.5211365031
C   C2        1.0  0.19464  0.48686  0.71256  1.0000 0.5211365031
C   C3        1.0  0.19464  0.01314  0.21256  1.0000 0.5211365031
C   C4        1.0  0.80536  0.51314  0.28744  1.0000 0.5211365031
C   C5        1.0  0.02404  0.28917  0.94928  1.0000 0.5211365031
C   C6        1.0  0.97596  0.78917  0.55072  1.0000 0.5211365031
C   C7        1.0  0.97596  0.71083  0.05072  1.0000 0.5211365031
C   C8        1.0  0.02404  0.21083  0.44928  1.0000 0.5211365031
C   C9        1.0  0.99895  0.17449  0.66826  1.0000 0.5362619466
C   C10       1.0  0.00105  0.67449  0.83174  1.0000 0.5362619466
C   C11       1.0  0.00105  0.82551  0.33174  1.0000 0.5362619466
C   C12       1.0  0.99895  0.32551  0.16826  1.0000 0.5362619466
C   C13       1.0  0.37849  0.27795  0.94914  1.0000 0.5342916058
C   C14       1.0  0.62151  0.77795  0.55086  1.0000 0.5362619466
C   C15       1.0  0.62151  0.72205  0.05086  1.0000 0.5342916058
C   C16       1.0  0.37849  0.22205  0.44914  1.0000 0.5342916058
C   C17       1.0  0.26479  0.87425  0.81154  1.0000 0.5211365031
C   C18       1.0  0.73521  0.37425  0.68846  1.0000 0.5211365031
C   C19       1.0  0.73521  0.12575  0.18846  1.0000 0.5211365031
C   C20       1.0  0.26479  0.62575  0.31154  1.0000 0.5211365031
C   C21       1.0  0.27057  0.89832  0.02857  1.0000 0.5342916058
C   C22       1.0  0.72943  0.39832  0.47143  1.0000 0.5342916058
C   C23       1.0  0.72943  0.10168  0.97143  1.0000 0.5362619466
C   C24       1.0  0.27057  0.60168  0.52857  1.0000 0.5342916058
O   O1        1.0  0.90825  0.99781  0.77825  1.0000 -0.6887509469
O   O2        1.0  0.09175  0.49781  0.72175  1.0000 -0.6887509469
O   O3        1.0  0.09175  0.00219  0.22175  1.0000 -0.6887509469
O   O4        1.0  0.90825  0.50219  0.27825  1.0000 -0.6887509469
O   O5        1.0  0.04577  0.25908  0.88951  1.0000 -0.6887509469
O   O6        1.0  0.95423  0.75908  0.61049  1.0000 -0.6887509469
O   O7        1.0  0.95423  0.74092  0.11049  1.0000 -0.6887509469
O   O8        1.0  0.04577  0.24092  0.38951  1.0000 -0.6887509469
O   O9        1.0  0.06262  0.20376  0.75330  1.0000 -0.6717418327
O   O10       1.0  0.93738  0.70376  0.74670  1.0000 -0.6717418327
O   O11       1.0  0.93738  0.79624  0.24670  1.0000 -0.6717418327
O   O12       1.0  0.06262  0.29624  0.25330  1.0000 -0.6717418327
O   O13       1.0  0.33722  0.15422  0.93925  1.0000 -0.6717418327
O   O14       1.0  0.66278  0.65422  0.56075  1.0000 -0.6717418327
O   O15       1.0  0.66278  0.84578  0.06075  1.0000 -0.6717418327
O   O16       1.0  0.33722  0.34578  0.43925  1.0000 -0.6717418327
O   O17       1.0  0.15156  0.92182  0.80224  1.0000 -0.6760750307
O   O18       1.0  0.84844  0.42182  0.69776  1.0000 -0.6760750307
O   O19       1.0  0.84844  0.07818  0.19776  1.0000 -0.6760750307
O   O20       1.0  0.15156  0.57818  0.30224  1.0000 -0.6760750307
O   O21       1.0  0.15773  0.97542  0.97471  1.0000 -0.6887509469
O   O22       1.0  0.84227  0.47542  0.52529  1.0000 -0.6887509469
O   O23       1.0  0.84227  0.02458  0.02529  1.0000 -0.6887509469
O   O24       1.0  0.15773  0.52458  0.47471  1.0000 -0.6887509469
O   O25       1.0  0.82209  0.00025  0.86107  1.0000 -0.5696641161
O   O26       1.0  0.17791  0.50025  0.63893  1.0000 -0.5696641161
O   O27       1.0  0.17791  0.99975  0.13893  1.0000 -0.5696641161
O   O28       1.0  0.82209  0.49975  0.36107  1.0000 -0.5696641161
O   O29       1.0  0.01438  0.20706  0.99700  1.0000 -0.5813953821
O   O30       1.0  0.98562  0.70706  0.50300  1.0000 -0.5813953821
O   O31       1.0  0.98562  0.79294  0.00300  1.0000 -0.5813953821
O   O32       1.0  0.01438  0.29294  0.49700  1.0000 -0.5813953821
O   O33       1.0  0.29571  0.37716  0.90864  1.0000 -0.5813953821
O   O34       1.0  0.70429  0.87716  0.59136  1.0000 -0.5813953821
O   O35       1.0  0.70429  0.62284  0.09136  1.0000 -0.5813953821
O   O36       1.0  0.29571  0.12284  0.40864  1.0000 -0.5813953821
O   O37       1.0  0.39627  0.90015  0.87544  1.0000 -0.5696641161
O   O38       1.0  0.60373  0.40015  0.62456  1.0000 -0.5636962249
O   O39       1.0  0.60373  0.09985  0.12456  1.0000 -0.5636962249
O   O40       1.0  0.39627  0.59985  0.37544  1.0000 -0.5636962249
O   O41       1.0  0.38167  0.89198  0.03068  1.0000 -0.5813953821
O   O42       1.0  0.61833  0.39198  0.46932  1.0000 -0.5813953821
O   O43       1.0  0.61833  0.10802  0.96932  1.0000 -0.5813953821
O   O44       1.0  0.38167  0.60802  0.53068  1.0000 -0.5813953821
O   O45       1.0  0.94313  0.06251  0.63116  1.0000 -0.5857391997
O   O46       1.0  0.05687  0.56251  0.86884  1.0000 -0.5857391997
O   O47       1.0  0.05687  0.93749  0.36884  1.0000 -0.5857391997
O   O48       1.0  0.94313  0.43749  0.13116  1.0000 -0.5857391997
