# DDEC6 charges by PACMAN v1.1 (https://github.com/mtap-research/PACMAN-charge/)
data_2007[CaLa][nan]3[ASR]1
_chemical_formula_sum              "Ca4 La4 H96 C192 N16 O32"
_cell_length_a       9.8548
_cell_length_b       33.7925
_cell_length_c       13.8138
_cell_angle_alpha    90
_cell_angle_beta     92.8627
_cell_angle_gamma    90

_symmetry_space_group_name_H-M    "P 1"
_symmetry_Int_Tables_number       1

loop_
  _symmetry_equiv_pos_as_xyz
  'x, y, z'

loop_
  _atom_site_type_symbol
  _atom_site_label
  _atom_site_symmetry_multiplicity
  _atom_site_fract_x
  _atom_site_fract_y
  _atom_site_fract_z
  _atom_site_occupancy
  _atom_site_charge
Ca  Ca1       1.0  0.26230  0.00031  0.41800  1.0000 1.106593903
Ca  Ca2       1.0  0.23770  0.50031  0.58200  1.0000 1.106593903
Ca  Ca3       1.0  0.73770  0.99969  0.58200  1.0000 1.106593903
Ca  Ca4       1.0  0.76230  0.49969  0.41800  1.0000 1.106593903
La  La1       1.0  0.26408  0.75105  0.02019  1.0000 1.9565661213
La  La2       1.0  0.23592  0.25105  0.97981  1.0000 1.9565661213
La  La3       1.0  0.73592  0.24895  0.97981  1.0000 1.9565661213
La  La4       1.0  0.76408  0.74895  0.02019  1.0000 1.9565661213
H   H1        1.0  0.28240  0.45850  0.22800  1.0000 0.1285885422
H   H2        1.0  0.21760  0.95850  0.77200  1.0000 0.1285885422
H   H3        1.0  0.71760  0.54150  0.77200  1.0000 0.1285885422
H   H4        1.0  0.78240  0.04150  0.22800  1.0000 0.1285885422
H   H5        1.0  0.39240  0.52450  0.23830  1.0000 0.1201276666
H   H6        1.0  0.10760  0.02450  0.76170  1.0000 0.1201276666
H   H7        1.0  0.60760  0.47550  0.76170  1.0000 0.1201276666
H   H8        1.0  0.89240  0.97550  0.23830  1.0000 0.1201276666
H   H9        1.0  0.51240  0.62620  0.52340  1.0000 0.1384896851
H   H10       1.0  0.98760  0.12620  0.47660  1.0000 0.1384896851
H   H11       1.0  0.48760  0.37380  0.47660  1.0000 0.1384896851
H   H12       1.0  0.01240  0.87380  0.52340  1.0000 0.1384896851
H   H13       1.0  0.51590  0.62090  0.70130  1.0000 0.1384896851
H   H14       1.0  0.98410  0.12090  0.29870  1.0000 0.1384896851
H   H15       1.0  0.48410  0.37910  0.29870  1.0000 0.1384896851
H   H16       1.0  0.01590  0.87910  0.70130  1.0000 0.1384896851
H   H17       1.0  0.25930  0.52870  0.94750  1.0000 0.1285885422
H   H18       1.0  0.24070  0.02870  0.05250  1.0000 0.1285885422
H   H19       1.0  0.74070  0.47130  0.05250  1.0000 0.1285885422
H   H20       1.0  0.75930  0.97130  0.94750  1.0000 0.1285885422
H   H21       1.0  0.09370  0.47410  0.92980  1.0000 0.1285885422
H   H22       1.0  0.40630  0.97410  0.07020  1.0000 0.1285885422
H   H23       1.0  0.90630  0.52590  0.07020  1.0000 0.1285885422
H   H24       1.0  0.59370  0.02590  0.92980  1.0000 0.1285885422
H   H25       1.0  0.92990  0.37950  0.63660  1.0000 0.1384896851
H   H26       1.0  0.57010  0.87950  0.36340  1.0000 0.1384896851
H   H27       1.0  0.07010  0.62050  0.36340  1.0000 0.1384896851
H   H28       1.0  0.42990  0.12050  0.63660  1.0000 0.1384896851
H   H29       1.0  0.98180  0.37440  0.46450  1.0000 0.1384896851
H   H30       1.0  0.51820  0.87440  0.53550  1.0000 0.1384896851
H   H31       1.0  0.01820  0.62560  0.53550  1.0000 0.1384896851
H   H32       1.0  0.48180  0.12560  0.46450  1.0000 0.1384896851
H   H33       1.0  0.60740  0.55800  0.31450  1.0000 0.1108771449
H   H34       1.0  0.89260  0.05800  0.68550  1.0000 0.1108771449
H   H35       1.0  0.39260  0.44200  0.68550  1.0000 0.1108771449
H   H36       1.0  0.10740  0.94200  0.31450  1.0000 0.1108771449
H   H37       1.0  0.68160  0.60120  0.19550  1.0000 0.1108771449
H   H38       1.0  0.81840  0.10120  0.80450  1.0000 0.1108771449
H   H39       1.0  0.31840  0.39880  0.80450  1.0000 0.1108771449
H   H40       1.0  0.18160  0.89880  0.19550  1.0000 0.1108771449
H   H41       1.0  0.56310  0.65930  0.15940  1.0000 0.1285885422
H   H42       1.0  0.93690  0.15930  0.84060  1.0000 0.1285885422
H   H43       1.0  0.43690  0.34070  0.84060  1.0000 0.1285885422
H   H44       1.0  0.06310  0.84070  0.15940  1.0000 0.1285885422
H   H45       1.0  0.29540  0.63270  0.36150  1.0000 0.1201276666
H   H46       1.0  0.20460  0.13270  0.63850  1.0000 0.1201276666
H   H47       1.0  0.70460  0.36730  0.63850  1.0000 0.1201276666
H   H48       1.0  0.79540  0.86730  0.36150  1.0000 0.1201276666
H   H49       1.0  0.54560  0.52870  0.90190  1.0000 0.1201276666
H   H50       1.0  0.95440  0.02870  0.09810  1.0000 0.1201276666
H   H51       1.0  0.45440  0.47130  0.09810  1.0000 0.1201276666
H   H52       1.0  0.04560  0.97130  0.90190  1.0000 0.1201276666
H   H53       1.0  0.69890  0.56230  0.00600  1.0000 0.1201276666
H   H54       1.0  0.80110  0.06230  0.99400  1.0000 0.1201276666
H   H55       1.0  0.30110  0.43770  0.99400  1.0000 0.1201276666
H   H56       1.0  0.19890  0.93770  0.00600  1.0000 0.1201276666
H   H57       1.0  0.68510  0.63080  0.02260  1.0000 0.1285885422
H   H58       1.0  0.81490  0.13080  0.97740  1.0000 0.1285885422
H   H59       1.0  0.31490  0.36920  0.97740  1.0000 0.1285885422
H   H60       1.0  0.18510  0.86920  0.02260  1.0000 0.1285885422
H   H61       1.0  0.34680  0.63150  0.84430  1.0000 0.1384896851
H   H62       1.0  0.15320  0.13150  0.15570  1.0000 0.1384896851
H   H63       1.0  0.65320  0.36850  0.15570  1.0000 0.1384896851
H   H64       1.0  0.84680  0.86850  0.84430  1.0000 0.1384896851
H   H65       1.0  0.83330  0.45960  0.83490  1.0000 0.1201276666
H   H66       1.0  0.66667  0.95960  0.16510  1.0000 0.1201276666
H   H67       1.0  0.16670  0.54040  0.16510  1.0000 0.1201276666
H   H68       1.0  0.33333  0.04040  0.83490  1.0000 0.1201276666
H   H69       1.0  0.70650  0.41880  0.93230  1.0000 0.1201276666
H   H70       1.0  0.79350  0.91880  0.06770  1.0000 0.1201276666
H   H71       1.0  0.29350  0.58120  0.06770  1.0000 0.1201276666
H   H72       1.0  0.20650  0.08120  0.93230  1.0000 0.1201276666
H   H73       1.0  0.77780  0.35440  0.96920  1.0000 0.1201276666
H   H74       1.0  0.72220  0.85440  0.03080  1.0000 0.1201276666
H   H75       1.0  0.22220  0.64560  0.03080  1.0000 0.1201276666
H   H76       1.0  0.27780  0.14560  0.96920  1.0000 0.1201276666
H   H77       1.0  0.10170  0.37030  0.80390  1.0000 0.1285885422
H   H78       1.0  0.39830  0.87030  0.19610  1.0000 0.1285885422
H   H79       1.0  0.89830  0.62970  0.19610  1.0000 0.1285885422
H   H80       1.0  0.60170  0.12970  0.80390  1.0000 0.1285885422
H   H81       1.0  0.97480  0.44620  0.25750  1.0000 0.1201276666
H   H82       1.0  0.52520  0.94620  0.74250  1.0000 0.1201276666
H   H83       1.0  0.02520  0.55380  0.74250  1.0000 0.1201276666
H   H84       1.0  0.47480  0.05380  0.25750  1.0000 0.1201276666
H   H85       1.0  0.90420  0.40790  0.12320  1.0000 0.1108771449
H   H86       1.0  0.59580  0.90790  0.87680  1.0000 0.1108771449
H   H87       1.0  0.09580  0.59210  0.87680  1.0000 0.1108771449
H   H88       1.0  0.40420  0.09210  0.12320  1.0000 0.1108771449
H   H89       1.0  0.00990  0.34730  0.09650  1.0000 0.1201276666
H   H90       1.0  0.49010  0.84730  0.90350  1.0000 0.1201276666
H   H91       1.0  0.99010  0.65270  0.90350  1.0000 0.1201276666
H   H92       1.0  0.50990  0.15270  0.09650  1.0000 0.1201276666
H   H93       1.0  0.24660  0.36220  0.34160  1.0000 0.1201276666
H   H94       1.0  0.25340  0.86220  0.65840  1.0000 0.1201276666
H   H95       1.0  0.75340  0.63780  0.65840  1.0000 0.1201276666
H   H96       1.0  0.74660  0.13780  0.34160  1.0000 0.1201276666
C   C1        1.0  0.23740  0.46770  0.37750  1.0000 0.207895901
C   C2        1.0  0.26260  0.96770  0.62250  1.0000 0.207895901
C   C3        1.0  0.76260  0.53230  0.62250  1.0000 0.207895901
C   C4        1.0  0.73740  0.03230  0.37750  1.0000 0.207895901
C   C5        1.0  0.28950  0.47532  0.28310  1.0000 -0.1605748237
C   C6        1.0  0.21050  0.97532  0.71690  1.0000 -0.1605748237
C   C7        1.0  0.71050  0.52468  0.71690  1.0000 -0.1605748237
C   C8        1.0  0.78950  0.02468  0.28310  1.0000 -0.1605748237
C   C9        1.0  0.34990  0.51101  0.28910  1.0000 -0.1920729411
C   C10       1.0  0.15010  0.01101  0.71090  1.0000 -0.1920729411
C   C11       1.0  0.65010  0.48899  0.71090  1.0000 -0.1920729411
C   C12       1.0  0.84990  0.98899  0.28910  1.0000 -0.1920729411
C   C13       1.0  0.33780  0.52505  0.38720  1.0000 0.2013358845
C   C14       1.0  0.16220  0.02505  0.61280  1.0000 0.2013358845
C   C15       1.0  0.66220  0.47495  0.61280  1.0000 0.2013358845
C   C16       1.0  0.83780  0.97495  0.38720  1.0000 0.2013358845
C   C17       1.0  0.38750  0.56157  0.42110  1.0000 -0.100859204
C   C18       1.0  0.11250  0.06157  0.57890  1.0000 -0.1071002777
C   C19       1.0  0.61250  0.43843  0.57890  1.0000 -0.1071002777
C   C20       1.0  0.88750  0.93843  0.42110  1.0000 -0.1071002777
C   C21       1.0  0.39590  0.57342  0.51880  1.0000 0.207895901
C   C22       1.0  0.10410  0.07342  0.48120  1.0000 0.207895901
C   C23       1.0  0.60410  0.42658  0.48120  1.0000 0.207895901
C   C24       1.0  0.89590  0.92658  0.51880  1.0000 0.207895901
C   C25       1.0  0.47000  0.60603  0.55910  1.0000 -0.1668019557
C   C26       1.0  0.03000  0.10603  0.44090  1.0000 -0.1668019557
C   C27       1.0  0.53000  0.39397  0.44090  1.0000 -0.1668019557
C   C28       1.0  0.97000  0.89397  0.55910  1.0000 -0.1668019557
C   C29       1.0  0.47030  0.60349  0.65650  1.0000 -0.1605748237
C   C30       1.0  0.02970  0.10349  0.34350  1.0000 -0.1605748237
C   C31       1.0  0.52970  0.39651  0.34350  1.0000 -0.1605748237
C   C32       1.0  0.97030  0.89651  0.65650  1.0000 -0.1605748237
C   C33       1.0  0.38880  0.56969  0.68090  1.0000 0.2184973991
C   C34       1.0  0.11120  0.06969  0.31910  1.0000 0.2184973991
C   C35       1.0  0.61120  0.43031  0.31910  1.0000 0.2184973991
C   C36       1.0  0.88880  0.93031  0.68090  1.0000 0.2184973991
C   C37       1.0  0.36220  0.55657  0.77410  1.0000 -0.0910527015
C   C38       1.0  0.13780  0.05657  0.22590  1.0000 -0.0910527015
C   C39       1.0  0.63780  0.44343  0.22590  1.0000 -0.0910527015
C   C40       1.0  0.86220  0.94343  0.77410  1.0000 -0.0910527015
C   C41       1.0  0.27550  0.52508  0.79430  1.0000 0.1888603604
C   C42       1.0  0.22450  0.02508  0.20570  1.0000 0.1888603604
C   C43       1.0  0.72450  0.47492  0.20570  1.0000 0.1888603604
C   C44       1.0  0.77550  0.97492  0.79430  1.0000 0.1888603604
C   C45       1.0  0.23080  0.51586  0.88870  1.0000 -0.1920729411
C   C46       1.0  0.26920  0.01586  0.11130  1.0000 -0.1920729411
C   C47       1.0  0.76920  0.48414  0.11130  1.0000 -0.1920729411
C   C48       1.0  0.73080  0.98414  0.88870  1.0000 -0.1920729411
C   C49       1.0  0.14170  0.48601  0.87940  1.0000 -0.1807911508
C   C50       1.0  0.35830  0.98601  0.12060  1.0000 -0.1807911508
C   C51       1.0  0.85830  0.51399  0.12060  1.0000 -0.1807911508
C   C52       1.0  0.64170  0.01399  0.87940  1.0000 -0.1807911508
C   C53       1.0  0.13270  0.47550  0.77850  1.0000 0.1888603604
C   C54       1.0  0.36730  0.97550  0.22150  1.0000 0.1888603604
C   C55       1.0  0.86730  0.52450  0.22150  1.0000 0.1888603604
C   C56       1.0  0.63270  0.02450  0.77850  1.0000 0.1888603604
C   C57       1.0  0.05810  0.44355  0.73990  1.0000 -0.0910527015
C   C58       1.0  0.44190  0.94355  0.26010  1.0000 -0.0910527015
C   C59       1.0  0.94190  0.55645  0.26010  1.0000 -0.0910527015
C   C60       1.0  0.55810  0.05645  0.73990  1.0000 -0.0910527015
C   C61       1.0  0.05830  0.43059  0.64340  1.0000 0.2013358845
C   C62       1.0  0.44170  0.93059  0.35660  1.0000 0.2013358845
C   C63       1.0  0.94170  0.56941  0.35660  1.0000 0.2013358845
C   C64       1.0  0.55830  0.06941  0.64340  1.0000 0.2013358845
C   C65       1.0  0.98700  0.39680  0.60280  1.0000 -0.1605748237
C   C66       1.0  0.51300  0.89680  0.39720  1.0000 -0.1605748237
C   C67       1.0  0.01300  0.60320  0.39720  1.0000 -0.1605748237
C   C68       1.0  0.48700  0.10320  0.60280  1.0000 -0.1605748237
C   C69       1.0  0.01540  0.39405  0.50880  1.0000 -0.1668019557
C   C70       1.0  0.48460  0.89405  0.49120  1.0000 -0.1668019557
C   C71       1.0  0.98460  0.60595  0.49120  1.0000 -0.1668019557
C   C72       1.0  0.51540  0.10595  0.50880  1.0000 -0.1668019557
C   C73       1.0  0.10600  0.42615  0.48690  1.0000 0.207895901
C   C74       1.0  0.39400  0.92615  0.51310  1.0000 0.207895901
C   C75       1.0  0.89400  0.57385  0.51310  1.0000 0.207895901
C   C76       1.0  0.60600  0.07385  0.48690  1.0000 0.207895901
C   C77       1.0  0.15750  0.43458  0.39740  1.0000 -0.100859204
C   C78       1.0  0.34250  0.93458  0.60260  1.0000 -0.100859204
C   C79       1.0  0.84250  0.56542  0.60260  1.0000 -0.100859204
C   C80       1.0  0.65750  0.06542  0.39740  1.0000 -0.100859204
C   C81       1.0  0.44070  0.59038  0.34980  1.0000 0.0917404074
C   C82       1.0  0.05930  0.09038  0.65020  1.0000 0.0917404074
C   C83       1.0  0.55930  0.40962  0.65020  1.0000 0.0917404074
C   C84       1.0  0.94070  0.90962  0.34980  1.0000 0.0917404074
C   C85       1.0  0.55810  0.58162  0.30000  1.0000 -0.1483832245
C   C86       1.0  0.94190  0.08162  0.70000  1.0000 -0.1483832245
C   C87       1.0  0.44190  0.41838  0.70000  1.0000 -0.1483832245
C   C88       1.0  0.05810  0.91838  0.30000  1.0000 -0.1483832245
C   C89       1.0  0.60270  0.60743  0.22920  1.0000 -0.0848382228
C   C90       1.0  0.89730  0.10743  0.77080  1.0000 -0.0848382228
C   C91       1.0  0.39730  0.39257  0.77080  1.0000 -0.0848382228
C   C92       1.0  0.10270  0.89257  0.22920  1.0000 -0.0848382228
C   C93       1.0  0.53230  0.64200  0.20800  1.0000 -0.100859204
C   C94       1.0  0.96770  0.14200  0.79200  1.0000 -0.100859204
C   C95       1.0  0.46770  0.35800  0.79200  1.0000 -0.100859204
C   C96       1.0  0.03230  0.85800  0.20800  1.0000 -0.100859204
C   C97       1.0  0.41810  0.65163  0.25640  1.0000 0.0004319435
C   C98       1.0  0.08190  0.15163  0.74360  1.0000 0.0004319435
C   C99       1.0  0.58190  0.34837  0.74360  1.0000 0.0004319435
C   C100      1.0  0.91810  0.84837  0.25640  1.0000 0.0004319435
C   C101      1.0  0.37350  0.62590  0.32750  1.0000 -0.1483832245
C   C102      1.0  0.12650  0.12590  0.67250  1.0000 -0.1483832245
C   C103      1.0  0.62650  0.37410  0.67250  1.0000 -0.1483832245
C   C104      1.0  0.87350  0.87410  0.32750  1.0000 -0.1483832245
C   C105      1.0  0.33490  0.68859  0.22920  1.0000 0.5918857864
C   C106      1.0  0.16510  0.18859  0.77080  1.0000 0.5918857864
C   C107      1.0  0.66510  0.31141  0.77080  1.0000 0.5918857864
C   C108      1.0  0.83490  0.81141  0.22920  1.0000 0.5918857864
C   C109      1.0  0.43820  0.57746  0.85530  1.0000 0.0917404074
C   C110      1.0  0.06180  0.07746  0.14470  1.0000 0.0917404074
C   C111      1.0  0.56180  0.42254  0.14470  1.0000 0.0917404074
C   C112      1.0  0.93820  0.92254  0.85530  1.0000 0.0917404074
C   C113      1.0  0.53900  0.55661  0.90870  1.0000 -0.1396003292
C   C114      1.0  0.96100  0.05661  0.09130  1.0000 -0.1396003292
C   C115      1.0  0.46100  0.44339  0.09130  1.0000 -0.1396003292
C   C116      1.0  0.03900  0.94339  0.90870  1.0000 -0.1396003292
C   C117      1.0  0.62910  0.57650  0.97120  1.0000 -0.0910527015
C   C118      1.0  0.87090  0.07650  0.02880  1.0000 -0.0910527015
C   C119      1.0  0.37090  0.42350  0.02880  1.0000 -0.0910527015
C   C120      1.0  0.12910  0.92350  0.97120  1.0000 -0.0910527015
C   C121      1.0  0.61850  0.61707  0.98350  1.0000 -0.100859204
C   C122      1.0  0.88150  0.11707  0.01650  1.0000 -0.100859204
C   C123      1.0  0.38150  0.38293  0.01650  1.0000 -0.100859204
C   C124      1.0  0.11850  0.88293  0.98350  1.0000 -0.100859204
C   C125      1.0  0.51140  0.63747  0.93910  1.0000 -0.0110672597
C   C126      1.0  0.98860  0.13747  0.06090  1.0000 -0.0110672597
C   C127      1.0  0.48860  0.36253  0.06090  1.0000 -0.0110672597
C   C128      1.0  0.01140  0.86253  0.93910  1.0000 -0.0110672597
C   C129      1.0  0.42090  0.61754  0.87490  1.0000 -0.1483832245
C   C130      1.0  0.07910  0.11754  0.12510  1.0000 -0.1483832245
C   C131      1.0  0.57910  0.38246  0.12510  1.0000 -0.1483832245
C   C132      1.0  0.92090  0.88246  0.87490  1.0000 -0.1483832245
C   C133      1.0  0.49370  0.68086  0.95920  1.0000 0.6392166874
C   C134      1.0  0.00630  0.18086  0.04080  1.0000 0.6392166874
C   C135      1.0  0.50630  0.31914  0.04080  1.0000 0.6392166874
C   C136      1.0  0.99370  0.81914  0.95920  1.0000 0.6392166874
C   C137      1.0  0.97970  0.41903  0.80780  1.0000 0.0917404074
C   C138      1.0  0.52030  0.91903  0.19220  1.0000 0.0917404074
C   C139      1.0  0.02030  0.58097  0.19220  1.0000 0.0917404074
C   C140      1.0  0.47970  0.08097  0.80780  1.0000 0.0917404074
C   C141      1.0  0.86250  0.43324  0.84780  1.0000 -0.1396003292
C   C142      1.0  0.63750  0.93324  0.15220  1.0000 -0.1396003292
C   C143      1.0  0.13750  0.56676  0.15220  1.0000 -0.1396003292
C   C144      1.0  0.36250  0.06676  0.84780  1.0000 -0.1396003292
C   C145      1.0  0.78760  0.40898  0.90670  1.0000 -0.0910527015
C   C146      1.0  0.71240  0.90898  0.09330  1.0000 -0.0910527015
C   C147      1.0  0.21240  0.59102  0.09330  1.0000 -0.0910527015
C   C148      1.0  0.28760  0.09102  0.90670  1.0000 -0.0910527015
C   C149      1.0  0.82920  0.37076  0.92870  1.0000 -0.1071002777
C   C150      1.0  0.67080  0.87076  0.07130  1.0000 -0.1071002777
C   C151      1.0  0.17080  0.62924  0.07130  1.0000 -0.1071002777
C   C152      1.0  0.32920  0.12924  0.92870  1.0000 -0.1071002777
C   C153      1.0  0.94700  0.35679  0.89050  1.0000 -0.0110672597
C   C154      1.0  0.55300  0.85679  0.10950  1.0000 -0.0110672597
C   C155      1.0  0.05300  0.64321  0.10950  1.0000 -0.0110672597
C   C156      1.0  0.44700  0.14321  0.89050  1.0000 -0.0110672597
C   C157      1.0  0.02150  0.38049  0.83020  1.0000 -0.1483832245
C   C158      1.0  0.47850  0.88049  0.16980  1.0000 -0.1483832245
C   C159      1.0  0.97850  0.61951  0.16980  1.0000 -0.1483832245
C   C160      1.0  0.52150  0.11951  0.83020  1.0000 -0.1483832245
C   C161      1.0  0.00040  0.31609  0.91490  1.0000 0.6284628174
C   C162      1.0  0.49960  0.81609  0.08510  1.0000 0.6284628174
C   C163      1.0  0.99960  0.68391  0.08510  1.0000 0.6284628174
C   C164      1.0  0.50040  0.18391  0.91490  1.0000 0.6284628174
C   C165      1.0  0.11610  0.40802  0.31330  1.0000 0.0917404074
C   C166      1.0  0.38390  0.90802  0.68670  1.0000 0.0917404074
C   C167      1.0  0.88390  0.59198  0.68670  1.0000 0.0917404074
C   C168      1.0  0.61610  0.09198  0.31330  1.0000 0.0917404074
C   C169      1.0  0.01610  0.42121  0.24760  1.0000 -0.1396003292
C   C170      1.0  0.48390  0.92121  0.75240  1.0000 -0.1396003292
C   C171      1.0  0.98390  0.57879  0.75240  1.0000 -0.1396003292
C   C172      1.0  0.51610  0.07879  0.24760  1.0000 -0.1396003292
C   C173      1.0  0.97450  0.39870  0.16710  1.0000 -0.0910527015
C   C174      1.0  0.52550  0.89870  0.83290  1.0000 -0.0910527015
C   C175      1.0  0.02550  0.60130  0.83290  1.0000 -0.0910527015
C   C176      1.0  0.47450  0.10130  0.16710  1.0000 -0.0910527015
C   C177      1.0  0.03710  0.36254  0.15180  1.0000 -0.0910527015
C   C178      1.0  0.46290  0.86254  0.84820  1.0000 -0.0910527015
C   C179      1.0  0.96290  0.63746  0.84820  1.0000 -0.0910527015
C   C180      1.0  0.53710  0.13746  0.15180  1.0000 -0.0910527015
C   C181      1.0  0.13800  0.34841  0.21530  1.0000 -0.0164488262
C   C182      1.0  0.36200  0.84841  0.78470  1.0000 -0.0164488262
C   C183      1.0  0.86200  0.65159  0.78470  1.0000 -0.0164488262
C   C184      1.0  0.63800  0.15159  0.21530  1.0000 -0.0164488262
C   C185      1.0  0.17740  0.37155  0.29710  1.0000 -0.1605748237
C   C186      1.0  0.32260  0.87155  0.70290  1.0000 -0.1605748237
C   C187      1.0  0.82260  0.62845  0.70290  1.0000 -0.1605748237
C   C188      1.0  0.67740  0.12845  0.29710  1.0000 -0.1605748237
C   C189      1.0  0.20550  0.30982  0.19630  1.0000 0.5918857864
C   C190      1.0  0.29450  0.80982  0.80370  1.0000 0.5918857864
C   C191      1.0  0.79450  0.69018  0.80370  1.0000 0.5918857864
C   C192      1.0  0.70550  0.19018  0.19630  1.0000 0.5918857864
N   N1        1.0  0.27150  0.49779  0.44040  1.0000 -0.4773490393
N   N2        1.0  0.22850  0.99779  0.55960  1.0000 -0.4773490393
N   N3        1.0  0.72850  0.50221  0.55960  1.0000 -0.4773490393
N   N4        1.0  0.77150  0.00221  0.44040  1.0000 -0.4773490393
N   N5        1.0  0.34360  0.55230  0.59490  1.0000 -0.4970481136
N   N6        1.0  0.15640  0.05230  0.40510  1.0000 -0.4970481136
N   N7        1.0  0.65640  0.44770  0.40510  1.0000 -0.4970481136
N   N8        1.0  0.84360  0.94770  0.59490  1.0000 -0.4970481136
N   N9        1.0  0.21450  0.50033  0.72710  1.0000 -0.4922615328
N   N10       1.0  0.28550  0.00033  0.27290  1.0000 -0.4922615328
N   N11       1.0  0.78550  0.49967  0.27290  1.0000 -0.4922615328
N   N12       1.0  0.71450  0.99967  0.72710  1.0000 -0.4922615328
N   N13       1.0  0.12880  0.44775  0.57000  1.0000 -0.4970481136
N   N14       1.0  0.37120  0.94775  0.43000  1.0000 -0.4970481136
N   N15       1.0  0.87120  0.55225  0.43000  1.0000 -0.4970481136
N   N16       1.0  0.62880  0.05225  0.57000  1.0000 -0.4970481136
O   O1        1.0  0.23500  0.69680  0.27740  1.0000 -0.5242475906
O   O2        1.0  0.26500  0.19680  0.72260  1.0000 -0.5242475906
O   O3        1.0  0.76500  0.30320  0.72260  1.0000 -0.5242475906
O   O4        1.0  0.73500  0.80320  0.27740  1.0000 -0.5242475906
O   O5        1.0  0.37440  0.70888  0.15790  1.0000 -0.6502050349
O   O6        1.0  0.12560  0.20888  0.84210  1.0000 -0.6502050349
O   O7        1.0  0.62560  0.29112  0.84210  1.0000 -0.6502050349
O   O8        1.0  0.87440  0.79112  0.15790  1.0000 -0.6502050349
O   O9        1.0  0.38020  0.69657  0.93460  1.0000 -0.6036704966
O   O10       1.0  0.11980  0.19657  0.06540  1.0000 -0.6036704966
O   O11       1.0  0.61980  0.30343  0.06540  1.0000 -0.6036704966
O   O12       1.0  0.88020  0.80343  0.93460  1.0000 -0.6036704966
O   O13       1.0  0.59200  0.69864  0.00150  1.0000 -0.6333187559
O   O14       1.0  0.90800  0.19864  0.99850  1.0000 -0.6333187559
O   O15       1.0  0.40800  0.30136  0.99850  1.0000 -0.6333187559
O   O16       1.0  0.09200  0.80136  0.00150  1.0000 -0.6333187559
O   O17       1.0  0.92520  0.29308  0.96130  1.0000 -0.6502050349
O   O18       1.0  0.57480  0.79308  0.03870  1.0000 -0.6502050349
O   O19       1.0  0.07480  0.70692  0.03870  1.0000 -0.6502050349
O   O20       1.0  0.42520  0.20692  0.96130  1.0000 -0.6502050349
O   O21       1.0  0.11660  0.30662  0.89030  1.0000 -0.5810928383
O   O22       1.0  0.38340  0.80662  0.10970  1.0000 -0.5810928383
O   O23       1.0  0.88340  0.69338  0.10970  1.0000 -0.5810928383
O   O24       1.0  0.61660  0.19338  0.89030  1.0000 -0.5810928383
O   O25       1.0  0.15380  0.28937  0.12350  1.0000 -0.6608455815
O   O26       1.0  0.34620  0.78937  0.87650  1.0000 -0.6608455815
O   O27       1.0  0.84620  0.71063  0.87650  1.0000 -0.6608455815
O   O28       1.0  0.65380  0.21063  0.12350  1.0000 -0.6608455815
O   O29       1.0  0.30720  0.29928  0.24640  1.0000 -0.4970481136
O   O30       1.0  0.19280  0.79928  0.75360  1.0000 -0.4970481136
O   O31       1.0  0.69280  0.70072  0.75360  1.0000 -0.4970481136
O   O32       1.0  0.80720  0.20072  0.24640  1.0000 -0.4970481136
