# DDEC6 charges by PACMAN v1.1 (https://github.com/mtap-research/PACMAN-charge/)
data_2007[Zn][pcu]3[ASR]5
_chemical_formula_sum              "Zn8 H24 C48 O26"
_cell_length_a       18.2486
_cell_length_b       18.2486
_cell_length_c       18.2486
_cell_angle_alpha    60
_cell_angle_beta     60
_cell_angle_gamma    60

_symmetry_space_group_name_H-M    "P 1"
_symmetry_Int_Tables_number       1

loop_
  _symmetry_equiv_pos_as_xyz
  'x, y, z'

loop_
  _atom_site_type_symbol
  _atom_site_label
  _atom_site_symmetry_multiplicity
  _atom_site_fract_x
  _atom_site_fract_y
  _atom_site_fract_z
  _atom_site_occupancy
  _atom_site_charge
Zn  Zn1       1.0  0.11962  0.29346  0.29346  1.0000 0.9774954651
Zn  Zn2       1.0  0.29346  0.11962  0.29346  1.0000 0.9774954651
Zn  Zn3       1.0  0.29346  0.29346  0.11962  1.0000 0.9744063153
Zn  Zn4       1.0  0.88038  0.70654  0.70654  1.0000 0.9774954651
Zn  Zn5       1.0  0.70654  0.70654  0.70654  1.0000 0.9774954651
Zn  Zn6       1.0  0.70654  0.70654  0.88038  1.0000 0.9774954651
Zn  Zn7       1.0  0.70654  0.88038  0.70654  1.0000 0.9774954651
Zn  Zn8       1.0  0.29346  0.29346  0.29346  1.0000 0.9744063153
H   H1        1.0  0.93660  0.15060  0.45640  1.0000 0.1330007635
H   H2        1.0  0.45640  0.93660  0.15060  1.0000 0.1330007635
H   H3        1.0  0.15060  0.45640  0.93660  1.0000 0.1330007635
H   H4        1.0  0.06340  0.84940  0.54360  1.0000 0.1330007635
H   H5        1.0  0.54360  0.54360  0.84940  1.0000 0.1330007635
H   H6        1.0  0.54360  0.54360  0.06340  1.0000 0.1330007635
H   H7        1.0  0.54360  0.06340  0.54360  1.0000 0.1330007635
H   H8        1.0  0.54360  0.84940  0.54360  1.0000 0.1330007635
H   H9        1.0  0.84940  0.54360  0.06340  1.0000 0.1330007635
H   H10       1.0  0.84940  0.54360  0.54360  1.0000 0.1330007635
H   H11       1.0  0.06340  0.54360  0.54360  1.0000 0.1330007635
H   H12       1.0  0.54360  0.06340  0.84940  1.0000 0.1330007635
H   H13       1.0  0.15060  0.93660  0.45640  1.0000 0.1330007635
H   H14       1.0  0.45640  0.45640  0.93660  1.0000 0.1330007635
H   H15       1.0  0.45640  0.45640  0.15060  1.0000 0.1330007635
H   H16       1.0  0.45640  0.15060  0.93660  1.0000 0.1330007635
H   H17       1.0  0.93660  0.45640  0.45640  1.0000 0.1330007635
H   H18       1.0  0.15060  0.45640  0.45640  1.0000 0.1330007635
H   H19       1.0  0.93660  0.45640  0.15060  1.0000 0.1330007635
H   H20       1.0  0.45640  0.93660  0.45640  1.0000 0.1330007635
H   H21       1.0  0.45640  0.15060  0.45640  1.0000 0.1330007635
H   H22       1.0  0.84940  0.06340  0.54360  1.0000 0.1330007635
H   H23       1.0  0.06340  0.54360  0.84940  1.0000 0.1330007635
H   H24       1.0  0.54360  0.84940  0.06340  1.0000 0.1330007635
C   C1        1.0  0.10970  0.10970  0.39030  1.0000 0.5745724971
C   C2        1.0  0.39030  0.10970  0.10970  1.0000 0.5745724971
C   C3        1.0  0.10970  0.39030  0.10970  1.0000 0.5745724971
C   C4        1.0  0.89030  0.89030  0.60970  1.0000 0.5781479413
C   C5        1.0  0.60970  0.60970  0.89030  1.0000 0.5781479413
C   C6        1.0  0.60970  0.89030  0.60970  1.0000 0.5781479413
C   C7        1.0  0.89030  0.60970  0.89030  1.0000 0.5781479413
C   C8        1.0  0.89030  0.60970  0.60970  1.0000 0.5781479413
C   C9        1.0  0.60970  0.89030  0.89030  1.0000 0.5781479413
C   C10       1.0  0.39030  0.39030  0.10970  1.0000 0.5745724971
C   C11       1.0  0.10970  0.39030  0.39030  1.0000 0.5745724971
C   C12       1.0  0.39030  0.10970  0.39030  1.0000 0.5745724971
C   C13       1.0  0.05390  0.05390  0.44610  1.0000 -0.0593463924
C   C14       1.0  0.44610  0.05390  0.05390  1.0000 -0.0593463924
C   C15       1.0  0.05390  0.44610  0.05390  1.0000 -0.0593463924
C   C16       1.0  0.94610  0.94610  0.55390  1.0000 -0.0593463924
C   C17       1.0  0.55390  0.55390  0.94610  1.0000 -0.0593463924
C   C18       1.0  0.55390  0.94610  0.55390  1.0000 -0.0593463924
C   C19       1.0  0.94610  0.55390  0.94610  1.0000 -0.0593463924
C   C20       1.0  0.94610  0.55390  0.55390  1.0000 -0.0593463924
C   C21       1.0  0.55390  0.94610  0.94610  1.0000 -0.0593463924
C   C22       1.0  0.44610  0.44610  0.05390  1.0000 -0.0593463924
C   C23       1.0  0.05390  0.44610  0.44610  1.0000 -0.0593463924
C   C24       1.0  0.44610  0.05390  0.44610  1.0000 -0.0593463924
C   C25       1.0  0.96350  0.08870  0.47390  1.0000 -0.0887701177
C   C26       1.0  0.47390  0.96350  0.08870  1.0000 -0.0887701177
C   C27       1.0  0.08870  0.47390  0.96350  1.0000 -0.0887701177
C   C28       1.0  0.03650  0.91130  0.52610  1.0000 -0.084298806
C   C29       1.0  0.52610  0.52610  0.91130  1.0000 -0.0887701177
C   C30       1.0  0.52610  0.52610  0.03650  1.0000 -0.084298806
C   C31       1.0  0.52610  0.03650  0.52610  1.0000 -0.084298806
C   C32       1.0  0.52610  0.91130  0.52610  1.0000 -0.084298806
C   C33       1.0  0.91130  0.52610  0.03650  1.0000 -0.084298806
C   C34       1.0  0.91130  0.52610  0.52610  1.0000 -0.084298806
C   C35       1.0  0.03650  0.52610  0.52610  1.0000 -0.0887701177
C   C36       1.0  0.52610  0.03650  0.91130  1.0000 -0.0887701177
C   C37       1.0  0.08870  0.96350  0.47390  1.0000 -0.0887701177
C   C38       1.0  0.47390  0.47390  0.96350  1.0000 -0.0887701177
C   C39       1.0  0.47390  0.47390  0.08870  1.0000 -0.0887701177
C   C40       1.0  0.47390  0.08870  0.96350  1.0000 -0.0887701177
C   C41       1.0  0.96350  0.47390  0.47390  1.0000 -0.0887701177
C   C42       1.0  0.08870  0.47390  0.47390  1.0000 -0.0887701177
C   C43       1.0  0.96350  0.47390  0.08870  1.0000 -0.084298806
C   C44       1.0  0.47390  0.96350  0.47390  1.0000 -0.0887701177
C   C45       1.0  0.47390  0.08870  0.47390  1.0000 -0.0887701177
C   C46       1.0  0.91130  0.03650  0.52610  1.0000 -0.084298806
C   C47       1.0  0.03650  0.52610  0.91130  1.0000 -0.0887701177
C   C48       1.0  0.52610  0.91130  0.03650  1.0000 -0.0887701177
O   O1        1.0  0.25000  0.25000  0.25000  1.0000 -1.0402560697
O   O2        1.0  0.75000  0.75000  0.75000  1.0000 -1.0402560697
O   O3        1.0  0.07060  0.19700  0.36620  1.0000 -0.5431143831
O   O4        1.0  0.36620  0.07060  0.19700  1.0000 -0.5431143831
O   O5        1.0  0.19700  0.36620  0.07060  1.0000 -0.5431143831
O   O6        1.0  0.92940  0.80300  0.63380  1.0000 -0.5431143831
O   O7        1.0  0.63380  0.63380  0.80300  1.0000 -0.5431143831
O   O8        1.0  0.63380  0.63380  0.92940  1.0000 -0.5431143831
O   O9        1.0  0.63380  0.92940  0.63380  1.0000 -0.5431143831
O   O10       1.0  0.63380  0.80300  0.63380  1.0000 -0.5431143831
O   O11       1.0  0.80300  0.63380  0.92940  1.0000 -0.5431143831
O   O12       1.0  0.80300  0.63380  0.63380  1.0000 -0.5431143831
O   O13       1.0  0.92940  0.63380  0.63380  1.0000 -0.5431143831
O   O14       1.0  0.63380  0.92940  0.80300  1.0000 -0.5431143831
O   O15       1.0  0.19700  0.07060  0.36620  1.0000 -0.5431143831
O   O16       1.0  0.36620  0.36620  0.07060  1.0000 -0.5431143831
O   O17       1.0  0.36620  0.36620  0.19700  1.0000 -0.5431143831
O   O18       1.0  0.36620  0.19700  0.07060  1.0000 -0.5431143831
O   O19       1.0  0.07060  0.36620  0.36620  1.0000 -0.5431143831
O   O20       1.0  0.19700  0.36620  0.36620  1.0000 -0.5431143831
O   O21       1.0  0.07060  0.36620  0.19700  1.0000 -0.5431143831
O   O22       1.0  0.36620  0.07060  0.36620  1.0000 -0.5431143831
O   O23       1.0  0.36620  0.19700  0.36620  1.0000 -0.5431143831
O   O24       1.0  0.80300  0.92940  0.63380  1.0000 -0.5431143831
O   O25       1.0  0.92940  0.63380  0.80300  1.0000 -0.5431143831
O   O26       1.0  0.63380  0.80300  0.92940  1.0000 -0.5431143831
