# DDEC6 charges by PACMAN v1.1 (https://github.com/mtap-research/PACMAN-charge/)
data_2007[Cd][nan]3[ASR]3
_chemical_formula_sum              "Cd12 H96 C168 O48"
_cell_length_a       9.0389
_cell_length_b       24.498
_cell_length_c       45.853
_cell_angle_alpha    90
_cell_angle_beta     90
_cell_angle_gamma    90

_symmetry_space_group_name_H-M    "P 1"
_symmetry_Int_Tables_number       1

loop_
  _symmetry_equiv_pos_as_xyz
  'x, y, z'

loop_
  _atom_site_type_symbol
  _atom_site_label
  _atom_site_symmetry_multiplicity
  _atom_site_fract_x
  _atom_site_fract_y
  _atom_site_fract_z
  _atom_site_occupancy
  _atom_site_charge
Cd  Cd1       1.0  0.91412  0.53713  0.85085  1.0000 1.0040263705
Cd  Cd2       1.0  0.41412  0.96287  0.64915  1.0000 1.0040263705
Cd  Cd3       1.0  0.58588  0.46287  0.85085  1.0000 1.0040263705
Cd  Cd4       1.0  0.08588  0.03713  0.64915  1.0000 1.0040263705
Cd  Cd5       1.0  0.08588  0.46287  0.14915  1.0000 1.0040263705
Cd  Cd6       1.0  0.58588  0.03713  0.35085  1.0000 1.0040263705
Cd  Cd7       1.0  0.41412  0.53713  0.14915  1.0000 1.0040263705
Cd  Cd8       1.0  0.91412  0.96287  0.35085  1.0000 1.0040263705
Cd  Cd9       1.0  0.25000  0.50000  0.81325  1.0000 1.052249121
Cd  Cd10      1.0  0.75000  0.00000  0.68675  1.0000 1.052249121
Cd  Cd11      1.0  0.75000  0.50000  0.18675  1.0000 1.052249121
Cd  Cd12      1.0  0.25000  0.00000  0.31325  1.0000 1.052249121
H   H1        1.0  0.98050  0.44540  0.75460  1.0000 0.1195561324
H   H2        1.0  0.96990  0.37480  0.72160  1.0000 0.1108303408
H   H3        1.0  0.77070  0.28340  0.78190  1.0000 0.1108303408
H   H4        1.0  0.78950  0.35210  0.81530  1.0000 0.1195561324
H   H5        1.0  0.04210  0.29090  0.70340  1.0000 0.1108303408
H   H6        1.0  0.04510  0.21310  0.67670  1.0000 0.1195561324
H   H7        1.0  0.67990  0.16110  0.71740  1.0000 0.1108303408
H   H8        1.0  0.67220  0.23970  0.74350  1.0000 0.1108303408
H   H9        1.0  0.44860  0.53420  0.91320  1.0000 0.1195561324
H   H10       1.0  0.44110  0.54090  0.96330  1.0000 0.1108303408
H   H11       1.0  0.16840  0.42510  0.00690  1.0000 0.1108303408
H   H12       1.0  0.18130  0.42810  0.05870  1.0000 0.1284765773
H   H13       1.0  0.48050  0.05460  0.74540  1.0000 0.1195561324
H   H14       1.0  0.46990  0.12520  0.77840  1.0000 0.1108303408
H   H15       1.0  0.27070  0.21660  0.71810  1.0000 0.1108303408
H   H16       1.0  0.28950  0.14790  0.68470  1.0000 0.1195561324
H   H17       1.0  0.54210  0.20910  0.79660  1.0000 0.1108303408
H   H18       1.0  0.54510  0.28690  0.82330  1.0000 0.1195561324
H   H19       1.0  0.17990  0.33890  0.78260  1.0000 0.1108303408
H   H20       1.0  0.17220  0.26030  0.75650  1.0000 0.1108303408
H   H21       1.0  0.94860  0.96580  0.58680  1.0000 0.1195561324
H   H22       1.0  0.94110  0.95910  0.53670  1.0000 0.1108303408
H   H23       1.0  0.66840  0.07490  0.49310  1.0000 0.1108303408
H   H24       1.0  0.68130  0.07190  0.44130  1.0000 0.1284765773
H   H25       1.0  0.51950  0.55460  0.75460  1.0000 0.1195561324
H   H26       1.0  0.53010  0.62520  0.72160  1.0000 0.1108303408
H   H27       1.0  0.72930  0.71660  0.78190  1.0000 0.1108303408
H   H28       1.0  0.71050  0.64790  0.81530  1.0000 0.1195561324
H   H29       1.0  0.45790  0.70910  0.70340  1.0000 0.1108303408
H   H30       1.0  0.45490  0.78690  0.67670  1.0000 0.1195561324
H   H31       1.0  0.82010  0.83890  0.71740  1.0000 0.1108303408
H   H32       1.0  0.82780  0.76030  0.74350  1.0000 0.1108303408
H   H33       1.0  0.05140  0.46580  0.91320  1.0000 0.1195561324
H   H34       1.0  0.05890  0.45910  0.96330  1.0000 0.1108303408
H   H35       1.0  0.33160  0.57490  0.00690  1.0000 0.1108303408
H   H36       1.0  0.31870  0.57190  0.05870  1.0000 0.1284765773
H   H37       1.0  0.01950  0.94540  0.74540  1.0000 0.1195561324
H   H38       1.0  0.03010  0.87480  0.77840  1.0000 0.1108303408
H   H39       1.0  0.22930  0.78340  0.71810  1.0000 0.1108303408
H   H40       1.0  0.21050  0.85210  0.68470  1.0000 0.1195561324
H   H41       1.0  0.95790  0.79090  0.79660  1.0000 0.1108303408
H   H42       1.0  0.95490  0.71310  0.82330  1.0000 0.1195561324
H   H43       1.0  0.32010  0.66110  0.78260  1.0000 0.1108303408
H   H44       1.0  0.32780  0.73970  0.75650  1.0000 0.1108303408
H   H45       1.0  0.55140  0.03420  0.58680  1.0000 0.1195561324
H   H46       1.0  0.55890  0.04090  0.53670  1.0000 0.1108303408
H   H47       1.0  0.83160  0.92510  0.49310  1.0000 0.1108303408
H   H48       1.0  0.81870  0.92810  0.44130  1.0000 0.1284765773
H   H49       1.0  0.01950  0.55460  0.24540  1.0000 0.1195561324
H   H50       1.0  0.03010  0.62520  0.27840  1.0000 0.1108303408
H   H51       1.0  0.22930  0.71660  0.21810  1.0000 0.1108303408
H   H52       1.0  0.21050  0.64790  0.18470  1.0000 0.1195561324
H   H53       1.0  0.95790  0.70910  0.29660  1.0000 0.1108303408
H   H54       1.0  0.95490  0.78690  0.32330  1.0000 0.1195561324
H   H55       1.0  0.32010  0.83890  0.28260  1.0000 0.1108303408
H   H56       1.0  0.32780  0.76030  0.25650  1.0000 0.1108303408
H   H57       1.0  0.55140  0.46580  0.08680  1.0000 0.1195561324
H   H58       1.0  0.55890  0.45910  0.03670  1.0000 0.1108303408
H   H59       1.0  0.83160  0.57490  0.99310  1.0000 0.1108303408
H   H60       1.0  0.81870  0.57190  0.94130  1.0000 0.1284765773
H   H61       1.0  0.51950  0.94540  0.25460  1.0000 0.1195561324
H   H62       1.0  0.53010  0.87480  0.22160  1.0000 0.1108303408
H   H63       1.0  0.72930  0.78340  0.28190  1.0000 0.1108303408
H   H64       1.0  0.71050  0.85210  0.31530  1.0000 0.1195561324
H   H65       1.0  0.45790  0.79090  0.20340  1.0000 0.1108303408
H   H66       1.0  0.45490  0.71310  0.17670  1.0000 0.1195561324
H   H67       1.0  0.82010  0.66110  0.21740  1.0000 0.1108303408
H   H68       1.0  0.82780  0.73970  0.24350  1.0000 0.1108303408
H   H69       1.0  0.05140  0.03420  0.41320  1.0000 0.1195561324
H   H70       1.0  0.05890  0.04090  0.46330  1.0000 0.1108303408
H   H71       1.0  0.33160  0.92510  0.50690  1.0000 0.1108303408
H   H72       1.0  0.31870  0.92810  0.55870  1.0000 0.1284765773
H   H73       1.0  0.48050  0.44540  0.24540  1.0000 0.1195561324
H   H74       1.0  0.46990  0.37480  0.27840  1.0000 0.1108303408
H   H75       1.0  0.27070  0.28340  0.21810  1.0000 0.1108303408
H   H76       1.0  0.28950  0.35210  0.18470  1.0000 0.1195561324
H   H77       1.0  0.54210  0.29090  0.29660  1.0000 0.1108303408
H   H78       1.0  0.54510  0.21310  0.32330  1.0000 0.1195561324
H   H79       1.0  0.17990  0.16110  0.28260  1.0000 0.1108303408
H   H80       1.0  0.17220  0.23970  0.25650  1.0000 0.1108303408
H   H81       1.0  0.94860  0.53420  0.08680  1.0000 0.1195561324
H   H82       1.0  0.94110  0.54090  0.03670  1.0000 0.1108303408
H   H83       1.0  0.66840  0.42510  0.99310  1.0000 0.1108303408
H   H84       1.0  0.68130  0.42810  0.94130  1.0000 0.1284765773
H   H85       1.0  0.98050  0.05460  0.25460  1.0000 0.1195561324
H   H86       1.0  0.96990  0.12520  0.22160  1.0000 0.1108303408
H   H87       1.0  0.77070  0.21660  0.28190  1.0000 0.1108303408
H   H88       1.0  0.78950  0.14790  0.31530  1.0000 0.1195561324
H   H89       1.0  0.04210  0.20910  0.20340  1.0000 0.1108303408
H   H90       1.0  0.04510  0.28690  0.17670  1.0000 0.1195561324
H   H91       1.0  0.67990  0.33890  0.21740  1.0000 0.1108303408
H   H92       1.0  0.67220  0.26030  0.24350  1.0000 0.1108303408
H   H93       1.0  0.44860  0.96580  0.41320  1.0000 0.1195561324
H   H94       1.0  0.44110  0.95910  0.46330  1.0000 0.1108303408
H   H95       1.0  0.16840  0.07490  0.50690  1.0000 0.1108303408
H   H96       1.0  0.18130  0.07190  0.55870  1.0000 0.1284765773
C   C1        1.0  0.90080  0.45103  0.81012  1.0000 0.5908029649
C   C2        1.0  0.88640  0.40775  0.78856  1.0000 -0.0584499515
C   C3        1.0  0.93870  0.41240  0.76036  1.0000 -0.0890913068
C   C4        1.0  0.93190  0.37033  0.74028  1.0000 -0.1513776188
C   C5        1.0  0.86720  0.32138  0.74857  1.0000 0.0727758095
C   C6        1.0  0.81460  0.31617  0.77642  1.0000 -0.1513776188
C   C7        1.0  0.82430  0.35741  0.79639  1.0000 -0.0890913068
C   C8        1.0  0.86290  0.27385  0.72792  1.0000 0.0727758095
C   C9        1.0  0.97010  0.26450  0.70671  1.0000 -0.1622922007
C   C10       1.0  0.97210  0.21785  0.69077  1.0000 -0.0993914693
C   C11       1.0  0.86820  0.17735  0.69501  1.0000 -0.0312575061
C   C12       1.0  0.75400  0.18705  0.71493  1.0000 -0.0890913068
C   C13       1.0  0.75010  0.23372  0.73066  1.0000 -0.1513776188
C   C14       1.0  0.88180  0.12185  0.68089  1.0000 0.5833140485
C   C15       1.0  0.36670  0.52118  0.92326  1.0000 -0.0993914693
C   C16       1.0  0.36490  0.52350  0.95330  1.0000 -0.141972465
C   C17       1.0  0.20330  0.45620  0.01628  1.0000 -0.1513776188
C   C18       1.0  0.21040  0.46000  0.04935  1.0000 -0.1302685547
C   C19       1.0  0.40080  0.04897  0.68988  1.0000 0.5908029649
C   C20       1.0  0.38640  0.09225  0.71144  1.0000 -0.0584499515
C   C21       1.0  0.43870  0.08760  0.73964  1.0000 -0.0890913068
C   C22       1.0  0.43190  0.12967  0.75972  1.0000 -0.1513776188
C   C23       1.0  0.36720  0.17862  0.75143  1.0000 0.0727758095
C   C24       1.0  0.31460  0.18383  0.72358  1.0000 -0.1513776188
C   C25       1.0  0.32430  0.14259  0.70361  1.0000 -0.0890913068
C   C26       1.0  0.36290  0.22615  0.77208  1.0000 0.0727758095
C   C27       1.0  0.47010  0.23550  0.79329  1.0000 -0.1622922007
C   C28       1.0  0.47210  0.28215  0.80923  1.0000 -0.0993914693
C   C29       1.0  0.36820  0.32265  0.80499  1.0000 -0.0312575061
C   C30       1.0  0.25400  0.31295  0.78507  1.0000 -0.0890913068
C   C31       1.0  0.25010  0.26628  0.76934  1.0000 -0.1513776188
C   C32       1.0  0.38180  0.37815  0.81911  1.0000 0.5833140485
C   C33       1.0  0.86670  0.97882  0.57674  1.0000 -0.0993914693
C   C34       1.0  0.86490  0.97650  0.54670  1.0000 -0.141972465
C   C35       1.0  0.70330  0.04380  0.48372  1.0000 -0.1513776188
C   C36       1.0  0.71040  0.04000  0.45065  1.0000 -0.1302685547
C   C37       1.0  0.59920  0.54897  0.81012  1.0000 0.5908029649
C   C38       1.0  0.61360  0.59225  0.78856  1.0000 -0.0584499515
C   C39       1.0  0.56130  0.58760  0.76036  1.0000 -0.0890913068
C   C40       1.0  0.56810  0.62967  0.74028  1.0000 -0.1513776188
C   C41       1.0  0.63280  0.67862  0.74857  1.0000 0.0727758095
C   C42       1.0  0.68540  0.68383  0.77642  1.0000 -0.1513776188
C   C43       1.0  0.67570  0.64259  0.79639  1.0000 -0.0890913068
C   C44       1.0  0.63710  0.72615  0.72792  1.0000 0.0727758095
C   C45       1.0  0.52990  0.73550  0.70671  1.0000 -0.1622922007
C   C46       1.0  0.52790  0.78215  0.69077  1.0000 -0.0993914693
C   C47       1.0  0.63180  0.82265  0.69501  1.0000 -0.0312575061
C   C48       1.0  0.74600  0.81295  0.71493  1.0000 -0.0890913068
C   C49       1.0  0.74990  0.76628  0.73066  1.0000 -0.1513776188
C   C50       1.0  0.61820  0.87815  0.68089  1.0000 0.5833140485
C   C51       1.0  0.13330  0.47882  0.92326  1.0000 -0.0993914693
C   C52       1.0  0.13510  0.47650  0.95330  1.0000 -0.141972465
C   C53       1.0  0.29670  0.54380  0.01628  1.0000 -0.1513776188
C   C54       1.0  0.28960  0.54000  0.04935  1.0000 -0.1302685547
C   C55       1.0  0.09920  0.95103  0.68988  1.0000 0.5908029649
C   C56       1.0  0.11360  0.90775  0.71144  1.0000 -0.0584499515
C   C57       1.0  0.06130  0.91240  0.73964  1.0000 -0.0890913068
C   C58       1.0  0.06810  0.87033  0.75972  1.0000 -0.1513776188
C   C59       1.0  0.13280  0.82138  0.75143  1.0000 0.0727758095
C   C60       1.0  0.18540  0.81617  0.72358  1.0000 -0.1513776188
C   C61       1.0  0.17570  0.85741  0.70361  1.0000 -0.0890913068
C   C62       1.0  0.13710  0.77385  0.77208  1.0000 0.0727758095
C   C63       1.0  0.02990  0.76450  0.79329  1.0000 -0.1622922007
C   C64       1.0  0.02790  0.71785  0.80923  1.0000 -0.0993914693
C   C65       1.0  0.13180  0.67735  0.80499  1.0000 -0.0312575061
C   C66       1.0  0.24600  0.68705  0.78507  1.0000 -0.0890913068
C   C67       1.0  0.24990  0.73372  0.76934  1.0000 -0.1513776188
C   C68       1.0  0.11820  0.62185  0.81911  1.0000 0.5833140485
C   C69       1.0  0.63330  0.02118  0.57674  1.0000 -0.0993914693
C   C70       1.0  0.63510  0.02350  0.54670  1.0000 -0.141972465
C   C71       1.0  0.79670  0.95620  0.48372  1.0000 -0.1513776188
C   C72       1.0  0.78960  0.96000  0.45065  1.0000 -0.1302685547
C   C73       1.0  0.09920  0.54897  0.18988  1.0000 0.5908029649
C   C74       1.0  0.11360  0.59225  0.21144  1.0000 -0.0584499515
C   C75       1.0  0.06130  0.58760  0.23964  1.0000 -0.0890913068
C   C76       1.0  0.06810  0.62967  0.25972  1.0000 -0.1513776188
C   C77       1.0  0.13280  0.67862  0.25143  1.0000 0.0727758095
C   C78       1.0  0.18540  0.68383  0.22358  1.0000 -0.1513776188
C   C79       1.0  0.17570  0.64259  0.20361  1.0000 -0.0890913068
C   C80       1.0  0.13710  0.72615  0.27208  1.0000 0.0727758095
C   C81       1.0  0.02990  0.73550  0.29329  1.0000 -0.1622922007
C   C82       1.0  0.02790  0.78215  0.30923  1.0000 -0.0993914693
C   C83       1.0  0.13180  0.82265  0.30499  1.0000 -0.0312575061
C   C84       1.0  0.24600  0.81295  0.28507  1.0000 -0.0890913068
C   C85       1.0  0.24990  0.76628  0.26934  1.0000 -0.1513776188
C   C86       1.0  0.11820  0.87815  0.31911  1.0000 0.5833140485
C   C87       1.0  0.63330  0.47882  0.07674  1.0000 -0.0993914693
C   C88       1.0  0.63510  0.47650  0.04670  1.0000 -0.141972465
C   C89       1.0  0.79670  0.54380  0.98372  1.0000 -0.1513776188
C   C90       1.0  0.78960  0.54000  0.95065  1.0000 -0.1302685547
C   C91       1.0  0.59920  0.95103  0.31012  1.0000 0.5908029649
C   C92       1.0  0.61360  0.90775  0.28856  1.0000 -0.0584499515
C   C93       1.0  0.56130  0.91240  0.26036  1.0000 -0.0890913068
C   C94       1.0  0.56810  0.87033  0.24028  1.0000 -0.1513776188
C   C95       1.0  0.63280  0.82138  0.24857  1.0000 0.0727758095
C   C96       1.0  0.68540  0.81617  0.27642  1.0000 -0.1513776188
C   C97       1.0  0.67570  0.85741  0.29639  1.0000 -0.0890913068
C   C98       1.0  0.63710  0.77385  0.22792  1.0000 0.0727758095
C   C99       1.0  0.52990  0.76450  0.20671  1.0000 -0.1622922007
C   C100      1.0  0.52790  0.71785  0.19077  1.0000 -0.0993914693
C   C101      1.0  0.63180  0.67735  0.19501  1.0000 -0.0312575061
C   C102      1.0  0.74600  0.68705  0.21493  1.0000 -0.0890913068
C   C103      1.0  0.74990  0.73372  0.23066  1.0000 -0.1513776188
C   C104      1.0  0.61820  0.62185  0.18089  1.0000 0.5833140485
C   C105      1.0  0.13330  0.02118  0.42326  1.0000 -0.0993914693
C   C106      1.0  0.13510  0.02350  0.45330  1.0000 -0.141972465
C   C107      1.0  0.29670  0.95620  0.51628  1.0000 -0.1513776188
C   C108      1.0  0.28960  0.96000  0.54935  1.0000 -0.1302685547
C   C109      1.0  0.40080  0.45103  0.18988  1.0000 0.5908029649
C   C110      1.0  0.38640  0.40775  0.21144  1.0000 -0.0584499515
C   C111      1.0  0.43870  0.41240  0.23964  1.0000 -0.0890913068
C   C112      1.0  0.43190  0.37033  0.25972  1.0000 -0.1513776188
C   C113      1.0  0.36720  0.32138  0.25143  1.0000 0.0727758095
C   C114      1.0  0.31460  0.31617  0.22358  1.0000 -0.1513776188
C   C115      1.0  0.32430  0.35741  0.20361  1.0000 -0.0890913068
C   C116      1.0  0.36290  0.27385  0.27208  1.0000 0.0727758095
C   C117      1.0  0.47010  0.26450  0.29329  1.0000 -0.1622922007
C   C118      1.0  0.47210  0.21785  0.30923  1.0000 -0.0993914693
C   C119      1.0  0.36820  0.17735  0.30499  1.0000 -0.0312575061
C   C120      1.0  0.25400  0.18705  0.28507  1.0000 -0.0890913068
C   C121      1.0  0.25010  0.23372  0.26934  1.0000 -0.1513776188
C   C122      1.0  0.38180  0.12185  0.31911  1.0000 0.5833140485
C   C123      1.0  0.86670  0.52118  0.07674  1.0000 -0.0993914693
C   C124      1.0  0.86490  0.52350  0.04670  1.0000 -0.141972465
C   C125      1.0  0.70330  0.45620  0.98372  1.0000 -0.1513776188
C   C126      1.0  0.71040  0.46000  0.95065  1.0000 -0.1302685547
C   C127      1.0  0.90080  0.04897  0.31012  1.0000 0.5908029649
C   C128      1.0  0.88640  0.09225  0.28856  1.0000 -0.0584499515
C   C129      1.0  0.93870  0.08760  0.26036  1.0000 -0.0890913068
C   C130      1.0  0.93190  0.12967  0.24028  1.0000 -0.1513776188
C   C131      1.0  0.86720  0.17862  0.24857  1.0000 0.0727758095
C   C132      1.0  0.81460  0.18383  0.27642  1.0000 -0.1513776188
C   C133      1.0  0.82430  0.14259  0.29639  1.0000 -0.0890913068
C   C134      1.0  0.86290  0.22615  0.22792  1.0000 0.0727758095
C   C135      1.0  0.97010  0.23550  0.20671  1.0000 -0.1622922007
C   C136      1.0  0.97210  0.28215  0.19077  1.0000 -0.0993914693
C   C137      1.0  0.86820  0.32265  0.19501  1.0000 -0.0312575061
C   C138      1.0  0.75400  0.31295  0.21493  1.0000 -0.0890913068
C   C139      1.0  0.75010  0.26628  0.23066  1.0000 -0.1513776188
C   C140      1.0  0.88180  0.37815  0.18089  1.0000 0.5833140485
C   C141      1.0  0.36670  0.97882  0.42326  1.0000 -0.0993914693
C   C142      1.0  0.36490  0.97650  0.45330  1.0000 -0.141972465
C   C143      1.0  0.20330  0.04380  0.51628  1.0000 -0.1513776188
C   C144      1.0  0.21040  0.04000  0.54935  1.0000 -0.1302685547
C   C145      1.0  0.25000  0.50000  0.87511  1.0000 0.5908029649
C   C146      1.0  0.25000  0.50000  0.90806  1.0000 -0.0312575061
C   C147      1.0  0.25000  0.50000  0.96857  1.0000 0.0797599055
C   C148      1.0  0.25000  0.50000  0.00122  1.0000 0.0609145932
C   C149      1.0  0.25000  0.50000  0.06799  1.0000 -0.0190032279
C   C150      1.0  0.25000  0.50000  0.10201  1.0000 0.5456017428
C   C151      1.0  0.75000  0.00000  0.62489  1.0000 0.5908029649
C   C152      1.0  0.75000  0.00000  0.59194  1.0000 -0.0312575061
C   C153      1.0  0.75000  0.00000  0.53143  1.0000 0.0797599055
C   C154      1.0  0.75000  0.00000  0.49878  1.0000 0.0609145932
C   C155      1.0  0.75000  0.00000  0.43201  1.0000 -0.0190032279
C   C156      1.0  0.75000  0.00000  0.39799  1.0000 0.5456017428
C   C157      1.0  0.75000  0.50000  0.12489  1.0000 0.5908029649
C   C158      1.0  0.75000  0.50000  0.09194  1.0000 -0.0312575061
C   C159      1.0  0.75000  0.50000  0.03143  1.0000 0.0797599055
C   C160      1.0  0.75000  0.50000  0.99878  1.0000 0.0609145932
C   C161      1.0  0.75000  0.50000  0.93201  1.0000 -0.0190032279
C   C162      1.0  0.75000  0.50000  0.89799  1.0000 0.5456017428
C   C163      1.0  0.25000  0.00000  0.37511  1.0000 0.5908029649
C   C164      1.0  0.25000  0.00000  0.40806  1.0000 -0.0312575061
C   C165      1.0  0.25000  0.00000  0.46857  1.0000 0.0797599055
C   C166      1.0  0.25000  0.00000  0.50122  1.0000 0.0609145932
C   C167      1.0  0.25000  0.00000  0.56799  1.0000 -0.0190032279
C   C168      1.0  0.25000  0.00000  0.60201  1.0000 0.5456017428
O   O1        1.0  0.98280  0.49269  0.80454  1.0000 -0.5926310547
O   O2        1.0  0.82960  0.44856  0.83393  1.0000 -0.5801674701
O   O3        1.0  0.99610  0.11371  0.66604  1.0000 -0.5447490342
O   O4        1.0  0.78150  0.08948  0.68509  1.0000 -0.5321707852
O   O5        1.0  0.13140  0.49131  0.86162  1.0000 -0.566667033
O   O6        1.0  0.17610  0.46000  0.10520  1.0000 -0.4335489027
O   O7        1.0  0.48280  0.00731  0.69546  1.0000 -0.5926310547
O   O8        1.0  0.32960  0.05144  0.66607  1.0000 -0.5801674701
O   O9        1.0  0.49610  0.38629  0.83396  1.0000 -0.5447490342
O   O10       1.0  0.28150  0.41052  0.81491  1.0000 -0.5321707852
O   O11       1.0  0.63140  0.00869  0.63838  1.0000 -0.566667033
O   O12       1.0  0.67610  0.04000  0.39480  1.0000 -0.4335489027
O   O13       1.0  0.51720  0.50731  0.80454  1.0000 -0.5926310547
O   O14       1.0  0.67040  0.55144  0.83393  1.0000 -0.5801674701
O   O15       1.0  0.50390  0.88629  0.66604  1.0000 -0.5447490342
O   O16       1.0  0.71850  0.91052  0.68509  1.0000 -0.5321707852
O   O17       1.0  0.36860  0.50869  0.86162  1.0000 -0.566667033
O   O18       1.0  0.32390  0.54000  0.10520  1.0000 -0.4335489027
O   O19       1.0  0.01720  0.99269  0.69546  1.0000 -0.5926310547
O   O20       1.0  0.17040  0.94856  0.66607  1.0000 -0.5801674701
O   O21       1.0  0.00390  0.61371  0.83396  1.0000 -0.5447490342
O   O22       1.0  0.21850  0.58948  0.81491  1.0000 -0.5321707852
O   O23       1.0  0.86860  0.99131  0.63838  1.0000 -0.566667033
O   O24       1.0  0.82390  0.96000  0.39480  1.0000 -0.4335489027
O   O25       1.0  0.01720  0.50731  0.19546  1.0000 -0.5926310547
O   O26       1.0  0.17040  0.55144  0.16607  1.0000 -0.5801674701
O   O27       1.0  0.00390  0.88629  0.33396  1.0000 -0.5447490342
O   O28       1.0  0.21850  0.91052  0.31491  1.0000 -0.5321707852
O   O29       1.0  0.86860  0.50869  0.13838  1.0000 -0.566667033
O   O30       1.0  0.82390  0.54000  0.89480  1.0000 -0.4335489027
O   O31       1.0  0.51720  0.99269  0.30454  1.0000 -0.5926310547
O   O32       1.0  0.67040  0.94856  0.33393  1.0000 -0.5801674701
O   O33       1.0  0.50390  0.61371  0.16604  1.0000 -0.5447490342
O   O34       1.0  0.71850  0.58948  0.18509  1.0000 -0.5321707852
O   O35       1.0  0.36860  0.99131  0.36162  1.0000 -0.566667033
O   O36       1.0  0.32390  0.96000  0.60520  1.0000 -0.4335489027
O   O37       1.0  0.48280  0.49269  0.19546  1.0000 -0.5926310547
O   O38       1.0  0.32960  0.44856  0.16607  1.0000 -0.5801674701
O   O39       1.0  0.49610  0.11371  0.33396  1.0000 -0.5447490342
O   O40       1.0  0.28150  0.08948  0.31491  1.0000 -0.5321707852
O   O41       1.0  0.63140  0.49131  0.13838  1.0000 -0.566667033
O   O42       1.0  0.67610  0.46000  0.89480  1.0000 -0.4335489027
O   O43       1.0  0.98280  0.00731  0.30454  1.0000 -0.5926310547
O   O44       1.0  0.82960  0.05144  0.33393  1.0000 -0.5801674701
O   O45       1.0  0.99610  0.38629  0.16604  1.0000 -0.5447490342
O   O46       1.0  0.78150  0.41052  0.18509  1.0000 -0.5321707852
O   O47       1.0  0.13140  0.00869  0.36162  1.0000 -0.566667033
O   O48       1.0  0.17610  0.04000  0.60520  1.0000 -0.4335489027
