# DDEC6 charges by PACMAN v1.1 (https://github.com/mtap-research/PACMAN-charge/)
data_2007[Cu][nbo]3[ASR]2
_chemical_formula_sum              "Cu12 H84 C180 O48"
_cell_length_a       27.7826
_cell_length_b       27.7826
_cell_length_c       27.7826
_cell_angle_alpha    38.7922
_cell_angle_beta     38.7922
_cell_angle_gamma    38.7922

_symmetry_space_group_name_H-M    "P 1"
_symmetry_Int_Tables_number       1

loop_
  _symmetry_equiv_pos_as_xyz
  'x, y, z'

loop_
  _atom_site_type_symbol
  _atom_site_label
  _atom_site_symmetry_multiplicity
  _atom_site_fract_x
  _atom_site_fract_y
  _atom_site_fract_z
  _atom_site_occupancy
  _atom_site_charge
Cu  Cu1       1.0  0.78383  0.20279  0.22113  1.0000 0.8642560118
Cu  Cu2       1.0  0.20279  0.22113  0.78383  1.0000 0.8642560118
Cu  Cu3       1.0  0.22113  0.78383  0.20279  1.0000 0.8642560118
Cu  Cu4       1.0  0.71617  0.27887  0.29721  1.0000 0.8642560118
Cu  Cu5       1.0  0.29721  0.71617  0.27887  1.0000 0.8642560118
Cu  Cu6       1.0  0.27887  0.29721  0.71617  1.0000 0.8642560118
Cu  Cu7       1.0  0.21617  0.79721  0.77887  1.0000 0.8642560118
Cu  Cu8       1.0  0.79721  0.77887  0.21617  1.0000 0.8642560118
Cu  Cu9       1.0  0.77887  0.21617  0.79721  1.0000 0.8642560118
Cu  Cu10      1.0  0.28383  0.72113  0.70279  1.0000 0.8642560118
Cu  Cu11      1.0  0.70279  0.28383  0.72113  1.0000 0.8642560118
Cu  Cu12      1.0  0.72113  0.70279  0.28383  1.0000 0.8642560118
H   H1        1.0  0.41230  0.61670  0.08890  1.0000 0.1301349003
H   H2        1.0  0.61670  0.08890  0.41230  1.0000 0.1301349003
H   H3        1.0  0.08890  0.41230  0.61670  1.0000 0.1301349003
H   H4        1.0  0.08770  0.41110  0.88330  1.0000 0.1301349003
H   H5        1.0  0.88330  0.08770  0.41110  1.0000 0.1301349003
H   H6        1.0  0.41110  0.88330  0.08770  1.0000 0.1301349003
H   H7        1.0  0.58770  0.38330  0.91110  1.0000 0.1301349003
H   H8        1.0  0.38330  0.91110  0.58770  1.0000 0.1301349003
H   H9        1.0  0.91110  0.58770  0.38330  1.0000 0.1301349003
H   H10       1.0  0.91230  0.58890  0.11670  1.0000 0.1301349003
H   H11       1.0  0.11670  0.91230  0.58890  1.0000 0.1301349003
H   H12       1.0  0.58890  0.11670  0.91230  1.0000 0.1301349003
H   H13       1.0  0.62270  0.39150  0.10040  1.0000 0.1301349003
H   H14       1.0  0.39150  0.10040  0.62270  1.0000 0.1301349003
H   H15       1.0  0.10040  0.62270  0.39150  1.0000 0.1301349003
H   H16       1.0  0.87730  0.39960  0.10850  1.0000 0.1301349003
H   H17       1.0  0.10850  0.87730  0.39960  1.0000 0.1301349003
H   H18       1.0  0.39960  0.10850  0.87730  1.0000 0.1301349003
H   H19       1.0  0.37730  0.60850  0.89960  1.0000 0.1301349003
H   H20       1.0  0.60850  0.89960  0.37730  1.0000 0.1301349003
H   H21       1.0  0.89960  0.37730  0.60850  1.0000 0.1301349003
H   H22       1.0  0.12270  0.60040  0.89150  1.0000 0.1301349003
H   H23       1.0  0.89150  0.12270  0.60040  1.0000 0.1301349003
H   H24       1.0  0.60040  0.89150  0.12270  1.0000 0.1301349003
H   H25       1.0  0.52360  0.51160  0.20990  1.0000 0.1434045408
H   H26       1.0  0.51160  0.20990  0.52360  1.0000 0.1434045408
H   H27       1.0  0.20990  0.52360  0.51160  1.0000 0.1434045408
H   H28       1.0  0.97640  0.29010  0.98840  1.0000 0.1434045408
H   H29       1.0  0.98840  0.97640  0.29010  1.0000 0.1434045408
H   H30       1.0  0.29010  0.98840  0.97640  1.0000 0.1434045408
H   H31       1.0  0.47640  0.48840  0.79010  1.0000 0.1434045408
H   H32       1.0  0.48840  0.79010  0.47640  1.0000 0.1434045408
H   H33       1.0  0.79010  0.47640  0.48840  1.0000 0.1434045408
H   H34       1.0  0.02360  0.70990  0.01160  1.0000 0.1434045408
H   H35       1.0  0.01160  0.02360  0.70990  1.0000 0.1434045408
H   H36       1.0  0.70990  0.01160  0.02360  1.0000 0.1434045408
H   H37       1.0  0.56110  0.61870  0.93510  1.0000 0.115578986
H   H38       1.0  0.61870  0.93510  0.56110  1.0000 0.115578986
H   H39       1.0  0.93510  0.56110  0.61870  1.0000 0.115578986
H   H40       1.0  0.93890  0.56490  0.88130  1.0000 0.115578986
H   H41       1.0  0.88130  0.93890  0.56490  1.0000 0.115578986
H   H42       1.0  0.56490  0.88130  0.93890  1.0000 0.115578986
H   H43       1.0  0.43890  0.38130  0.06490  1.0000 0.115578986
H   H44       1.0  0.38130  0.06490  0.43890  1.0000 0.115578986
H   H45       1.0  0.06490  0.43890  0.38130  1.0000 0.115578986
H   H46       1.0  0.06110  0.43510  0.11870  1.0000 0.115578986
H   H47       1.0  0.11870  0.06110  0.43510  1.0000 0.115578986
H   H48       1.0  0.43510  0.11870  0.06110  1.0000 0.115578986
H   H49       1.0  0.47600  0.38110  0.20230  1.0000 0.1119104347
H   H50       1.0  0.38110  0.20230  0.47600  1.0000 0.1119104347
H   H51       1.0  0.20230  0.47600  0.38110  1.0000 0.1119104347
H   H52       1.0  0.02400  0.29770  0.11890  1.0000 0.1119104347
H   H53       1.0  0.11890  0.02400  0.29770  1.0000 0.1119104347
H   H54       1.0  0.29770  0.11890  0.02400  1.0000 0.1119104347
H   H55       1.0  0.52400  0.61890  0.79770  1.0000 0.1119104347
H   H56       1.0  0.61890  0.79770  0.52400  1.0000 0.1119104347
H   H57       1.0  0.79770  0.52400  0.61890  1.0000 0.1119104347
H   H58       1.0  0.97600  0.70230  0.88110  1.0000 0.1119104347
H   H59       1.0  0.88110  0.97600  0.70230  1.0000 0.1119104347
H   H60       1.0  0.70230  0.88110  0.97600  1.0000 0.1119104347
H   H61       1.0  0.58540  0.71220  0.79570  1.0000 0.115578986
H   H62       1.0  0.71220  0.79570  0.58540  1.0000 0.115578986
H   H63       1.0  0.79570  0.58540  0.71220  1.0000 0.115578986
H   H64       1.0  0.91460  0.70430  0.78780  1.0000 0.115578986
H   H65       1.0  0.78780  0.91460  0.70430  1.0000 0.115578986
H   H66       1.0  0.70430  0.78780  0.91460  1.0000 0.115578986
H   H67       1.0  0.41460  0.28780  0.20430  1.0000 0.115578986
H   H68       1.0  0.28780  0.20430  0.41460  1.0000 0.115578986
H   H69       1.0  0.20430  0.41460  0.28780  1.0000 0.115578986
H   H70       1.0  0.08540  0.29570  0.21220  1.0000 0.115578986
H   H71       1.0  0.21220  0.08540  0.29570  1.0000 0.115578986
H   H72       1.0  0.29570  0.21220  0.08540  1.0000 0.115578986
H   H73       1.0  0.43580  0.28580  0.27300  1.0000 0.1119104347
H   H74       1.0  0.28580  0.27300  0.43580  1.0000 0.1119104347
H   H75       1.0  0.27300  0.43580  0.28580  1.0000 0.1119104347
H   H76       1.0  0.06420  0.22700  0.21420  1.0000 0.1119104347
H   H77       1.0  0.21420  0.06420  0.22700  1.0000 0.1119104347
H   H78       1.0  0.22700  0.21420  0.06420  1.0000 0.1119104347
H   H79       1.0  0.56420  0.71420  0.72700  1.0000 0.1119104347
H   H80       1.0  0.71420  0.72700  0.56420  1.0000 0.1119104347
H   H81       1.0  0.72700  0.56420  0.71420  1.0000 0.1119104347
H   H82       1.0  0.93580  0.77300  0.78580  1.0000 0.1119104347
H   H83       1.0  0.78580  0.93580  0.77300  1.0000 0.1119104347
H   H84       1.0  0.77300  0.78580  0.93580  1.0000 0.1119104347
C   C1        1.0  0.38725  0.64248  0.18159  1.0000 0.5801512474
C   C2        1.0  0.64248  0.18159  0.38725  1.0000 0.5801512474
C   C3        1.0  0.18159  0.38725  0.64248  1.0000 0.5801512474
C   C4        1.0  0.11275  0.31841  0.85752  1.0000 0.5801512474
C   C5        1.0  0.85752  0.11275  0.31841  1.0000 0.5801512474
C   C6        1.0  0.31841  0.85752  0.11275  1.0000 0.5801512474
C   C7        1.0  0.61275  0.35752  0.81841  1.0000 0.5801512474
C   C8        1.0  0.35752  0.81841  0.61275  1.0000 0.5801512474
C   C9        1.0  0.81841  0.61275  0.35752  1.0000 0.5801512474
C   C10       1.0  0.88725  0.68159  0.14248  1.0000 0.5801512474
C   C11       1.0  0.14248  0.88725  0.68159  1.0000 0.5801512474
C   C12       1.0  0.68159  0.14248  0.88725  1.0000 0.5801512474
C   C13       1.0  0.51728  0.50354  0.08703  1.0000 0.0693226356
C   C14       1.0  0.50354  0.08703  0.51728  1.0000 0.0693226356
C   C15       1.0  0.08703  0.51728  0.50354  1.0000 0.0693226356
C   C16       1.0  0.98272  0.41297  0.99646  1.0000 0.0693226356
C   C17       1.0  0.99646  0.98272  0.41297  1.0000 0.0693226356
C   C18       1.0  0.41297  0.99646  0.98272  1.0000 0.0693226356
C   C19       1.0  0.48272  0.49646  0.91297  1.0000 0.0693226356
C   C20       1.0  0.49646  0.91297  0.48272  1.0000 0.0693226356
C   C21       1.0  0.91297  0.48272  0.49646  1.0000 0.0693226356
C   C22       1.0  0.01728  0.58703  0.00354  1.0000 0.0693226356
C   C23       1.0  0.00354  0.01728  0.58703  1.0000 0.0693226356
C   C24       1.0  0.58703  0.00354  0.01728  1.0000 0.0693226356
C   C25       1.0  0.64820  0.36646  0.19414  1.0000 0.5801512474
C   C26       1.0  0.36646  0.19414  0.64820  1.0000 0.5801512474
C   C27       1.0  0.19414  0.64820  0.36646  1.0000 0.5801512474
C   C28       1.0  0.85180  0.30586  0.13354  1.0000 0.5801512474
C   C29       1.0  0.13354  0.85180  0.30586  1.0000 0.5801512474
C   C30       1.0  0.30586  0.13354  0.85180  1.0000 0.5801512474
C   C31       1.0  0.35180  0.63354  0.80586  1.0000 0.5801512474
C   C32       1.0  0.63354  0.80586  0.35180  1.0000 0.5801512474
C   C33       1.0  0.80586  0.35180  0.63354  1.0000 0.5801512474
C   C34       1.0  0.14820  0.69414  0.86646  1.0000 0.5801512474
C   C35       1.0  0.86646  0.14820  0.69414  1.0000 0.5801512474
C   C36       1.0  0.69414  0.86646  0.14820  1.0000 0.5801512474
C   C37       1.0  0.45631  0.57141  0.10689  1.0000 -0.1424186277
C   C38       1.0  0.57141  0.10689  0.45631  1.0000 -0.1424186277
C   C39       1.0  0.10689  0.45631  0.57141  1.0000 -0.1424186277
C   C40       1.0  0.04369  0.39311  0.92859  1.0000 -0.1498309069
C   C41       1.0  0.92859  0.04369  0.39311  1.0000 -0.1424186277
C   C42       1.0  0.39311  0.92859  0.04369  1.0000 -0.1424186277
C   C43       1.0  0.54369  0.42859  0.89311  1.0000 -0.1424186277
C   C44       1.0  0.42859  0.89311  0.54369  1.0000 -0.1498309069
C   C45       1.0  0.89311  0.54369  0.42859  1.0000 -0.1498309069
C   C46       1.0  0.95631  0.60689  0.07141  1.0000 -0.1424186277
C   C47       1.0  0.07141  0.95631  0.60689  1.0000 -0.1424186277
C   C48       1.0  0.60689  0.07141  0.95631  1.0000 -0.1424186277
C   C49       1.0  0.48538  0.44087  0.08656  1.0000 0.036586811
C   C50       1.0  0.44087  0.08656  0.48538  1.0000 0.036586811
C   C51       1.0  0.08656  0.48538  0.44087  1.0000 0.036586811
C   C52       1.0  0.01462  0.41344  0.05913  1.0000 0.036586811
C   C53       1.0  0.05913  0.01462  0.41344  1.0000 0.036586811
C   C54       1.0  0.41344  0.05913  0.01462  1.0000 0.036586811
C   C55       1.0  0.51462  0.55913  0.91344  1.0000 0.036586811
C   C56       1.0  0.55913  0.91344  0.51462  1.0000 0.036586811
C   C57       1.0  0.91344  0.51462  0.55913  1.0000 0.036586811
C   C58       1.0  0.98538  0.58656  0.94087  1.0000 0.036586811
C   C59       1.0  0.94087  0.98538  0.58656  1.0000 0.036586811
C   C60       1.0  0.58656  0.94087  0.98538  1.0000 0.036586811
C   C61       1.0  0.52492  0.55824  0.95677  1.0000 0.0286231201
C   C62       1.0  0.55824  0.95677  0.52492  1.0000 0.0286231201
C   C63       1.0  0.95677  0.52492  0.55824  1.0000 0.0286231201
C   C64       1.0  0.97508  0.54323  0.94176  1.0000 0.0286231201
C   C65       1.0  0.94176  0.97508  0.54323  1.0000 0.0286231201
C   C66       1.0  0.54323  0.94176  0.97508  1.0000 0.0286231201
C   C67       1.0  0.47508  0.44176  0.04323  1.0000 0.0286231201
C   C68       1.0  0.44176  0.04323  0.47508  1.0000 0.0286231201
C   C69       1.0  0.04323  0.47508  0.44176  1.0000 0.0286231201
C   C70       1.0  0.02492  0.45677  0.05824  1.0000 0.0286231201
C   C71       1.0  0.05824  0.02492  0.45677  1.0000 0.0286231201
C   C72       1.0  0.45677  0.05824  0.02492  1.0000 0.0286231201
C   C73       1.0  0.58063  0.43843  0.11357  1.0000 -0.1424186277
C   C74       1.0  0.43843  0.11357  0.58063  1.0000 -0.1424186277
C   C75       1.0  0.11357  0.58063  0.43843  1.0000 -0.1424186277
C   C76       1.0  0.91937  0.38643  0.06157  1.0000 -0.1424186277
C   C77       1.0  0.06157  0.91937  0.38643  1.0000 -0.1424186277
C   C78       1.0  0.38643  0.06157  0.91937  1.0000 -0.1424186277
C   C79       1.0  0.41937  0.56157  0.88643  1.0000 -0.1424186277
C   C80       1.0  0.56157  0.88643  0.41937  1.0000 -0.1424186277
C   C81       1.0  0.88643  0.41937  0.56157  1.0000 -0.1424186277
C   C82       1.0  0.08063  0.61357  0.93843  1.0000 -0.1424186277
C   C83       1.0  0.93843  0.08063  0.61357  1.0000 -0.1424186277
C   C84       1.0  0.61357  0.93843  0.08063  1.0000 -0.1424186277
C   C85       1.0  0.58369  0.44059  0.15956  1.0000 -0.019931624
C   C86       1.0  0.44059  0.15956  0.58369  1.0000 -0.019931624
C   C87       1.0  0.15956  0.58369  0.44059  1.0000 -0.019931624
C   C88       1.0  0.91631  0.34044  0.05941  1.0000 -0.019931624
C   C89       1.0  0.05941  0.91631  0.34044  1.0000 -0.019931624
C   C90       1.0  0.34044  0.05941  0.91631  1.0000 -0.019931624
C   C91       1.0  0.41631  0.55941  0.84044  1.0000 -0.019931624
C   C92       1.0  0.55941  0.84044  0.41631  1.0000 -0.019931624
C   C93       1.0  0.84044  0.41631  0.55941  1.0000 -0.019931624
C   C94       1.0  0.08369  0.65956  0.94059  1.0000 -0.019931624
C   C95       1.0  0.94059  0.08369  0.65956  1.0000 -0.019931624
C   C96       1.0  0.65956  0.94059  0.08369  1.0000 -0.019931624
C   C97       1.0  0.51065  0.50040  0.04124  1.0000 -0.0318429533
C   C98       1.0  0.50040  0.04124  0.51065  1.0000 -0.0318429533
C   C99       1.0  0.04124  0.51065  0.50040  1.0000 -0.0318429533
C   C100      1.0  0.98935  0.45876  0.99960  1.0000 -0.0318429533
C   C101      1.0  0.99960  0.98935  0.45876  1.0000 -0.0318429533
C   C102      1.0  0.45876  0.99960  0.98935  1.0000 -0.0318429533
C   C103      1.0  0.48935  0.49960  0.95876  1.0000 -0.0318429533
C   C104      1.0  0.49960  0.95876  0.48935  1.0000 -0.0318429533
C   C105      1.0  0.95876  0.48935  0.49960  1.0000 -0.0318429533
C   C106      1.0  0.01065  0.54124  0.00040  1.0000 -0.0318429533
C   C107      1.0  0.00040  0.01065  0.54124  1.0000 -0.0318429533
C   C108      1.0  0.54124  0.00040  0.01065  1.0000 -0.0318429533
C   C109      1.0  0.52194  0.50938  0.17868  1.0000 -0.1020037409
C   C110      1.0  0.50938  0.17868  0.52194  1.0000 -0.1020037409
C   C111      1.0  0.17868  0.52194  0.50938  1.0000 -0.1020037409
C   C112      1.0  0.97806  0.32132  0.99062  1.0000 -0.1020037409
C   C113      1.0  0.99062  0.97806  0.32132  1.0000 -0.1020037409
C   C114      1.0  0.32132  0.99062  0.97806  1.0000 -0.1020037409
C   C115      1.0  0.47806  0.49062  0.82132  1.0000 -0.1020037409
C   C116      1.0  0.49062  0.82132  0.47806  1.0000 -0.1020037409
C   C117      1.0  0.82132  0.47806  0.49062  1.0000 -0.1020037409
C   C118      1.0  0.02194  0.67868  0.00938  1.0000 -0.1020037409
C   C119      1.0  0.00938  0.02194  0.67868  1.0000 -0.1020037409
C   C120      1.0  0.67868  0.00938  0.02194  1.0000 -0.1020037409
C   C121      1.0  0.55265  0.61815  0.90825  1.0000 -0.1498309069
C   C122      1.0  0.61815  0.90825  0.55265  1.0000 -0.1498309069
C   C123      1.0  0.90825  0.55265  0.61815  1.0000 -0.1498309069
C   C124      1.0  0.94735  0.59175  0.88185  1.0000 -0.1498309069
C   C125      1.0  0.88185  0.94735  0.59175  1.0000 -0.1498309069
C   C126      1.0  0.59175  0.88185  0.94735  1.0000 -0.1498309069
C   C127      1.0  0.44735  0.38185  0.09175  1.0000 -0.1498309069
C   C128      1.0  0.38185  0.09175  0.44735  1.0000 -0.1498309069
C   C129      1.0  0.09175  0.44735  0.38185  1.0000 -0.1498309069
C   C130      1.0  0.05265  0.40825  0.11815  1.0000 -0.1498309069
C   C131      1.0  0.11815  0.05265  0.40825  1.0000 -0.1498309069
C   C132      1.0  0.40825  0.11815  0.05265  1.0000 -0.1498309069
C   C133      1.0  0.45836  0.57442  0.15238  1.0000 -0.019931624
C   C134      1.0  0.57442  0.15238  0.45836  1.0000 -0.019931624
C   C135      1.0  0.15238  0.45836  0.57442  1.0000 -0.019931624
C   C136      1.0  0.04164  0.34762  0.92558  1.0000 -0.019931624
C   C137      1.0  0.92558  0.04164  0.34762  1.0000 -0.019931624
C   C138      1.0  0.34762  0.92558  0.04164  1.0000 -0.019931624
C   C139      1.0  0.54164  0.42558  0.84762  1.0000 -0.019931624
C   C140      1.0  0.42558  0.84762  0.54164  1.0000 -0.019931624
C   C141      1.0  0.84762  0.54164  0.42558  1.0000 -0.019931624
C   C142      1.0  0.95836  0.65238  0.07442  1.0000 -0.019931624
C   C143      1.0  0.07442  0.95836  0.65238  1.0000 -0.019931624
C   C144      1.0  0.65238  0.07442  0.95836  1.0000 -0.019931624
C   C145      1.0  0.46937  0.38157  0.17315  1.0000 -0.1498309069
C   C146      1.0  0.38157  0.17315  0.46937  1.0000 -0.1498309069
C   C147      1.0  0.17315  0.46937  0.38157  1.0000 -0.1498309069
C   C148      1.0  0.03063  0.32685  0.11843  1.0000 -0.1498309069
C   C149      1.0  0.11843  0.03063  0.32685  1.0000 -0.1498309069
C   C150      1.0  0.32685  0.11843  0.03063  1.0000 -0.1498309069
C   C151      1.0  0.53063  0.61843  0.82685  1.0000 -0.1498309069
C   C152      1.0  0.61843  0.82685  0.53063  1.0000 -0.1498309069
C   C153      1.0  0.82685  0.53063  0.61843  1.0000 -0.1498309069
C   C154      1.0  0.96937  0.67315  0.88157  1.0000 -0.1498309069
C   C155      1.0  0.88157  0.96937  0.67315  1.0000 -0.1498309069
C   C156      1.0  0.67315  0.88157  0.96937  1.0000 -0.1498309069
C   C157      1.0  0.56705  0.67335  0.82605  1.0000 -0.1020037409
C   C158      1.0  0.67335  0.82605  0.56705  1.0000 -0.1020037409
C   C159      1.0  0.82605  0.56705  0.67335  1.0000 -0.1020037409
C   C160      1.0  0.93295  0.67395  0.82665  1.0000 -0.1020037409
C   C161      1.0  0.82665  0.93295  0.67395  1.0000 -0.1020037409
C   C162      1.0  0.67395  0.82665  0.93295  1.0000 -0.1020037409
C   C163      1.0  0.43295  0.32665  0.17395  1.0000 -0.1020037409
C   C164      1.0  0.32665  0.17395  0.43295  1.0000 -0.1020037409
C   C165      1.0  0.17395  0.43295  0.32665  1.0000 -0.1020037409
C   C166      1.0  0.06705  0.32605  0.17335  1.0000 -0.1020037409
C   C167      1.0  0.17335  0.06705  0.32605  1.0000 -0.1020037409
C   C168      1.0  0.32605  0.17335  0.06705  1.0000 -0.1020037409
C   C169      1.0  0.44497  0.32597  0.21517  1.0000 -0.1020037409
C   C170      1.0  0.32597  0.21517  0.44497  1.0000 -0.1020037409
C   C171      1.0  0.21517  0.44497  0.32597  1.0000 -0.1020037409
C   C172      1.0  0.05503  0.28483  0.17403  1.0000 -0.1020037409
C   C173      1.0  0.17403  0.05503  0.28483  1.0000 -0.1020037409
C   C174      1.0  0.28483  0.17403  0.05503  1.0000 -0.1020037409
C   C175      1.0  0.55503  0.67403  0.78483  1.0000 -0.1020037409
C   C176      1.0  0.67403  0.78483  0.55503  1.0000 -0.1020037409
C   C177      1.0  0.78483  0.55503  0.67403  1.0000 -0.1020037409
C   C178      1.0  0.94497  0.71517  0.82597  1.0000 -0.1020037409
C   C179      1.0  0.82597  0.94497  0.71517  1.0000 -0.1020037409
C   C180      1.0  0.71517  0.82597  0.94497  1.0000 -0.1020037409
O   O1        1.0  0.69856  0.30536  0.17767  1.0000 -0.5154124822
O   O2        1.0  0.30536  0.17767  0.69856  1.0000 -0.5154124822
O   O3        1.0  0.17767  0.69856  0.30536  1.0000 -0.5154124822
O   O4        1.0  0.80144  0.32233  0.19464  1.0000 -0.5154124822
O   O5        1.0  0.19464  0.80144  0.32233  1.0000 -0.5154124822
O   O6        1.0  0.32233  0.19464  0.80144  1.0000 -0.5154124822
O   O7        1.0  0.30144  0.69464  0.82233  1.0000 -0.5154124822
O   O8        1.0  0.69464  0.82233  0.30144  1.0000 -0.5154124822
O   O9        1.0  0.82233  0.30144  0.69464  1.0000 -0.5154124822
O   O10       1.0  0.19856  0.67767  0.80536  1.0000 -0.5154124822
O   O11       1.0  0.80536  0.19856  0.67767  1.0000 -0.5154124822
O   O12       1.0  0.67767  0.80536  0.19856  1.0000 -0.5154124822
O   O13       1.0  0.38978  0.63787  0.22816  1.0000 -0.5010645564
O   O14       1.0  0.63787  0.22816  0.38978  1.0000 -0.5010645564
O   O15       1.0  0.22816  0.38978  0.63787  1.0000 -0.5010645564
O   O16       1.0  0.11022  0.27184  0.86213  1.0000 -0.5010645564
O   O17       1.0  0.86213  0.11022  0.27184  1.0000 -0.5010645564
O   O18       1.0  0.27184  0.86213  0.11022  1.0000 -0.5010645564
O   O19       1.0  0.61022  0.36213  0.77184  1.0000 -0.5010645564
O   O20       1.0  0.36213  0.77184  0.61022  1.0000 -0.5010645564
O   O21       1.0  0.77184  0.61022  0.36213  1.0000 -0.5010645564
O   O22       1.0  0.88978  0.72816  0.13787  1.0000 -0.5010645564
O   O23       1.0  0.13787  0.88978  0.72816  1.0000 -0.5010645564
O   O24       1.0  0.72816  0.13787  0.88978  1.0000 -0.5010645564
O   O25       1.0  0.64417  0.37219  0.23774  1.0000 -0.5116306271
O   O26       1.0  0.37219  0.23774  0.64417  1.0000 -0.5116306271
O   O27       1.0  0.23774  0.64417  0.37219  1.0000 -0.5116306271
O   O28       1.0  0.85583  0.26226  0.12781  1.0000 -0.5116306271
O   O29       1.0  0.12781  0.85583  0.26226  1.0000 -0.5116306271
O   O30       1.0  0.26226  0.12781  0.85583  1.0000 -0.5116306271
O   O31       1.0  0.35583  0.62781  0.76226  1.0000 -0.5116306271
O   O32       1.0  0.62781  0.76226  0.35583  1.0000 -0.5116306271
O   O33       1.0  0.76226  0.35583  0.62781  1.0000 -0.5116306271
O   O34       1.0  0.14417  0.73774  0.87219  1.0000 -0.5116306271
O   O35       1.0  0.87219  0.14417  0.73774  1.0000 -0.5116306271
O   O36       1.0  0.73774  0.87219  0.14417  1.0000 -0.5116306271
O   O37       1.0  0.32876  0.69845  0.15861  1.0000 -0.5255670275
O   O38       1.0  0.69845  0.15861  0.32876  1.0000 -0.5255670275
O   O39       1.0  0.15861  0.32876  0.69845  1.0000 -0.5255670275
O   O40       1.0  0.17124  0.34139  0.80155  1.0000 -0.5255670275
O   O41       1.0  0.80155  0.17124  0.34139  1.0000 -0.5255670275
O   O42       1.0  0.34139  0.80155  0.17124  1.0000 -0.5255670275
O   O43       1.0  0.67124  0.30155  0.84139  1.0000 -0.5255670275
O   O44       1.0  0.30155  0.84139  0.67124  1.0000 -0.5255670275
O   O45       1.0  0.84139  0.67124  0.30155  1.0000 -0.5255670275
O   O46       1.0  0.82876  0.65861  0.19845  1.0000 -0.5255670275
O   O47       1.0  0.19845  0.82876  0.65861  1.0000 -0.5255670275
O   O48       1.0  0.65861  0.19845  0.82876  1.0000 -0.5255670275
