# DDEC6 charges by PACMAN v1.1 (https://github.com/mtap-research/PACMAN-charge/)
data_2007[PtNd][nan]3[ASR]1
_chemical_formula_sum              "Nd8 H156 Pt6 C288 N24 O52"
_cell_length_a       16.2068
_cell_length_b       16.2068
_cell_length_c       31.3773
_cell_angle_alpha    99.484
_cell_angle_beta     99.484
_cell_angle_gamma    96.2572

_symmetry_space_group_name_H-M    "P 1"
_symmetry_Int_Tables_number       1

loop_
  _symmetry_equiv_pos_as_xyz
  'x, y, z'

loop_
  _atom_site_type_symbol
  _atom_site_label
  _atom_site_symmetry_multiplicity
  _atom_site_fract_x
  _atom_site_fract_y
  _atom_site_fract_z
  _atom_site_occupancy
  _atom_site_charge
Nd  Nd1       1.0  0.35659  0.81293  0.79912  1.0000 2.1308870432
Nd  Nd2       1.0  0.18707  0.64341  0.70088  1.0000 2.1308870432
Nd  Nd3       1.0  0.64341  0.18707  0.20088  1.0000 2.1308870432
Nd  Nd4       1.0  0.81293  0.35659  0.29912  1.0000 2.1308870432
Nd  Nd5       1.0  0.35936  0.97830  0.91300  1.0000 1.9205299136
Nd  Nd6       1.0  0.02170  0.64064  0.58700  1.0000 1.9205299136
Nd  Nd7       1.0  0.64064  0.02170  0.08700  1.0000 1.9205299136
Nd  Nd8       1.0  0.97830  0.35936  0.41300  1.0000 1.9205299136
H   H1        1.0  0.71540  0.98160  0.66400  1.0000 0.1291624344
H   H2        1.0  0.01840  0.28460  0.83600  1.0000 0.1291624344
H   H3        1.0  0.28460  0.01840  0.33600  1.0000 0.1291624344
H   H4        1.0  0.98160  0.71540  0.16400  1.0000 0.1291624344
H   H5        1.0  0.62430  0.03630  0.71340  1.0000 0.1291624344
H   H6        1.0  0.96370  0.37570  0.78660  1.0000 0.1291624344
H   H7        1.0  0.37570  0.96370  0.28660  1.0000 0.1291624344
H   H8        1.0  0.03630  0.62430  0.21340  1.0000 0.1291624344
H   H9        1.0  0.35670  0.20150  0.69300  1.0000 0.1291624344
H   H10       1.0  0.79850  0.64330  0.80700  1.0000 0.1291624344
H   H11       1.0  0.64330  0.79850  0.30700  1.0000 0.1291624344
H   H12       1.0  0.20150  0.35670  0.19300  1.0000 0.1291624344
H   H13       1.0  0.30920  0.29400  0.64280  1.0000 0.1291624344
H   H14       1.0  0.70600  0.69080  0.85720  1.0000 0.1291624344
H   H15       1.0  0.69080  0.70600  0.35720  1.0000 0.1291624344
H   H16       1.0  0.29400  0.30920  0.14280  1.0000 0.1291624344
H   H17       1.0  0.39740  0.36740  0.49570  1.0000 0.1192419418
H   H18       1.0  0.63260  0.60260  0.00430  1.0000 0.1192419418
H   H19       1.0  0.60260  0.63260  0.50430  1.0000 0.1192419418
H   H20       1.0  0.36740  0.39740  0.99570  1.0000 0.1192419418
H   H21       1.0  0.47790  0.29830  0.44260  1.0000 0.1291624344
H   H22       1.0  0.70170  0.52210  0.05740  1.0000 0.1291624344
H   H23       1.0  0.52210  0.70170  0.55740  1.0000 0.1291624344
H   H24       1.0  0.29830  0.47790  0.94260  1.0000 0.1291624344
H   H25       1.0  0.65390  0.03590  0.43700  1.0000 0.1291624344
H   H26       1.0  0.96410  0.34610  0.06300  1.0000 0.1291624344
H   H27       1.0  0.34610  0.96410  0.56300  1.0000 0.1291624344
H   H28       1.0  0.03590  0.65390  0.93700  1.0000 0.1291624344
H   H29       1.0  0.69710  0.94710  0.48880  1.0000 0.1192419418
H   H30       1.0  0.05290  0.30290  0.01120  1.0000 0.1192419418
H   H31       1.0  0.30290  0.05290  0.51120  1.0000 0.1192419418
H   H32       1.0  0.94710  0.69710  0.98880  1.0000 0.1192419418
H   H33       1.0  0.58020  0.17420  0.75920  1.0000 0.1116308382
H   H34       1.0  0.82580  0.41980  0.74080  1.0000 0.1116308382
H   H35       1.0  0.41980  0.82580  0.24080  1.0000 0.1116308382
H   H36       1.0  0.17420  0.58020  0.25920  1.0000 0.1116308382
H   H37       1.0  0.54390  0.13930  0.82400  1.0000 0.1116308382
H   H38       1.0  0.86070  0.45610  0.67600  1.0000 0.1116308382
H   H39       1.0  0.45610  0.86070  0.17600  1.0000 0.1116308382
H   H40       1.0  0.13930  0.54390  0.32400  1.0000 0.1116308382
H   H41       1.0  0.33140  0.99400  0.75620  1.0000 0.1192419418
H   H42       1.0  0.00600  0.66860  0.74380  1.0000 0.1192419418
H   H43       1.0  0.66860  0.00600  0.24380  1.0000 0.1192419418
H   H44       1.0  0.99400  0.33140  0.25620  1.0000 0.1192419418
H   H45       1.0  0.36410  0.03130  0.69080  1.0000 0.1116308382
H   H46       1.0  0.96870  0.63590  0.80920  1.0000 0.1116308382
H   H47       1.0  0.63590  0.96870  0.30920  1.0000 0.1116308382
H   H48       1.0  0.03130  0.36410  0.19080  1.0000 0.1116308382
H   H49       1.0  0.41770  0.44930  0.60860  1.0000 0.1192419418
H   H50       1.0  0.55070  0.58230  0.89140  1.0000 0.1192419418
H   H51       1.0  0.58230  0.55070  0.39140  1.0000 0.1192419418
H   H52       1.0  0.44930  0.41770  0.10860  1.0000 0.1192419418
H   H53       1.0  0.32110  0.54410  0.62410  1.0000 0.1192419418
H   H54       1.0  0.45590  0.67890  0.87590  1.0000 0.1192419418
H   H55       1.0  0.67890  0.45590  0.37590  1.0000 0.1192419418
H   H56       1.0  0.54410  0.32110  0.12410  1.0000 0.1192419418
H   H57       1.0  0.13660  0.38040  0.54140  1.0000 0.1291624344
H   H58       1.0  0.61960  0.86340  0.95860  1.0000 0.1291624344
H   H59       1.0  0.86340  0.61960  0.45860  1.0000 0.1291624344
H   H60       1.0  0.38040  0.13660  0.04140  1.0000 0.1291624344
H   H61       1.0  0.23550  0.28750  0.52820  1.0000 0.1116308382
H   H62       1.0  0.71250  0.76450  0.97180  1.0000 0.1192419418
H   H63       1.0  0.76450  0.71250  0.47180  1.0000 0.1192419418
H   H64       1.0  0.28750  0.23550  0.02820  1.0000 0.1116308382
H   H65       1.0  0.67370  0.27570  0.44650  1.0000 0.1192419418
H   H66       1.0  0.72430  0.32630  0.05350  1.0000 0.1192419418
H   H67       1.0  0.32630  0.72430  0.55350  1.0000 0.1192419418
H   H68       1.0  0.27570  0.67370  0.94650  1.0000 0.1192419418
H   H69       1.0  0.70080  0.28900  0.37790  1.0000 0.1291624344
H   H70       1.0  0.71100  0.29920  0.12210  1.0000 0.1291624344
H   H71       1.0  0.29920  0.71100  0.62210  1.0000 0.1291624344
H   H72       1.0  0.28900  0.70080  0.87790  1.0000 0.1291624344
H   H73       1.0  0.52320  0.09560  0.32090  1.0000 0.1192419418
H   H74       1.0  0.90440  0.47680  0.17910  1.0000 0.1192419418
H   H75       1.0  0.47680  0.90440  0.67910  1.0000 0.1192419418
H   H76       1.0  0.09560  0.52320  0.82090  1.0000 0.1192419418
H   H77       1.0  0.49010  0.08090  0.38800  1.0000 0.1116308382
H   H78       1.0  0.91910  0.50990  0.11200  1.0000 0.1116308382
H   H79       1.0  0.50990  0.91910  0.61200  1.0000 0.1116308382
H   H80       1.0  0.08090  0.49010  0.88800  1.0000 0.1116308382
H   H81       1.0  0.82570  0.00990  0.55790  1.0000 0.1192419418
H   H82       1.0  0.99010  0.17430  0.94210  1.0000 0.1192419418
H   H83       1.0  0.17430  0.99010  0.44210  1.0000 0.1192419418
H   H84       1.0  0.00990  0.82570  0.05790  1.0000 0.1192419418
H   H85       1.0  0.92420  0.91520  0.56390  1.0000 0.1192419418
H   H86       1.0  0.08480  0.07580  0.93610  1.0000 0.1116308382
H   H87       1.0  0.07580  0.08480  0.43610  1.0000 0.1116308382
H   H88       1.0  0.91520  0.92420  0.06390  1.0000 0.1192419418
H   H89       1.0  0.75320  0.75200  0.60030  1.0000 0.1291624344
H   H90       1.0  0.24800  0.24680  0.89970  1.0000 0.1291624344
H   H91       1.0  0.24680  0.24800  0.39970  1.0000 0.1291624344
H   H92       1.0  0.75200  0.75320  0.10030  1.0000 0.1291624344
H   H93       1.0  0.65460  0.84680  0.59440  1.0000 0.1192419418
H   H94       1.0  0.15320  0.34540  0.90560  1.0000 0.1192419418
H   H95       1.0  0.34540  0.15320  0.40560  1.0000 0.1192419418
H   H96       1.0  0.84680  0.65460  0.09440  1.0000 0.1192419418
H   H97       1.0  0.00500  0.80900  0.56450  1.0000 0.3470813748
H   H98       1.0  0.19100  0.99500  0.93550  1.0000 0.3470813748
H   H99       1.0  0.99500  0.19100  0.43550  1.0000 0.3470813748
H   H100      1.0  0.80900  0.00500  0.06450  1.0000 0.3470813748
H   H101      1.0  0.93770  0.02630  0.83120  1.0000 0.1192419418
H   H102      1.0  0.97370  0.06230  0.66880  1.0000 0.1192419418
H   H103      1.0  0.06230  0.97370  0.16880  1.0000 0.1192419418
H   H104      1.0  0.02630  0.93770  0.33120  1.0000 0.1192419418
H   H105      1.0  0.85210  0.08990  0.88280  1.0000 0.1192419418
H   H106      1.0  0.91010  0.14790  0.61720  1.0000 0.1192419418
H   H107      1.0  0.14790  0.91010  0.11720  1.0000 0.1192419418
H   H108      1.0  0.08990  0.85210  0.38280  1.0000 0.1192419418
H   H109      1.0  0.64120  0.31520  0.88580  1.0000 0.1291624344
H   H110      1.0  0.68480  0.35880  0.61420  1.0000 0.1291624344
H   H111      1.0  0.35880  0.68480  0.11420  1.0000 0.1291624344
H   H112      1.0  0.31520  0.64120  0.38580  1.0000 0.1291624344
H   H113      1.0  0.58470  0.40010  0.83530  1.0000 0.1291624344
H   H114      1.0  0.59990  0.41530  0.66470  1.0000 0.1291624344
H   H115      1.0  0.41530  0.59990  0.16470  1.0000 0.1291624344
H   H116      1.0  0.40010  0.58470  0.33530  1.0000 0.1291624344
H   H117      1.0  0.07890  0.10330  0.78900  1.0000 0.1116308382
H   H118      1.0  0.89670  0.92110  0.71100  1.0000 0.1116308382
H   H119      1.0  0.92110  0.89670  0.21100  1.0000 0.1116308382
H   H120      1.0  0.10330  0.07890  0.28900  1.0000 0.1116308382
H   H121      1.0  0.17750  0.00610  0.78950  1.0000 0.1192419418
H   H122      1.0  0.99390  0.82250  0.71050  1.0000 0.1192419418
H   H123      1.0  0.82250  0.99390  0.21050  1.0000 0.1192419418
H   H124      1.0  0.00610  0.17750  0.28950  1.0000 0.1192419418
H   H125      1.0  0.80730  0.28070  0.93890  1.0000 0.1116308382
H   H126      1.0  0.71930  0.19270  0.56110  1.0000 0.1116308382
H   H127      1.0  0.19270  0.71930  0.06110  1.0000 0.1116308382
H   H128      1.0  0.28070  0.80730  0.43890  1.0000 0.1116308382
H   H129      1.0  0.78470  0.23030  0.00320  1.0000 0.1116308382
H   H130      1.0  0.76970  0.21530  0.49680  1.0000 0.1116308382
H   H131      1.0  0.21530  0.76970  0.99680  1.0000 0.1116308382
H   H132      1.0  0.23030  0.78470  0.50320  1.0000 0.1116308382
H   H133      1.0  0.61910  0.03530  0.93070  1.0000 0.1395979168
H   H134      1.0  0.96470  0.38090  0.56930  1.0000 0.1395979168
H   H135      1.0  0.38090  0.96470  0.06930  1.0000 0.1395979168
H   H136      1.0  0.03530  0.61910  0.43070  1.0000 0.1395979168
H   H137      1.0  0.64850  0.07750  0.86770  1.0000 0.1192419418
H   H138      1.0  0.92250  0.35150  0.63230  1.0000 0.1192419418
H   H139      1.0  0.35150  0.92250  0.13230  1.0000 0.1192419418
H   H140      1.0  0.07750  0.64850  0.36770  1.0000 0.1192419418
H   H141      1.0  0.63800  0.52120  0.79630  1.0000 0.1116308382
H   H142      1.0  0.47880  0.36200  0.70370  1.0000 0.1116308382
H   H143      1.0  0.36200  0.47880  0.20370  1.0000 0.1116308382
H   H144      1.0  0.52120  0.63800  0.29630  1.0000 0.1116308382
H   H145      1.0  0.54270  0.61990  0.79760  1.0000 0.1192419418
H   H146      1.0  0.38010  0.45730  0.70240  1.0000 0.1192419418
H   H147      1.0  0.45730  0.38010  0.20240  1.0000 0.1192419418
H   H148      1.0  0.61990  0.54270  0.29760  1.0000 0.1192419418
H   H149      1.0  0.19820  0.89980  0.84660  1.0000 0.4032468912
H   H150      1.0  0.10020  0.80180  0.65340  1.0000 0.4032468912
H   H151      1.0  0.80180  0.10020  0.15340  1.0000 0.4032468912
H   H152      1.0  0.89980  0.19820  0.34660  1.0000 0.4032468912
H   H153      1.0  0.22140  0.82720  0.87480  1.0000 0.407071751
H   H154      1.0  0.17280  0.77860  0.62520  1.0000 0.407071751
H   H155      1.0  0.77860  0.17280  0.12520  1.0000 0.407071751
H   H156      1.0  0.82720  0.22140  0.37480  1.0000 0.407071751
Pt  Pt1       1.0  0.52832  0.14396  0.57205  1.0000 0.2726913807
Pt  Pt2       1.0  0.85604  0.47168  0.92795  1.0000 0.2726913807
Pt  Pt3       1.0  0.47168  0.85604  0.42795  1.0000 0.2726913807
Pt  Pt4       1.0  0.14396  0.52832  0.07205  1.0000 0.2726913807
Pt  Pt5       1.0  0.77225  0.22675  0.75021  1.0000 0.2791557428
Pt  Pt6       1.0  0.22775  0.77325  0.24979  1.0000 0.2791557428
C   C1        1.0  0.64220  0.03080  0.61430  1.0000 0.1291624344
C   C2        1.0  0.96920  0.35780  0.88570  1.0000 0.1291624344
C   C3        1.0  0.35780  0.96920  0.38570  1.0000 0.1291624344
C   C4        1.0  0.03080  0.64220  0.11430  1.0000 0.1291624344
C   C5        1.0  0.66960  0.01160  0.65640  1.0000 -0.1814580916
C   C6        1.0  0.98840  0.33040  0.84360  1.0000 -0.1814580916
C   C7        1.0  0.33040  0.98840  0.34360  1.0000 -0.1814580916
C   C8        1.0  0.01160  0.66960  0.15640  1.0000 -0.1814580916
C   C9        1.0  0.62100  0.04240  0.68360  1.0000 -0.1814580916
C   C10       1.0  0.95760  0.37900  0.81640  1.0000 -0.1814580916
C   C11       1.0  0.37900  0.95760  0.31640  1.0000 -0.1814580916
C   C12       1.0  0.04240  0.62100  0.18360  1.0000 -0.1814580916
C   C13       1.0  0.56270  0.08630  0.65970  1.0000 0.1291624344
C   C14       1.0  0.91370  0.43730  0.84030  1.0000 0.1291624344
C   C15       1.0  0.43730  0.91370  0.34030  1.0000 0.1291624344
C   C16       1.0  0.08630  0.56270  0.15970  1.0000 0.1291624344
C   C17       1.0  0.49710  0.12030  0.67540  1.0000 -0.0596192483
C   C18       1.0  0.87970  0.50290  0.82460  1.0000 -0.0596192483
C   C19       1.0  0.50290  0.87970  0.32460  1.0000 -0.0596192483
C   C20       1.0  0.12030  0.49710  0.17540  1.0000 -0.0596192483
C   C21       1.0  0.44420  0.16880  0.65320  1.0000 0.1395979168
C   C22       1.0  0.83120  0.55580  0.84680  1.0000 0.1395979168
C   C23       1.0  0.55580  0.83120  0.34680  1.0000 0.1395979168
C   C24       1.0  0.16880  0.44420  0.15320  1.0000 0.1395979168
C   C25       1.0  0.37860  0.20860  0.66730  1.0000 -0.1898981329
C   C26       1.0  0.79140  0.62140  0.83270  1.0000 -0.1898981329
C   C27       1.0  0.62140  0.79140  0.33270  1.0000 -0.1898981329
C   C28       1.0  0.20860  0.37860  0.16730  1.0000 -0.1898981329
C   C29       1.0  0.35120  0.25820  0.63970  1.0000 -0.1814580916
C   C30       1.0  0.74180  0.64880  0.86030  1.0000 -0.1814580916
C   C31       1.0  0.64880  0.74180  0.36030  1.0000 -0.1814580916
C   C32       1.0  0.25820  0.35120  0.13970  1.0000 -0.1814580916
C   C33       1.0  0.39710  0.24730  0.60470  1.0000 0.1395979168
C   C34       1.0  0.75270  0.60290  0.89530  1.0000 0.1395979168
C   C35       1.0  0.60290  0.75270  0.39530  1.0000 0.1395979168
C   C36       1.0  0.24730  0.39710  0.10470  1.0000 0.1395979168
C   C37       1.0  0.39020  0.29060  0.57000  1.0000 -0.0497151758
C   C38       1.0  0.70940  0.60980  0.93000  1.0000 -0.0497151758
C   C39       1.0  0.60980  0.70940  0.43000  1.0000 -0.0497151758
C   C40       1.0  0.29060  0.39020  0.07000  1.0000 -0.0497151758
C   C41       1.0  0.43400  0.27620  0.53440  1.0000 0.1395979168
C   C42       1.0  0.72380  0.56600  0.96560  1.0000 0.1395979168
C   C43       1.0  0.56600  0.72380  0.46560  1.0000 0.1395979168
C   C44       1.0  0.27620  0.43400  0.03440  1.0000 0.1395979168
C   C45       1.0  0.42750  0.32090  0.49880  1.0000 -0.1898981329
C   C46       1.0  0.67910  0.57250  0.00120  1.0000 -0.1898981329
C   C47       1.0  0.57250  0.67910  0.50120  1.0000 -0.1898981329
C   C48       1.0  0.32090  0.42750  0.99880  1.0000 -0.1898981329
C   C49       1.0  0.47240  0.28400  0.47020  1.0000 -0.2006993662
C   C50       1.0  0.71600  0.52760  0.02980  1.0000 -0.2006993662
C   C51       1.0  0.52760  0.71600  0.52980  1.0000 -0.2006993662
C   C52       1.0  0.28400  0.47240  0.97020  1.0000 -0.2006993662
C   C53       1.0  0.50990  0.21970  0.48900  1.0000 0.1513606277
C   C54       1.0  0.78030  0.49010  0.01100  1.0000 0.1513606277
C   C55       1.0  0.49010  0.78030  0.51100  1.0000 0.1513606277
C   C56       1.0  0.21970  0.50990  0.98900  1.0000 0.1513606277
C   C57       1.0  0.55930  0.16490  0.46820  1.0000 -0.0686262384
C   C58       1.0  0.83510  0.44070  0.03180  1.0000 -0.0686262384
C   C59       1.0  0.44070  0.83510  0.53180  1.0000 -0.0686262384
C   C60       1.0  0.16490  0.55930  0.96820  1.0000 -0.0686262384
C   C61       1.0  0.59350  0.10150  0.48650  1.0000 0.1395979168
C   C62       1.0  0.89850  0.40650  0.01350  1.0000 0.1395979168
C   C63       1.0  0.40650  0.89850  0.51350  1.0000 0.1395979168
C   C64       1.0  0.10150  0.59350  0.98650  1.0000 0.1395979168
C   C65       1.0  0.64230  0.04050  0.46600  1.0000 -0.1814580916
C   C66       1.0  0.95950  0.35770  0.03400  1.0000 -0.1814580916
C   C67       1.0  0.35770  0.95950  0.53400  1.0000 -0.1814580916
C   C68       1.0  0.04050  0.64230  0.96600  1.0000 -0.1814580916
C   C69       1.0  0.66730  0.99390  0.49430  1.0000 -0.1814580916
C   C70       1.0  0.00610  0.33270  0.00570  1.0000 -0.1814580916
C   C71       1.0  0.33270  0.00610  0.50570  1.0000 -0.1814580916
C   C72       1.0  0.99390  0.66730  0.99430  1.0000 -0.1814580916
C   C73       1.0  0.64270  0.02430  0.53500  1.0000 0.1291624344
C   C74       1.0  0.97570  0.35730  0.96500  1.0000 0.1291624344
C   C75       1.0  0.35730  0.97570  0.46500  1.0000 0.1291624344
C   C76       1.0  0.02430  0.64270  0.03500  1.0000 0.1291624344
C   C77       1.0  0.67070  0.00050  0.57540  1.0000 -0.0686262384
C   C78       1.0  0.99950  0.32930  0.92460  1.0000 -0.0686262384
C   C79       1.0  0.32930  0.99950  0.42460  1.0000 -0.0686262384
C   C80       1.0  0.00050  0.67070  0.07540  1.0000 -0.0596192483
C   C81       1.0  0.47650  0.10350  0.71890  1.0000 0.0892622455
C   C82       1.0  0.89650  0.52350  0.78110  1.0000 0.0892622455
C   C83       1.0  0.52350  0.89650  0.28110  1.0000 0.0892622455
C   C84       1.0  0.10350  0.47650  0.21890  1.0000 0.0892622455
C   C85       1.0  0.53000  0.13720  0.75820  1.0000 -0.1493253871
C   C86       1.0  0.86280  0.47000  0.74180  1.0000 -0.1493253871
C   C87       1.0  0.47000  0.86280  0.24180  1.0000 -0.1493253871
C   C88       1.0  0.13720  0.53000  0.25820  1.0000 -0.1493253871
C   C89       1.0  0.50840  0.11520  0.79650  1.0000 -0.1003111539
C   C90       1.0  0.88480  0.49160  0.70350  1.0000 -0.1003111539
C   C91       1.0  0.49160  0.88480  0.20350  1.0000 -0.1003111539
C   C92       1.0  0.11520  0.50840  0.29650  1.0000 -0.1003111539
C   C93       1.0  0.43820  0.06040  0.79570  1.0000 -0.0207959619
C   C94       1.0  0.93960  0.56180  0.70430  1.0000 -0.0207959619
C   C95       1.0  0.56180  0.93960  0.20430  1.0000 -0.0207959619
C   C96       1.0  0.06040  0.43820  0.29570  1.0000 -0.0207959619
C   C97       1.0  0.38240  0.02960  0.75680  1.0000 -0.1003111539
C   C98       1.0  0.97040  0.61760  0.74320  1.0000 -0.1003111539
C   C99       1.0  0.61760  0.97040  0.24320  1.0000 -0.1003111539
C   C100      1.0  0.02960  0.38240  0.25680  1.0000 -0.1003111539
C   C101      1.0  0.40200  0.05180  0.71790  1.0000 -0.1493253871
C   C102      1.0  0.94820  0.59800  0.78210  1.0000 -0.1493253871
C   C103      1.0  0.59800  0.94820  0.28210  1.0000 -0.1493253871
C   C104      1.0  0.05180  0.40200  0.21790  1.0000 -0.1493253871
C   C105      1.0  0.42290  0.03130  0.83730  1.0000 0.6088481065
C   C106      1.0  0.96870  0.57710  0.66270  1.0000 0.6088481065
C   C107      1.0  0.57710  0.96870  0.16270  1.0000 0.6088481065
C   C108      1.0  0.03130  0.42290  0.33730  1.0000 0.6088481065
C   C109      1.0  0.33180  0.35540  0.57200  1.0000 0.0892622455
C   C110      1.0  0.64460  0.66820  0.92800  1.0000 0.0892622455
C   C111      1.0  0.66820  0.64460  0.42800  1.0000 0.0892622455
C   C112      1.0  0.35540  0.33180  0.07200  1.0000 0.0892622455
C   C113      1.0  0.35930  0.43330  0.59670  1.0000 -0.1580508384
C   C114      1.0  0.56670  0.64070  0.90330  1.0000 -0.1580508384
C   C115      1.0  0.64070  0.56670  0.40330  1.0000 -0.1580508384
C   C116      1.0  0.43330  0.35930  0.09670  1.0000 -0.1580508384
C   C117      1.0  0.30200  0.49120  0.60490  1.0000 -0.0948541197
C   C118      1.0  0.50880  0.69800  0.89510  1.0000 -0.0948541197
C   C119      1.0  0.69800  0.50880  0.39510  1.0000 -0.0948541197
C   C120      1.0  0.49120  0.30200  0.10490  1.0000 -0.0948541197
C   C121      1.0  0.21940  0.47060  0.58530  1.0000 -0.0406630712
C   C122      1.0  0.52940  0.78060  0.91470  1.0000 -0.0406630712
C   C123      1.0  0.78060  0.52940  0.41470  1.0000 -0.0406630712
C   C124      1.0  0.47060  0.21940  0.08530  1.0000 -0.0406630712
C   C125      1.0  0.19360  0.39460  0.55640  1.0000 -0.08237021
C   C126      1.0  0.60540  0.80640  0.94360  1.0000 -0.08237021
C   C127      1.0  0.80640  0.60540  0.44360  1.0000 -0.08237021
C   C128      1.0  0.39460  0.19360  0.05640  1.0000 -0.08237021
C   C129      1.0  0.25240  0.33820  0.54930  1.0000 -0.1493253871
C   C130      1.0  0.66180  0.74760  0.95070  1.0000 -0.1493253871
C   C131      1.0  0.74760  0.66180  0.45070  1.0000 -0.1493253871
C   C132      1.0  0.33820  0.25240  0.04930  1.0000 -0.1493253871
C   C133      1.0  0.15730  0.52770  0.59510  1.0000 0.6038885829
C   C134      1.0  0.47230  0.84270  0.90490  1.0000 0.6038885829
C   C135      1.0  0.84270  0.47230  0.40490  1.0000 0.6038885829
C   C136      1.0  0.52770  0.15730  0.09510  1.0000 0.6038885829
C   C137      1.0  0.57630  0.17630  0.42420  1.0000 0.0892622455
C   C138      1.0  0.82370  0.42370  0.07580  1.0000 0.0892622455
C   C139      1.0  0.42370  0.82370  0.57580  1.0000 0.0892622455
C   C140      1.0  0.17630  0.57630  0.92420  1.0000 0.0892622455
C   C141      1.0  0.64180  0.23900  0.42090  1.0000 -0.1413890585
C   C142      1.0  0.76100  0.35820  0.07910  1.0000 -0.1413890585
C   C143      1.0  0.35820  0.76100  0.57910  1.0000 -0.1413890585
C   C144      1.0  0.23900  0.64180  0.92090  1.0000 -0.1413890585
C   C145      1.0  0.65820  0.24580  0.38020  1.0000 -0.112241536
C   C146      1.0  0.75420  0.34180  0.11980  1.0000 -0.112241536
C   C147      1.0  0.34180  0.75420  0.61980  1.0000 -0.112241536
C   C148      1.0  0.24580  0.65820  0.88020  1.0000 -0.112241536
C   C149      1.0  0.61620  0.19320  0.34280  1.0000 -0.0299757578
C   C150      1.0  0.80680  0.38380  0.15720  1.0000 -0.0299757578
C   C151      1.0  0.38380  0.80680  0.65720  1.0000 -0.0299757578
C   C152      1.0  0.19320  0.61620  0.84280  1.0000 -0.0299757578
C   C153      1.0  0.55370  0.13270  0.34670  1.0000 -0.1003111539
C   C154      1.0  0.86730  0.44630  0.15330  1.0000 -0.1003111539
C   C155      1.0  0.44630  0.86730  0.65330  1.0000 -0.1003111539
C   C156      1.0  0.13270  0.55370  0.84670  1.0000 -0.1003111539
C   C157      1.0  0.53380  0.12380  0.38650  1.0000 -0.1413890585
C   C158      1.0  0.87620  0.46620  0.11350  1.0000 -0.1413890585
C   C159      1.0  0.46620  0.87620  0.61350  1.0000 -0.1413890585
C   C160      1.0  0.12380  0.53380  0.88650  1.0000 -0.1413890585
C   C161      1.0  0.63820  0.19820  0.29910  1.0000 0.627321389
C   C162      1.0  0.80180  0.36180  0.20090  1.0000 0.627321389
C   C163      1.0  0.36180  0.80180  0.70090  1.0000 0.627321389
C   C164      1.0  0.19820  0.63820  0.79910  1.0000 0.627321389
C   C165      1.0  0.73090  0.93730  0.57560  1.0000 0.0892622455
C   C166      1.0  0.06270  0.26910  0.92440  1.0000 0.0892622455
C   C167      1.0  0.26910  0.06270  0.42440  1.0000 0.0892622455
C   C168      1.0  0.93730  0.73090  0.07560  1.0000 0.0892622455
C   C169      1.0  0.81100  0.95760  0.56653  1.0000 -0.1413890585
C   C170      1.0  0.04240  0.18900  0.93347  1.0000 -0.1413890585
C   C171      1.0  0.18900  0.04240  0.43347  1.0000 -0.1413890585
C   C172      1.0  0.95760  0.81100  0.06653  1.0000 -0.1413890585
C   C173      1.0  0.86950  0.90130  0.57005  1.0000 -0.1342471722
C   C174      1.0  0.09870  0.13050  0.92995  1.0000 -0.1342471722
C   C175      1.0  0.13050  0.09870  0.42995  1.0000 -0.1342471722
C   C176      1.0  0.90130  0.86950  0.07005  1.0000 -0.1342471722
C   C177      1.0  0.84790  0.82470  0.58265  1.0000 -0.0207959619
C   C178      1.0  0.17530  0.15210  0.91735  1.0000 -0.0207959619
C   C179      1.0  0.15210  0.17530  0.41735  1.0000 -0.0207959619
C   C180      1.0  0.82470  0.84790  0.08265  1.0000 -0.0207959619
C   C181      1.0  0.76794  0.80434  0.59173  1.0000 -0.1003111539
C   C182      1.0  0.19566  0.23206  0.90827  1.0000 -0.1003111539
C   C183      1.0  0.23206  0.19566  0.40827  1.0000 -0.1003111539
C   C184      1.0  0.80434  0.76794  0.09173  1.0000 -0.1003111539
C   C185      1.0  0.70930  0.86070  0.58820  1.0000 -0.1413890585
C   C186      1.0  0.13930  0.29070  0.91180  1.0000 -0.1413890585
C   C187      1.0  0.29070  0.13930  0.41180  1.0000 -0.1413890585
C   C188      1.0  0.86070  0.70930  0.08820  1.0000 -0.1413890585
C   C189      1.0  0.90930  0.76190  0.58929  1.0000 0.471876074
C   C190      1.0  0.23810  0.09070  0.91071  1.0000 0.471876074
C   C191      1.0  0.09070  0.23810  0.41071  1.0000 0.471876074
C   C192      1.0  0.76190  0.90930  0.08929  1.0000 0.471876074
C   C193      1.0  0.91539  0.08481  0.74992  1.0000 -0.08237021
C   C194      1.0  0.08461  0.91519  0.25008  1.0000 -0.08237021
C   C195      1.0  0.88084  0.10216  0.78682  1.0000 0.1395979168
C   C196      1.0  0.89784  0.11916  0.71318  1.0000 0.1395979168
C   C197      1.0  0.11916  0.89784  0.21318  1.0000 0.1395979168
C   C198      1.0  0.10216  0.88084  0.28682  1.0000 0.1395979168
C   C199      1.0  0.89994  0.06606  0.82618  1.0000 -0.1814580916
C   C200      1.0  0.93394  0.10006  0.67382  1.0000 -0.1814580916
C   C201      1.0  0.10006  0.93394  0.17382  1.0000 -0.1814580916
C   C202      1.0  0.06606  0.89994  0.32618  1.0000 -0.1814580916
C   C203      1.0  0.85280  0.10100  0.85410  1.0000 -0.2006993662
C   C204      1.0  0.89900  0.14720  0.64590  1.0000 -0.2006993662
C   C205      1.0  0.14720  0.89900  0.14590  1.0000 -0.2006993662
C   C206      1.0  0.10100  0.85280  0.35410  1.0000 -0.2006993662
C   C207      1.0  0.80530  0.15630  0.83420  1.0000 0.1635756609
C   C208      1.0  0.84370  0.19470  0.66580  1.0000 0.1676677979
C   C209      1.0  0.19470  0.84370  0.16580  1.0000 0.1635756609
C   C210      1.0  0.15630  0.80530  0.33420  1.0000 0.1676677979
C   C211      1.0  0.74900  0.20360  0.85350  1.0000 -0.0596192483
C   C212      1.0  0.79640  0.25100  0.64650  1.0000 -0.0596192483
C   C213      1.0  0.25100  0.79640  0.14650  1.0000 -0.0596192483
C   C214      1.0  0.20360  0.74900  0.35350  1.0000 -0.0596192483
C   C215      1.0  0.70700  0.26400  0.83640  1.0000 0.1291624344
C   C216      1.0  0.73600  0.29300  0.66360  1.0000 0.1291624344
C   C217      1.0  0.29300  0.73600  0.16360  1.0000 0.1291624344
C   C218      1.0  0.26400  0.70700  0.33640  1.0000 0.1291624344
C   C219      1.0  0.65270  0.31490  0.85710  1.0000 -0.1413890585
C   C220      1.0  0.68510  0.34730  0.64290  1.0000 -0.1413890585
C   C221      1.0  0.34730  0.68510  0.14290  1.0000 -0.1413890585
C   C222      1.0  0.31490  0.65270  0.35710  1.0000 -0.1413890585
C   C223      1.0  0.62210  0.36010  0.82970  1.0000 -0.173197243
C   C224      1.0  0.63990  0.37790  0.67030  1.0000 -0.173197243
C   C225      1.0  0.37790  0.63990  0.17030  1.0000 -0.173197243
C   C226      1.0  0.36010  0.62210  0.32970  1.0000 -0.173197243
C   C227      1.0  0.65460  0.34000  0.78770  1.0000 0.1676677979
C   C228      1.0  0.66000  0.34540  0.71230  1.0000 0.1676677979
C   C229      1.0  0.34540  0.66000  0.21230  1.0000 0.1676677979
C   C230      1.0  0.34000  0.65460  0.28770  1.0000 0.1676677979
C   C231      1.0  0.63020  0.36980  0.75000  1.0000 -0.1003111539
C   C232      1.0  0.36980  0.63020  0.25000  1.0000 -0.1003111539
C   C233      1.0  0.97680  0.02320  0.75000  1.0000 0.0892622455
C   C234      1.0  0.02320  0.97680  0.25000  1.0000 0.0892622455
C   C235      1.0  0.06170  0.04710  0.77330  1.0000 -0.173197243
C   C236      1.0  0.95290  0.93830  0.72670  1.0000 -0.173197243
C   C237      1.0  0.93830  0.95290  0.22670  1.0000 -0.173197243
C   C238      1.0  0.04710  0.06170  0.27330  1.0000 -0.173197243
C   C239      1.0  0.12110  0.98930  0.77370  1.0000 -0.1197070019
C   C240      1.0  0.01070  0.87890  0.72630  1.0000 -0.1197070019
C   C241      1.0  0.87890  0.01070  0.22630  1.0000 -0.1197070019
C   C242      1.0  0.98930  0.12110  0.27370  1.0000 -0.1197070019
C   C243      1.0  0.09470  0.90530  0.75000  1.0000 -0.0406630712
C   C244      1.0  0.90530  0.09470  0.25000  1.0000 -0.0406630712
C   C245      1.0  0.15790  0.84210  0.75000  1.0000 0.6088481065
C   C246      1.0  0.84210  0.15790  0.25000  1.0000 0.6088481065
C   C247      1.0  0.73220  0.18200  0.89650  1.0000 0.0892622455
C   C248      1.0  0.81800  0.26780  0.60350  1.0000 0.0892622455
C   C249      1.0  0.26780  0.81800  0.10350  1.0000 0.0892622455
C   C250      1.0  0.18200  0.73220  0.39650  1.0000 0.0892622455
C   C251      1.0  0.77100  0.22960  0.93690  1.0000 -0.1580508384
C   C252      1.0  0.77040  0.22900  0.56310  1.0000 -0.1580508384
C   C253      1.0  0.22900  0.77040  0.06310  1.0000 -0.1580508384
C   C254      1.0  0.22960  0.77100  0.43690  1.0000 -0.1580508384
C   C255      1.0  0.75540  0.20020  0.97530  1.0000 -0.1197070019
C   C256      1.0  0.79980  0.24460  0.52470  1.0000 -0.1197070019
C   C257      1.0  0.24460  0.79980  0.02470  1.0000 -0.1197070019
C   C258      1.0  0.20020  0.75540  0.47530  1.0000 -0.1197070019
C   C259      1.0  0.69900  0.12940  0.97330  1.0000 -0.002306791
C   C260      1.0  0.87060  0.30100  0.52670  1.0000 -0.002306791
C   C261      1.0  0.30100  0.87060  0.02670  1.0000 -0.002306791
C   C262      1.0  0.12940  0.69900  0.47330  1.0000 -0.002306791
C   C263      1.0  0.65860  0.08420  0.93270  1.0000 -0.08237021
C   C264      1.0  0.91580  0.34140  0.56730  1.0000 -0.08237021
C   C265      1.0  0.34140  0.91580  0.06730  1.0000 -0.08237021
C   C266      1.0  0.08420  0.65860  0.43270  1.0000 -0.08237021
C   C267      1.0  0.67600  0.11000  0.89550  1.0000 -0.1413890585
C   C268      1.0  0.89000  0.32400  0.60450  1.0000 -0.1413890585
C   C269      1.0  0.32400  0.89000  0.10450  1.0000 -0.1413890585
C   C270      1.0  0.11000  0.67600  0.39550  1.0000 -0.1413890585
C   C271      1.0  0.67790  0.10130  0.01590  1.0000 0.5020399061
C   C272      1.0  0.89870  0.32210  0.48410  1.0000 0.5020399061
C   C273      1.0  0.32210  0.89870  0.98410  1.0000 0.5020399061
C   C274      1.0  0.10130  0.67790  0.51590  1.0000 0.5020399061
C   C275      1.0  0.56550  0.43450  0.75000  1.0000 0.098352265
C   C276      1.0  0.43450  0.56550  0.25000  1.0000 0.098352265
C   C277      1.0  0.58470  0.50810  0.77700  1.0000 -0.1493253871
C   C278      1.0  0.49190  0.41530  0.72300  1.0000 -0.1493253871
C   C279      1.0  0.41530  0.49190  0.22300  1.0000 -0.1493253871
C   C280      1.0  0.50810  0.58470  0.27700  1.0000 -0.1493253871
C   C281      1.0  0.52800  0.56720  0.77780  1.0000 -0.1003111539
C   C282      1.0  0.43280  0.47200  0.72220  1.0000 -0.1003111539
C   C283      1.0  0.47200  0.43280  0.22220  1.0000 -0.1003111539
C   C284      1.0  0.56720  0.52800  0.27780  1.0000 -0.1003111539
C   C285      1.0  0.45100  0.54900  0.75000  1.0000 -0.0299757578
C   C286      1.0  0.54900  0.45100  0.25000  1.0000 -0.0299757578
C   C287      1.0  0.38850  0.61150  0.75000  1.0000 0.6526813921
C   C288      1.0  0.61150  0.38850  0.25000  1.0000 0.6526813921
N   N1        1.0  0.57970  0.08170  0.61790  1.0000 -0.2611966092
N   N2        1.0  0.91830  0.42030  0.88210  1.0000 -0.2611966092
N   N3        1.0  0.42030  0.91830  0.38210  1.0000 -0.2611966092
N   N4        1.0  0.08170  0.57970  0.11790  1.0000 -0.2611966092
N   N5        1.0  0.45330  0.19130  0.61300  1.0000 -0.2717773977
N   N6        1.0  0.80870  0.54670  0.88700  1.0000 -0.2717773977
N   N7        1.0  0.54670  0.80870  0.38700  1.0000 -0.2717773977
N   N8        1.0  0.19130  0.45330  0.11300  1.0000 -0.2717773977
N   N9        1.0  0.48590  0.21610  0.52820  1.0000 -0.2611966092
N   N10       1.0  0.78390  0.51410  0.97180  1.0000 -0.2611966092
N   N11       1.0  0.51410  0.78390  0.47180  1.0000 -0.2611966092
N   N12       1.0  0.21610  0.48590  0.02820  1.0000 -0.2611966092
N   N13       1.0  0.59330  0.08830  0.52880  1.0000 -0.2717773977
N   N14       1.0  0.91170  0.40670  0.97120  1.0000 -0.2717773977
N   N15       1.0  0.40670  0.91170  0.47120  1.0000 -0.2717773977
N   N16       1.0  0.08830  0.59330  0.02880  1.0000 -0.2717773977
N   N17       1.0  0.82390  0.15970  0.79410  1.0000 -0.2483560588
N   N18       1.0  0.84030  0.17610  0.70590  1.0000 -0.2483560588
N   N19       1.0  0.17610  0.84030  0.20590  1.0000 -0.2483560588
N   N20       1.0  0.15970  0.82390  0.29410  1.0000 -0.2483560588
N   N21       1.0  0.70760  0.28100  0.79360  1.0000 -0.2611966092
N   N22       1.0  0.71900  0.29240  0.70640  1.0000 -0.2717773977
N   N23       1.0  0.29240  0.71900  0.20640  1.0000 -0.2611966092
N   N24       1.0  0.28100  0.70760  0.29360  1.0000 -0.2717773977
O   O1        1.0  0.37150  0.96110  0.83238  1.0000 -0.7765817675
O   O2        1.0  0.03890  0.62850  0.66762  1.0000 -0.7765817675
O   O3        1.0  0.62850  0.03890  0.16762  1.0000 -0.7765817675
O   O4        1.0  0.96110  0.37150  0.33238  1.0000 -0.7765817675
O   O5        1.0  0.45740  0.07120  0.87430  1.0000 -0.5637119892
O   O6        1.0  0.92880  0.54260  0.62570  1.0000 -0.5637119892
O   O7        1.0  0.54260  0.92880  0.12570  1.0000 -0.5637119892
O   O8        1.0  0.07120  0.45740  0.37430  1.0000 -0.5637119892
O   O9        1.0  0.08200  0.50940  0.57540  1.0000 -0.5898593697
O   O10       1.0  0.49060  0.91800  0.92460  1.0000 -0.5898593697
O   O11       1.0  0.91800  0.49060  0.42460  1.0000 -0.5898593697
O   O12       1.0  0.50940  0.08200  0.07540  1.0000 -0.5898593697
O   O13       1.0  0.18050  0.59570  0.62299  1.0000 -0.7311093319
O   O14       1.0  0.40430  0.81950  0.87701  1.0000 -0.7311093319
O   O15       1.0  0.81950  0.40430  0.37701  1.0000 -0.7311093319
O   O16       1.0  0.59570  0.18050  0.12299  1.0000 -0.7311093319
O   O17       1.0  0.59610  0.15190  0.26590  1.0000 -0.5968994382
O   O18       1.0  0.84810  0.40390  0.23410  1.0000 -0.5968994382
O   O19       1.0  0.40390  0.84810  0.73410  1.0000 -0.5968994382
O   O20       1.0  0.15190  0.59610  0.76590  1.0000 -0.5968994382
O   O21       1.0  0.70070  0.24990  0.29613  1.0000 -0.7311093319
O   O22       1.0  0.75010  0.29930  0.20387  1.0000 -0.7311093319
O   O23       1.0  0.29930  0.75010  0.70387  1.0000 -0.7311093319
O   O24       1.0  0.24990  0.70070  0.79613  1.0000 -0.7311093319
O   O25       1.0  0.91600  0.72640  0.61768  1.0000 -0.4555026773
O   O26       1.0  0.27360  0.08400  0.88232  1.0000 -0.4549454633
O   O27       1.0  0.08400  0.27360  0.38232  1.0000 -0.4549454633
O   O28       1.0  0.72640  0.91600  0.11768  1.0000 -0.4555026773
O   O29       1.0  0.96280  0.75780  0.55982  1.0000 -0.6289321664
O   O30       1.0  0.24220  0.03720  0.94018  1.0000 -0.6289321664
O   O31       1.0  0.03720  0.24220  0.44018  1.0000 -0.6289321664
O   O32       1.0  0.75780  0.96280  0.05982  1.0000 -0.6289321664
O   O33       1.0  0.23130  0.86950  0.77025  1.0000 -0.6529173288
O   O34       1.0  0.13050  0.76870  0.72975  1.0000 -0.6529173288
O   O35       1.0  0.76870  0.13050  0.22975  1.0000 -0.6529173288
O   O36       1.0  0.86950  0.23130  0.27025  1.0000 -0.6529173288
O   O37       1.0  0.70640  0.14120  0.04840  1.0000 -0.4878269169
O   O38       1.0  0.85880  0.29360  0.45160  1.0000 -0.4878269169
O   O39       1.0  0.29360  0.85880  0.95160  1.0000 -0.4878269169
O   O40       1.0  0.14120  0.70640  0.54840  1.0000 -0.4878269169
O   O41       1.0  0.63380  0.03360  0.01000  1.0000 -0.5336476448
O   O42       1.0  0.96640  0.36620  0.49000  1.0000 -0.5336476448
O   O43       1.0  0.36620  0.96640  0.99000  1.0000 -0.535431135
O   O44       1.0  0.03360  0.63380  0.51000  1.0000 -0.5336476448
O   O45       1.0  0.41090  0.68370  0.77390  1.0000 -0.6881683204
O   O46       1.0  0.31630  0.58910  0.72610  1.0000 -0.6881683204
O   O47       1.0  0.58910  0.31630  0.22610  1.0000 -0.6881683204
O   O48       1.0  0.68370  0.41090  0.27390  1.0000 -0.6881683204
O   O49       1.0  0.24460  0.87260  0.86070  1.0000 -0.8714190606
O   O50       1.0  0.12740  0.75540  0.63930  1.0000 -0.8714190606
O   O51       1.0  0.75540  0.12740  0.13930  1.0000 -0.8714190606
O   O52       1.0  0.87260  0.24460  0.36070  1.0000 -0.8714190606
