# DDEC6 charges by PACMAN v1.1 (https://github.com/mtap-research/PACMAN-charge/)
data_2007[Ni][uon]3[ASR]1
_chemical_formula_sum              "Ni12 H288 C264 N96 O72"
_cell_length_a       12.5611
_cell_length_b       12.5611
_cell_length_c       62.471
_cell_angle_alpha    90
_cell_angle_beta     90
_cell_angle_gamma    120

_symmetry_space_group_name_H-M    "P 1"
_symmetry_Int_Tables_number       1

loop_
  _symmetry_equiv_pos_as_xyz
  'x, y, z'

loop_
  _atom_site_type_symbol
  _atom_site_label
  _atom_site_symmetry_multiplicity
  _atom_site_fract_x
  _atom_site_fract_y
  _atom_site_fract_z
  _atom_site_occupancy
  _atom_site_charge
Ni  Ni1       1.0  0.40573  0.59427  0.58333  1.0000 0.7080006633
Ni  Ni2       1.0  0.40573  0.81146  0.25000  1.0000 0.7080006633
Ni  Ni3       1.0  0.18854  0.59427  0.91667  1.0000 0.7080006633
Ni  Ni4       1.0  0.59427  0.40573  0.08333  1.0000 0.7080006633
Ni  Ni5       1.0  0.59427  0.18854  0.75000  1.0000 0.7080006633
Ni  Ni6       1.0  0.81146  0.40573  0.41667  1.0000 0.7080006633
Ni  Ni7       1.0  0.30390  0.65195  0.41667  1.0000 0.7041025689
Ni  Ni8       1.0  0.34805  0.65195  0.08333  1.0000 0.7041025689
Ni  Ni9       1.0  0.34805  0.69610  0.75000  1.0000 0.7041025689
Ni  Ni10      1.0  0.69610  0.34805  0.91667  1.0000 0.7080006633
Ni  Ni11      1.0  0.65195  0.34805  0.58333  1.0000 0.7041025689
Ni  Ni12      1.0  0.65195  0.30390  0.25000  1.0000 0.7041025689
H   H1        1.0  0.03640  0.19960  0.55570  1.0000 0.1308798709
H   H2        1.0  0.80040  0.83680  0.22237  1.0000 0.1308798709
H   H3        1.0  0.16320  0.96360  0.88903  1.0000 0.1308798709
H   H4        1.0  0.96360  0.80040  0.05570  1.0000 0.1308798709
H   H5        1.0  0.19960  0.16320  0.72237  1.0000 0.1308798709
H   H6        1.0  0.83680  0.03640  0.38903  1.0000 0.1308798709
H   H7        1.0  0.19960  0.03640  0.11097  1.0000 0.1308798709
H   H8        1.0  0.83680  0.80040  0.44430  1.0000 0.1308798709
H   H9        1.0  0.96360  0.16320  0.77763  1.0000 0.1308798709
H   H10       1.0  0.80040  0.96360  0.61097  1.0000 0.1308798709
H   H11       1.0  0.16320  0.19960  0.94430  1.0000 0.1308798709
H   H12       1.0  0.03640  0.83680  0.27763  1.0000 0.1308798709
H   H13       1.0  0.00360  0.29350  0.56600  1.0000 0.1120957009
H   H14       1.0  0.70650  0.71010  0.23267  1.0000 0.1120957009
H   H15       1.0  0.28990  0.99640  0.89933  1.0000 0.1120957009
H   H16       1.0  0.99640  0.70650  0.06600  1.0000 0.1120957009
H   H17       1.0  0.29350  0.28990  0.73267  1.0000 0.1120957009
H   H18       1.0  0.71010  0.00360  0.39933  1.0000 0.1120957009
H   H19       1.0  0.29350  0.00360  0.10067  1.0000 0.1120957009
H   H20       1.0  0.71010  0.70650  0.43400  1.0000 0.1120957009
H   H21       1.0  0.99640  0.28990  0.76733  1.0000 0.1120957009
H   H22       1.0  0.70650  0.99640  0.60067  1.0000 0.1120957009
H   H23       1.0  0.28990  0.29350  0.93400  1.0000 0.1120957009
H   H24       1.0  0.00360  0.71010  0.26733  1.0000 0.1120957009
H   H25       1.0  0.09640  0.70960  0.47980  1.0000 0.1120957009
H   H26       1.0  0.29040  0.38680  0.14647  1.0000 0.1120957009
H   H27       1.0  0.61320  0.90360  0.81313  1.0000 0.1120957009
H   H28       1.0  0.90360  0.29040  0.97980  1.0000 0.1120957009
H   H29       1.0  0.70960  0.61320  0.64647  1.0000 0.1120957009
H   H30       1.0  0.38680  0.09640  0.31313  1.0000 0.1120957009
H   H31       1.0  0.70960  0.09640  0.18687  1.0000 0.1120957009
H   H32       1.0  0.38680  0.29040  0.52020  1.0000 0.1120957009
H   H33       1.0  0.90360  0.61320  0.85353  1.0000 0.1120957009
H   H34       1.0  0.29040  0.90360  0.68687  1.0000 0.1120957009
H   H35       1.0  0.61320  0.70960  0.02020  1.0000 0.1120957009
H   H36       1.0  0.09640  0.38680  0.35353  1.0000 0.1120957009
H   H37       1.0  0.98480  0.60730  0.46690  1.0000 0.1308798709
H   H38       1.0  0.39270  0.37750  0.13357  1.0000 0.1308798709
H   H39       1.0  0.62250  0.01520  0.80023  1.0000 0.1308798709
H   H40       1.0  0.01520  0.39270  0.96690  1.0000 0.1308798709
H   H41       1.0  0.60730  0.62250  0.63357  1.0000 0.1308798709
H   H42       1.0  0.37750  0.98480  0.30023  1.0000 0.1308798709
H   H43       1.0  0.60730  0.98480  0.19977  1.0000 0.1308798709
H   H44       1.0  0.37750  0.39270  0.53310  1.0000 0.1308798709
H   H45       1.0  0.01520  0.62250  0.86643  1.0000 0.1308798709
H   H46       1.0  0.39270  0.01520  0.69977  1.0000 0.1308798709
H   H47       1.0  0.62250  0.60730  0.03310  1.0000 0.1308798709
H   H48       1.0  0.98480  0.37750  0.36643  1.0000 0.1308798709
H   H49       1.0  0.05860  0.78890  0.52840  1.0000 0.1184757205
H   H50       1.0  0.21110  0.26970  0.19507  1.0000 0.1184757205
H   H51       1.0  0.73030  0.94140  0.86173  1.0000 0.1184757205
H   H52       1.0  0.94140  0.21110  0.02840  1.0000 0.1184757205
H   H53       1.0  0.78890  0.73030  0.69507  1.0000 0.1184757205
H   H54       1.0  0.26970  0.05860  0.36173  1.0000 0.1184757205
H   H55       1.0  0.78890  0.05860  0.13827  1.0000 0.1184757205
H   H56       1.0  0.26970  0.21110  0.47160  1.0000 0.1184757205
H   H57       1.0  0.94140  0.73030  0.80493  1.0000 0.1184757205
H   H58       1.0  0.21110  0.94140  0.63827  1.0000 0.1184757205
H   H59       1.0  0.73030  0.78890  0.97160  1.0000 0.1184757205
H   H60       1.0  0.05860  0.26970  0.30493  1.0000 0.1184757205
H   H61       1.0  0.99980  0.79230  0.55030  1.0000 0.1414423046
H   H62       1.0  0.20770  0.20750  0.21697  1.0000 0.1414423046
H   H63       1.0  0.79250  0.00020  0.88363  1.0000 0.1414423046
H   H64       1.0  0.00020  0.20770  0.05030  1.0000 0.1414423046
H   H65       1.0  0.79230  0.79250  0.71697  1.0000 0.1414423046
H   H66       1.0  0.20750  0.99980  0.38363  1.0000 0.1414423046
H   H67       1.0  0.79230  0.99980  0.11637  1.0000 0.1414423046
H   H68       1.0  0.20750  0.20770  0.44970  1.0000 0.1414423046
H   H69       1.0  0.00020  0.79250  0.78303  1.0000 0.1414423046
H   H70       1.0  0.20770  0.00020  0.61637  1.0000 0.1414423046
H   H71       1.0  0.79250  0.79230  0.94970  1.0000 0.1414423046
H   H72       1.0  0.99980  0.20750  0.28303  1.0000 0.1414423046
H   H73       1.0  0.40890  0.84300  0.58180  1.0000 0.102033954
H   H74       1.0  0.15700  0.56590  0.24847  1.0000 0.102033954
H   H75       1.0  0.43410  0.59110  0.91513  1.0000 0.102033954
H   H76       1.0  0.59110  0.15700  0.08180  1.0000 0.102033954
H   H77       1.0  0.84300  0.43410  0.74847  1.0000 0.102033954
H   H78       1.0  0.56590  0.40890  0.41513  1.0000 0.102033954
H   H79       1.0  0.84300  0.40890  0.08487  1.0000 0.102033954
H   H80       1.0  0.56590  0.15700  0.41820  1.0000 0.102033954
H   H81       1.0  0.59110  0.43410  0.75153  1.0000 0.102033954
H   H82       1.0  0.15700  0.59110  0.58487  1.0000 0.102033954
H   H83       1.0  0.43410  0.84300  0.91820  1.0000 0.102033954
H   H84       1.0  0.40890  0.56590  0.25153  1.0000 0.102033954
H   H85       1.0  0.37380  0.96170  0.55830  1.0000 0.1463743663
H   H86       1.0  0.03830  0.41210  0.22497  1.0000 0.1463743663
H   H87       1.0  0.58790  0.62620  0.89163  1.0000 0.1463743663
H   H88       1.0  0.62620  0.03830  0.05830  1.0000 0.1463743663
H   H89       1.0  0.96170  0.58790  0.72497  1.0000 0.1463743663
H   H90       1.0  0.41210  0.37380  0.39163  1.0000 0.1463743663
H   H91       1.0  0.96170  0.37380  0.10837  1.0000 0.1463743663
H   H92       1.0  0.41210  0.03830  0.44170  1.0000 0.1463743663
H   H93       1.0  0.62620  0.58790  0.77503  1.0000 0.1463743663
H   H94       1.0  0.03830  0.62620  0.60837  1.0000 0.1463743663
H   H95       1.0  0.58790  0.96170  0.94170  1.0000 0.1463743663
H   H96       1.0  0.37380  0.41210  0.27503  1.0000 0.1463743663
H   H97       1.0  0.33790  0.72940  0.51180  1.0000 0.1414423046
H   H98       1.0  0.27060  0.60850  0.17847  1.0000 0.1414423046
H   H99       1.0  0.39150  0.66210  0.84513  1.0000 0.1414423046
H   H100      1.0  0.66210  0.27060  0.01180  1.0000 0.1414423046
H   H101      1.0  0.72940  0.39150  0.67847  1.0000 0.1414423046
H   H102      1.0  0.60850  0.33790  0.34513  1.0000 0.1414423046
H   H103      1.0  0.72940  0.33790  0.15487  1.0000 0.1414423046
H   H104      1.0  0.60850  0.27060  0.48820  1.0000 0.1414423046
H   H105      1.0  0.66210  0.39150  0.82153  1.0000 0.1414423046
H   H106      1.0  0.27060  0.66210  0.65487  1.0000 0.1414423046
H   H107      1.0  0.39150  0.72940  0.98820  1.0000 0.1414423046
H   H108      1.0  0.33790  0.60850  0.32153  1.0000 0.1414423046
H   H109      1.0  0.37310  0.61630  0.53600  1.0000 0.1184757205
H   H110      1.0  0.38370  0.75680  0.20267  1.0000 0.1184757205
H   H111      1.0  0.24320  0.62690  0.86933  1.0000 0.1184757205
H   H112      1.0  0.62690  0.38370  0.03600  1.0000 0.1184757205
H   H113      1.0  0.61630  0.24320  0.70267  1.0000 0.1184757205
H   H114      1.0  0.75680  0.37310  0.36933  1.0000 0.1184757205
H   H115      1.0  0.61630  0.37310  0.13067  1.0000 0.1184757205
H   H116      1.0  0.75680  0.38370  0.46400  1.0000 0.1184757205
H   H117      1.0  0.62690  0.24320  0.79733  1.0000 0.1184757205
H   H118      1.0  0.38370  0.62690  0.63067  1.0000 0.1184757205
H   H119      1.0  0.24320  0.61630  0.96400  1.0000 0.1184757205
H   H120      1.0  0.37310  0.75680  0.29733  1.0000 0.1184757205
H   H121      1.0  0.30900  0.99180  0.52420  1.0000 0.1308798709
H   H122      1.0  0.00820  0.31720  0.19087  1.0000 0.1308798709
H   H123      1.0  0.68280  0.69100  0.85753  1.0000 0.1308798709
H   H124      1.0  0.69100  0.00820  0.02420  1.0000 0.1308798709
H   H125      1.0  0.99180  0.68280  0.69087  1.0000 0.1308798709
H   H126      1.0  0.31720  0.30900  0.35753  1.0000 0.1308798709
H   H127      1.0  0.99180  0.30900  0.14247  1.0000 0.1308798709
H   H128      1.0  0.31720  0.00820  0.47580  1.0000 0.1308798709
H   H129      1.0  0.69100  0.68280  0.80913  1.0000 0.1308798709
H   H130      1.0  0.00820  0.69100  0.64247  1.0000 0.1308798709
H   H131      1.0  0.68280  0.99180  0.97580  1.0000 0.1308798709
H   H132      1.0  0.30900  0.31720  0.30913  1.0000 0.1308798709
H   H133      1.0  0.24640  0.87730  0.50900  1.0000 0.1184757205
H   H134      1.0  0.12270  0.36910  0.17567  1.0000 0.1308798709
H   H135      1.0  0.63090  0.75360  0.84233  1.0000 0.1184757205
H   H136      1.0  0.75360  0.12270  0.00900  1.0000 0.1308798709
H   H137      1.0  0.87730  0.63090  0.67567  1.0000 0.1184757205
H   H138      1.0  0.36910  0.24640  0.34233  1.0000 0.1308798709
H   H139      1.0  0.87730  0.24640  0.15767  1.0000 0.1308798709
H   H140      1.0  0.36910  0.12270  0.49100  1.0000 0.1184757205
H   H141      1.0  0.75360  0.63090  0.82433  1.0000 0.1184757205
H   H142      1.0  0.12270  0.75360  0.65767  1.0000 0.1184757205
H   H143      1.0  0.63090  0.87730  0.99100  1.0000 0.1308798709
H   H144      1.0  0.24640  0.36910  0.32433  1.0000 0.1308798709
H   H145      1.0  0.43950  0.94140  0.49270  1.0000 0.102033954
H   H146      1.0  0.05860  0.49810  0.15937  1.0000 0.102033954
H   H147      1.0  0.50190  0.56050  0.82603  1.0000 0.102033954
H   H148      1.0  0.56050  0.05860  0.99270  1.0000 0.102033954
H   H149      1.0  0.94140  0.50190  0.65937  1.0000 0.102033954
H   H150      1.0  0.49810  0.43950  0.32603  1.0000 0.102033954
H   H151      1.0  0.94140  0.43950  0.17397  1.0000 0.102033954
H   H152      1.0  0.49810  0.05860  0.50730  1.0000 0.102033954
H   H153      1.0  0.56050  0.50190  0.84063  1.0000 0.102033954
H   H154      1.0  0.05860  0.56050  0.67397  1.0000 0.102033954
H   H155      1.0  0.50190  0.94140  0.00730  1.0000 0.102033954
H   H156      1.0  0.43950  0.49810  0.34063  1.0000 0.102033954
H   H157      1.0  0.37210  0.74660  0.37090  1.0000 0.1184757205
H   H158      1.0  0.25340  0.62550  0.03757  1.0000 0.1184757205
H   H159      1.0  0.37450  0.62790  0.70423  1.0000 0.1184757205
H   H160      1.0  0.62790  0.25340  0.87090  1.0000 0.1184757205
H   H161      1.0  0.74660  0.37450  0.53757  1.0000 0.1184757205
H   H162      1.0  0.62550  0.37210  0.20423  1.0000 0.1184757205
H   H163      1.0  0.74660  0.37210  0.29577  1.0000 0.1184757205
H   H164      1.0  0.62550  0.25340  0.62910  1.0000 0.1184757205
H   H165      1.0  0.62790  0.37450  0.96243  1.0000 0.1184757205
H   H166      1.0  0.25340  0.62790  0.79577  1.0000 0.1184757205
H   H167      1.0  0.37450  0.74660  0.12910  1.0000 0.1184757205
H   H168      1.0  0.37210  0.62550  0.46243  1.0000 0.1184757205
H   H169      1.0  0.52780  0.80910  0.34720  1.0000 0.1414423046
H   H170      1.0  0.19090  0.71870  0.01387  1.0000 0.1414423046
H   H171      1.0  0.28130  0.47220  0.68053  1.0000 0.1414423046
H   H172      1.0  0.47220  0.19090  0.84720  1.0000 0.1414423046
H   H173      1.0  0.80910  0.28130  0.51387  1.0000 0.1414423046
H   H174      1.0  0.71870  0.52780  0.18053  1.0000 0.1414423046
H   H175      1.0  0.80910  0.52780  0.31947  1.0000 0.1414423046
H   H176      1.0  0.71870  0.19090  0.65280  1.0000 0.1414423046
H   H177      1.0  0.47220  0.28130  0.98613  1.0000 0.1414423046
H   H178      1.0  0.19090  0.47220  0.81947  1.0000 0.1414423046
H   H179      1.0  0.28130  0.80910  0.15280  1.0000 0.1414423046
H   H180      1.0  0.52780  0.71870  0.48613  1.0000 0.1414423046
H   H181      1.0  0.70020  0.70260  0.38860  1.0000 0.1463743663
H   H182      1.0  0.29740  0.99760  0.05527  1.0000 0.1463743663
H   H183      1.0  0.00240  0.29980  0.72193  1.0000 0.1463743663
H   H184      1.0  0.29980  0.29740  0.88860  1.0000 0.1463743663
H   H185      1.0  0.70260  0.00240  0.55527  1.0000 0.1463743663
H   H186      1.0  0.99760  0.70020  0.22193  1.0000 0.1463743663
H   H187      1.0  0.70260  0.70020  0.27807  1.0000 0.1463743663
H   H188      1.0  0.99760  0.29740  0.61140  1.0000 0.1463743663
H   H189      1.0  0.29980  0.00240  0.94473  1.0000 0.1463743663
H   H190      1.0  0.29740  0.29980  0.77807  1.0000 0.1463743663
H   H191      1.0  0.00240  0.70260  0.11140  1.0000 0.1463743663
H   H192      1.0  0.70020  0.99760  0.44473  1.0000 0.1463743663
H   H193      1.0  0.53630  0.63930  0.41080  1.0000 0.102033954
H   H194      1.0  0.36070  0.89700  0.07747  1.0000 0.102033954
H   H195      1.0  0.10300  0.46370  0.74413  1.0000 0.102033954
H   H196      1.0  0.46370  0.36070  0.91080  1.0000 0.102033954
H   H197      1.0  0.63930  0.10300  0.57747  1.0000 0.102033954
H   H198      1.0  0.89700  0.53630  0.24413  1.0000 0.102033954
H   H199      1.0  0.63930  0.53630  0.25587  1.0000 0.102033954
H   H200      1.0  0.89700  0.36070  0.58920  1.0000 0.102033954
H   H201      1.0  0.46370  0.10300  0.92253  1.0000 0.102033954
H   H202      1.0  0.36070  0.46370  0.75587  1.0000 0.102033954
H   H203      1.0  0.10300  0.63930  0.08920  1.0000 0.102033954
H   H204      1.0  0.53630  0.89700  0.42253  1.0000 0.102033954
H   H205      1.0  0.75980  0.88640  0.34250  1.0000 0.1184757205
H   H206      1.0  0.11360  0.87340  0.00917  1.0000 0.1184757205
H   H207      1.0  0.12660  0.24020  0.67583  1.0000 0.1184757205
H   H208      1.0  0.24020  0.11360  0.84250  1.0000 0.1184757205
H   H209      1.0  0.88640  0.12660  0.50917  1.0000 0.1184757205
H   H210      1.0  0.87340  0.75980  0.17583  1.0000 0.1184757205
H   H211      1.0  0.88640  0.75980  0.32417  1.0000 0.1184757205
H   H212      1.0  0.87340  0.11360  0.65750  1.0000 0.1184757205
H   H213      1.0  0.24020  0.12660  0.99083  1.0000 0.1184757205
H   H214      1.0  0.11360  0.24020  0.82417  1.0000 0.1184757205
H   H215      1.0  0.12660  0.88640  0.15750  1.0000 0.1184757205
H   H216      1.0  0.75980  0.87340  0.49083  1.0000 0.1184757205
H   H217      1.0  0.81740  0.82710  0.35730  1.0000 0.1308798709
H   H218      1.0  0.17290  0.99030  0.02397  1.0000 0.1308798709
H   H219      1.0  0.00970  0.18260  0.69063  1.0000 0.1308798709
H   H220      1.0  0.18260  0.17290  0.85730  1.0000 0.1308798709
H   H221      1.0  0.82710  0.00970  0.52397  1.0000 0.1308798709
H   H222      1.0  0.99030  0.81740  0.19063  1.0000 0.1308798709
H   H223      1.0  0.82710  0.81740  0.30937  1.0000 0.1308798709
H   H224      1.0  0.99030  0.17290  0.64270  1.0000 0.1308798709
H   H225      1.0  0.18260  0.00970  0.97603  1.0000 0.1308798709
H   H226      1.0  0.17290  0.18260  0.80937  1.0000 0.1308798709
H   H227      1.0  0.00970  0.82710  0.14270  1.0000 0.1308798709
H   H228      1.0  0.81740  0.99030  0.47603  1.0000 0.1308798709
H   H229      1.0  0.69560  0.63820  0.34060  1.0000 0.102033954
H   H230      1.0  0.36180  0.05740  0.00727  1.0000 0.102033954
H   H231      1.0  0.94260  0.30440  0.67393  1.0000 0.102033954
H   H232      1.0  0.30440  0.36180  0.84060  1.0000 0.102033954
H   H233      1.0  0.63820  0.94260  0.50727  1.0000 0.102033954
H   H234      1.0  0.05740  0.69560  0.17393  1.0000 0.102033954
H   H235      1.0  0.63820  0.69560  0.32607  1.0000 0.102033954
H   H236      1.0  0.05740  0.36180  0.65940  1.0000 0.102033954
H   H237      1.0  0.30440  0.94260  0.99273  1.0000 0.102033954
H   H238      1.0  0.36180  0.30440  0.82607  1.0000 0.102033954
H   H239      1.0  0.94260  0.63820  0.15940  1.0000 0.102033954
H   H240      1.0  0.69560  0.05740  0.49273  1.0000 0.102033954
H   H241      1.0  0.09700  0.27590  0.52870  1.0000 0.2828251872
H   H242      1.0  0.72410  0.82110  0.19537  1.0000 0.2828251872
H   H243      1.0  0.17890  0.90300  0.86203  1.0000 0.2828251872
H   H244      1.0  0.90300  0.72410  0.02870  1.0000 0.2828251872
H   H245      1.0  0.27590  0.17890  0.69537  1.0000 0.2828251872
H   H246      1.0  0.82110  0.09700  0.36203  1.0000 0.2828251872
H   H247      1.0  0.27590  0.09700  0.13797  1.0000 0.2828251872
H   H248      1.0  0.82110  0.72410  0.47130  1.0000 0.2828251872
H   H249      1.0  0.90300  0.17890  0.80463  1.0000 0.2828251872
H   H250      1.0  0.72410  0.90300  0.63797  1.0000 0.2828251872
H   H251      1.0  0.17890  0.27590  0.97130  1.0000 0.2828251872
H   H252      1.0  0.09700  0.82110  0.30463  1.0000 0.2828251872
H   H253      1.0  0.10890  0.50320  0.47260  1.0000 0.2828251872
H   H254      1.0  0.49680  0.60570  0.13927  1.0000 0.2828251872
H   H255      1.0  0.39430  0.89110  0.80593  1.0000 0.2828251872
H   H256      1.0  0.89110  0.49680  0.97260  1.0000 0.2828251872
H   H257      1.0  0.50320  0.39430  0.63927  1.0000 0.2828251872
H   H258      1.0  0.60570  0.10890  0.30593  1.0000 0.2828251872
H   H259      1.0  0.50320  0.10890  0.19407  1.0000 0.2828251872
H   H260      1.0  0.60570  0.49680  0.52740  1.0000 0.2828251872
H   H261      1.0  0.89110  0.39430  0.86073  1.0000 0.2828251872
H   H262      1.0  0.49680  0.89110  0.69407  1.0000 0.2828251872
H   H263      1.0  0.39430  0.50320  0.02740  1.0000 0.2828251872
H   H264      1.0  0.10890  0.60570  0.36073  1.0000 0.2828251872
H   H265      1.0  0.02480  0.63990  0.56090  1.0000 0.2887634924
H   H266      1.0  0.36010  0.38490  0.22757  1.0000 0.2887634924
H   H267      1.0  0.61510  0.97520  0.89423  1.0000 0.2887634924
H   H268      1.0  0.97520  0.36010  0.06090  1.0000 0.2887634924
H   H269      1.0  0.63990  0.61510  0.72757  1.0000 0.2887634924
H   H270      1.0  0.38490  0.02480  0.39423  1.0000 0.2887634924
H   H271      1.0  0.63990  0.02480  0.10577  1.0000 0.2887634924
H   H272      1.0  0.38490  0.36010  0.43910  1.0000 0.2887634924
H   H273      1.0  0.97520  0.61510  0.77243  1.0000 0.2887634924
H   H274      1.0  0.36010  0.97520  0.60577  1.0000 0.2887634924
H   H275      1.0  0.61510  0.63990  0.93910  1.0000 0.2887634924
H   H276      1.0  0.02480  0.38490  0.27243  1.0000 0.2887634924
H   H277      1.0  0.78560  0.69300  0.50750  1.0000 0.3157061031
H   H278      1.0  0.30700  0.09260  0.17417  1.0000 0.3157061031
H   H279      1.0  0.90740  0.21440  0.84083  1.0000 0.3157061031
H   H280      1.0  0.21440  0.30700  0.00750  1.0000 0.3157061031
H   H281      1.0  0.69300  0.90740  0.67417  1.0000 0.3157061031
H   H282      1.0  0.09260  0.78560  0.34083  1.0000 0.3157061031
H   H283      1.0  0.69300  0.78560  0.15917  1.0000 0.3157061031
H   H284      1.0  0.09260  0.30700  0.49250  1.0000 0.3157061031
H   H285      1.0  0.21440  0.90740  0.82583  1.0000 0.3157061031
H   H286      1.0  0.30700  0.21440  0.65917  1.0000 0.3157061031
H   H287      1.0  0.90740  0.69300  0.99250  1.0000 0.3157061031
H   H288      1.0  0.78560  0.09260  0.32583  1.0000 0.3157061031
C   C1        1.0  0.07610  0.41420  0.53097  1.0000 0.518008309
C   C2        1.0  0.58580  0.66190  0.19764  1.0000 0.518008309
C   C3        1.0  0.33810  0.92390  0.86430  1.0000 0.518008309
C   C4        1.0  0.92390  0.58580  0.03097  1.0000 0.518008309
C   C5        1.0  0.41420  0.33810  0.69764  1.0000 0.518008309
C   C6        1.0  0.66190  0.07610  0.36430  1.0000 0.518008309
C   C7        1.0  0.41420  0.07610  0.13570  1.0000 0.518008309
C   C8        1.0  0.66190  0.58580  0.46903  1.0000 0.518008309
C   C9        1.0  0.92390  0.33810  0.80236  1.0000 0.518008309
C   C10       1.0  0.58580  0.92390  0.63570  1.0000 0.518008309
C   C11       1.0  0.33810  0.41420  0.96903  1.0000 0.518008309
C   C12       1.0  0.07610  0.66190  0.30236  1.0000 0.518008309
C   C13       1.0  0.07570  0.52720  0.50141  1.0000 0.518008309
C   C14       1.0  0.47280  0.54850  0.16808  1.0000 0.518008309
C   C15       1.0  0.45150  0.92430  0.83474  1.0000 0.518008309
C   C16       1.0  0.92430  0.47280  0.00141  1.0000 0.518008309
C   C17       1.0  0.52720  0.45150  0.66808  1.0000 0.518008309
C   C18       1.0  0.54850  0.07570  0.33474  1.0000 0.518008309
C   C19       1.0  0.52720  0.07570  0.16526  1.0000 0.518008309
C   C20       1.0  0.54850  0.47280  0.49859  1.0000 0.518008309
C   C21       1.0  0.92430  0.45150  0.83192  1.0000 0.518008309
C   C22       1.0  0.47280  0.92430  0.66526  1.0000 0.518008309
C   C23       1.0  0.45150  0.52720  0.99859  1.0000 0.518008309
C   C24       1.0  0.07570  0.54850  0.33192  1.0000 0.518008309
C   C25       1.0  0.04140  0.57200  0.53454  1.0000 0.518008309
C   C26       1.0  0.42800  0.46940  0.20121  1.0000 0.518008309
C   C27       1.0  0.53060  0.95860  0.86787  1.0000 0.518008309
C   C28       1.0  0.95860  0.42800  0.03454  1.0000 0.518008309
C   C29       1.0  0.57200  0.53060  0.70121  1.0000 0.518008309
C   C30       1.0  0.46940  0.04140  0.36787  1.0000 0.518008309
C   C31       1.0  0.57200  0.04140  0.13213  1.0000 0.518008309
C   C32       1.0  0.46940  0.42800  0.46546  1.0000 0.518008309
C   C33       1.0  0.95860  0.53060  0.79879  1.0000 0.518008309
C   C34       1.0  0.42800  0.95860  0.63213  1.0000 0.518008309
C   C35       1.0  0.53060  0.57200  0.96546  1.0000 0.518008309
C   C36       1.0  0.04140  0.46940  0.29879  1.0000 0.518008309
C   C37       1.0  0.07040  0.28400  0.56042  1.0000 -0.2156913141
C   C38       1.0  0.71600  0.78640  0.22709  1.0000 -0.2119966035
C   C39       1.0  0.21360  0.92960  0.89375  1.0000 -0.2119966035
C   C40       1.0  0.92960  0.71600  0.06042  1.0000 -0.2119966035
C   C41       1.0  0.28400  0.21360  0.72709  1.0000 -0.2119966035
C   C42       1.0  0.78640  0.07040  0.39375  1.0000 -0.2119966035
C   C43       1.0  0.28400  0.07040  0.10625  1.0000 -0.2119966035
C   C44       1.0  0.78640  0.71600  0.43958  1.0000 -0.2119966035
C   C45       1.0  0.92960  0.21360  0.77291  1.0000 -0.2119966035
C   C46       1.0  0.71600  0.92960  0.60625  1.0000 -0.2119966035
C   C47       1.0  0.21360  0.28400  0.93958  1.0000 -0.2119966035
C   C48       1.0  0.07040  0.78640  0.27291  1.0000 -0.2119966035
C   C49       1.0  0.18200  0.35420  0.57401  1.0000 0.5831308058
C   C50       1.0  0.64580  0.82780  0.24068  1.0000 0.5831308058
C   C51       1.0  0.17220  0.81800  0.90734  1.0000 0.5831308058
C   C52       1.0  0.81800  0.64580  0.07401  1.0000 0.5831308058
C   C53       1.0  0.35420  0.17220  0.74068  1.0000 0.5831308058
C   C54       1.0  0.82780  0.18200  0.40734  1.0000 0.5831308058
C   C55       1.0  0.35420  0.18200  0.09266  1.0000 0.5831308058
C   C56       1.0  0.82780  0.64580  0.42599  1.0000 0.5831308058
C   C57       1.0  0.81800  0.17220  0.75932  1.0000 0.5831308058
C   C58       1.0  0.64580  0.81800  0.59266  1.0000 0.5831308058
C   C59       1.0  0.17220  0.35420  0.92599  1.0000 0.5831308058
C   C60       1.0  0.18200  0.82780  0.25932  1.0000 0.5831308058
C   C61       1.0  0.07140  0.64090  0.47004  1.0000 -0.2015184524
C   C62       1.0  0.35910  0.43050  0.13671  1.0000 -0.2015184524
C   C63       1.0  0.56950  0.92860  0.80337  1.0000 -0.2015184524
C   C64       1.0  0.92860  0.35910  0.97004  1.0000 -0.2015184524
C   C65       1.0  0.64090  0.56950  0.63671  1.0000 -0.2015184524
C   C66       1.0  0.43050  0.07140  0.30337  1.0000 -0.2015184524
C   C67       1.0  0.64090  0.07140  0.19663  1.0000 -0.2015184524
C   C68       1.0  0.43050  0.35910  0.52996  1.0000 -0.2015184524
C   C69       1.0  0.92860  0.56950  0.86329  1.0000 -0.2015184524
C   C70       1.0  0.35910  0.92860  0.69663  1.0000 -0.2015184524
C   C71       1.0  0.56950  0.64090  0.02996  1.0000 -0.2015184524
C   C72       1.0  0.07140  0.43050  0.36329  1.0000 -0.2015184524
C   C73       1.0  0.14450  0.68610  0.44957  1.0000 0.6007633498
C   C74       1.0  0.31390  0.45840  0.11624  1.0000 0.6007633498
C   C75       1.0  0.54160  0.85550  0.78290  1.0000 0.6007633498
C   C76       1.0  0.85550  0.31390  0.94957  1.0000 0.6007633498
C   C77       1.0  0.68610  0.54160  0.61624  1.0000 0.6007633498
C   C78       1.0  0.45840  0.14450  0.28290  1.0000 0.6007633498
C   C79       1.0  0.68610  0.14450  0.21710  1.0000 0.6007633498
C   C80       1.0  0.45840  0.31390  0.55043  1.0000 0.6007633498
C   C81       1.0  0.85550  0.54160  0.88376  1.0000 0.6007633498
C   C82       1.0  0.31390  0.85550  0.71710  1.0000 0.6007633498
C   C83       1.0  0.54160  0.68610  0.05043  1.0000 0.6007633498
C   C84       1.0  0.14450  0.45840  0.38376  1.0000 0.6007633498
C   C85       1.0  0.99580  0.73890  0.53874  1.0000 -0.2119966035
C   C86       1.0  0.26110  0.25690  0.20541  1.0000 -0.2119966035
C   C87       1.0  0.74310  0.00420  0.87207  1.0000 -0.2119966035
C   C88       1.0  0.00420  0.26110  0.03874  1.0000 -0.2119966035
C   C89       1.0  0.73890  0.74310  0.70541  1.0000 -0.2119966035
C   C90       1.0  0.25690  0.99580  0.37207  1.0000 -0.2119966035
C   C91       1.0  0.73890  0.99580  0.12793  1.0000 -0.2119966035
C   C92       1.0  0.25690  0.26110  0.46126  1.0000 -0.2119966035
C   C93       1.0  0.00420  0.74310  0.79459  1.0000 -0.2119966035
C   C94       1.0  0.26110  0.00420  0.62793  1.0000 -0.2119966035
C   C95       1.0  0.74310  0.73890  0.96126  1.0000 -0.2119966035
C   C96       1.0  0.99580  0.25690  0.29459  1.0000 -0.2119966035
C   C97       1.0  0.86920  0.68300  0.52801  1.0000 0.5924825361
C   C98       1.0  0.31700  0.18620  0.19468  1.0000 0.5924825361
C   C99       1.0  0.81380  0.13080  0.86134  1.0000 0.5924825361
C   C100      1.0  0.13080  0.31700  0.02801  1.0000 0.5924825361
C   C101      1.0  0.68300  0.81380  0.69468  1.0000 0.5924825361
C   C102      1.0  0.18620  0.86920  0.36134  1.0000 0.5924825361
C   C103      1.0  0.68300  0.86920  0.13866  1.0000 0.5924825361
C   C104      1.0  0.18620  0.31700  0.47199  1.0000 0.5924825361
C   C105      1.0  0.13080  0.81380  0.80532  1.0000 0.5924825361
C   C106      1.0  0.31700  0.13080  0.63866  1.0000 0.5924825361
C   C107      1.0  0.81380  0.68300  0.97199  1.0000 0.5924825361
C   C108      1.0  0.86920  0.18620  0.30532  1.0000 0.5924825361
C   C109      1.0  0.39390  0.81900  0.56755  1.0000 0.0742909303
C   C110      1.0  0.18100  0.57490  0.23422  1.0000 0.0742909303
C   C111      1.0  0.42510  0.60610  0.90088  1.0000 0.0742909303
C   C112      1.0  0.60610  0.18100  0.06755  1.0000 0.0742909303
C   C113      1.0  0.81900  0.42510  0.73422  1.0000 0.0742909303
C   C114      1.0  0.57490  0.39390  0.40088  1.0000 0.0742909303
C   C115      1.0  0.81900  0.39390  0.09912  1.0000 0.0742909303
C   C116      1.0  0.57490  0.18100  0.43245  1.0000 0.0742909303
C   C117      1.0  0.60610  0.42510  0.76578  1.0000 0.0742909303
C   C118      1.0  0.18100  0.60610  0.59912  1.0000 0.0742909303
C   C119      1.0  0.42510  0.81900  0.93245  1.0000 0.0742909303
C   C120      1.0  0.39390  0.57490  0.26578  1.0000 0.0742909303
C   C121      1.0  0.37280  0.89130  0.55341  1.0000 -0.2156913141
C   C122      1.0  0.10870  0.48150  0.22008  1.0000 -0.2156913141
C   C123      1.0  0.51850  0.62720  0.88674  1.0000 -0.2156913141
C   C124      1.0  0.62720  0.10870  0.05341  1.0000 -0.2156913141
C   C125      1.0  0.89130  0.51850  0.72008  1.0000 -0.2156913141
C   C126      1.0  0.48150  0.37280  0.38674  1.0000 -0.2156913141
C   C127      1.0  0.89130  0.37280  0.11326  1.0000 -0.2156913141
C   C128      1.0  0.48150  0.10870  0.44659  1.0000 -0.2156913141
C   C129      1.0  0.62720  0.51850  0.77992  1.0000 -0.2156913141
C   C130      1.0  0.10870  0.62720  0.61326  1.0000 -0.2156913141
C   C131      1.0  0.51850  0.89130  0.94659  1.0000 -0.2156913141
C   C132      1.0  0.37280  0.48150  0.27992  1.0000 -0.2156913141
C   C133      1.0  0.35040  0.85960  0.53211  1.0000 0.1783152586
C   C134      1.0  0.14040  0.49080  0.19878  1.0000 0.1783152586
C   C135      1.0  0.50920  0.64960  0.86544  1.0000 0.1783152586
C   C136      1.0  0.64960  0.14040  0.03211  1.0000 0.1783152586
C   C137      1.0  0.85960  0.50920  0.69878  1.0000 0.1783152586
C   C138      1.0  0.49080  0.35040  0.36544  1.0000 0.1783152586
C   C139      1.0  0.85960  0.35040  0.13456  1.0000 0.1783152586
C   C140      1.0  0.49080  0.14040  0.46789  1.0000 0.1783152586
C   C141      1.0  0.64960  0.50920  0.80122  1.0000 0.1783152586
C   C142      1.0  0.14040  0.64960  0.63456  1.0000 0.1783152586
C   C143      1.0  0.50920  0.85960  0.96789  1.0000 0.1783152586
C   C144      1.0  0.35040  0.49080  0.30122  1.0000 0.1783152586
C   C145      1.0  0.35160  0.75430  0.52601  1.0000 -0.2015184524
C   C146      1.0  0.24570  0.59730  0.19268  1.0000 -0.2015184524
C   C147      1.0  0.40270  0.64840  0.85934  1.0000 -0.2015184524
C   C148      1.0  0.64840  0.24570  0.02601  1.0000 -0.2015184524
C   C149      1.0  0.75430  0.40270  0.69268  1.0000 -0.2015184524
C   C150      1.0  0.59730  0.35160  0.35934  1.0000 -0.2015184524
C   C151      1.0  0.75430  0.35160  0.14066  1.0000 -0.2015184524
C   C152      1.0  0.59730  0.24570  0.47399  1.0000 -0.2015184524
C   C153      1.0  0.64840  0.40270  0.80732  1.0000 -0.2015184524
C   C154      1.0  0.24570  0.64840  0.64066  1.0000 -0.2015184524
C   C155      1.0  0.40270  0.75430  0.97399  1.0000 -0.2015184524
C   C156      1.0  0.35160  0.59730  0.30732  1.0000 -0.2015184524
C   C157      1.0  0.37290  0.68650  0.54069  1.0000 0.0791359466
C   C158      1.0  0.31350  0.68640  0.20736  1.0000 0.0791359466
C   C159      1.0  0.31360  0.62710  0.87402  1.0000 0.0791359466
C   C160      1.0  0.62710  0.31350  0.04069  1.0000 0.0791359466
C   C161      1.0  0.68650  0.31360  0.70736  1.0000 0.0791359466
C   C162      1.0  0.68640  0.37290  0.37402  1.0000 0.0791359466
C   C163      1.0  0.68650  0.37290  0.12598  1.0000 0.0791359466
C   C164      1.0  0.68640  0.31350  0.45931  1.0000 0.0791359466
C   C165      1.0  0.62710  0.31360  0.79264  1.0000 0.0791359466
C   C166      1.0  0.31350  0.62710  0.62598  1.0000 0.0791359466
C   C167      1.0  0.31360  0.68650  0.95931  1.0000 0.0791359466
C   C168      1.0  0.37290  0.68640  0.29264  1.0000 0.0791359466
C   C169      1.0  0.32210  0.93240  0.51640  1.0000 -0.2517960447
C   C170      1.0  0.06760  0.38970  0.18307  1.0000 -0.2517960447
C   C171      1.0  0.61030  0.67790  0.84973  1.0000 -0.2517960447
C   C172      1.0  0.67790  0.06760  0.01640  1.0000 -0.2517960447
C   C173      1.0  0.93240  0.61030  0.68307  1.0000 -0.2517960447
C   C174      1.0  0.38970  0.32210  0.34973  1.0000 -0.2517960447
C   C175      1.0  0.93240  0.32210  0.15027  1.0000 -0.2517960447
C   C176      1.0  0.38970  0.06760  0.48360  1.0000 -0.2517960447
C   C177      1.0  0.67790  0.61030  0.81693  1.0000 -0.2517960447
C   C178      1.0  0.06760  0.67790  0.65027  1.0000 -0.2517960447
C   C179      1.0  0.61030  0.93240  0.98360  1.0000 -0.2517960447
C   C180      1.0  0.32210  0.38970  0.31693  1.0000 -0.2517960447
C   C181      1.0  0.42330  0.00000  0.50000  1.0000 -0.1321425484
C   C182      1.0  0.00000  0.42330  0.16667  1.0000 -0.1321425484
C   C183      1.0  0.57670  0.57670  0.83333  1.0000 -0.1321425484
C   C184      1.0  0.57670  0.00000  0.00000  1.0000 -0.1321425484
C   C185      1.0  0.00000  0.57670  0.66667  1.0000 -0.1321425484
C   C186      1.0  0.42330  0.42330  0.33333  1.0000 -0.1321425484
C   C187      1.0  0.43930  0.73820  0.37461  1.0000 0.0791359466
C   C188      1.0  0.26180  0.70110  0.04128  1.0000 0.0791359466
C   C189      1.0  0.29890  0.56070  0.70794  1.0000 0.0791359466
C   C190      1.0  0.56070  0.26180  0.87461  1.0000 0.0791359466
C   C191      1.0  0.73820  0.29890  0.54128  1.0000 0.0791359466
C   C192      1.0  0.70110  0.43930  0.20794  1.0000 0.0791359466
C   C193      1.0  0.73820  0.43930  0.29206  1.0000 0.0791359466
C   C194      1.0  0.70110  0.26180  0.62539  1.0000 0.0791359466
C   C195      1.0  0.56070  0.29890  0.95872  1.0000 0.0791359466
C   C196      1.0  0.26180  0.56070  0.79206  1.0000 0.0791359466
C   C197      1.0  0.29890  0.73820  0.12539  1.0000 0.0791359466
C   C198      1.0  0.43930  0.70110  0.45872  1.0000 0.0791359466
C   C199      1.0  0.53320  0.77720  0.36029  1.0000 -0.2015184524
C   C200      1.0  0.22280  0.75600  0.02696  1.0000 -0.2015184524
C   C201      1.0  0.24400  0.46680  0.69362  1.0000 -0.2015184524
C   C202      1.0  0.46680  0.22280  0.86029  1.0000 -0.2015184524
C   C203      1.0  0.77720  0.24400  0.52696  1.0000 -0.2015184524
C   C204      1.0  0.75600  0.53320  0.19362  1.0000 -0.2015184524
C   C205      1.0  0.77720  0.53320  0.30638  1.0000 -0.2015184524
C   C206      1.0  0.75600  0.22280  0.63971  1.0000 -0.2015184524
C   C207      1.0  0.46680  0.24400  0.97304  1.0000 -0.2015184524
C   C208      1.0  0.22280  0.46680  0.80638  1.0000 -0.2015184524
C   C209      1.0  0.24400  0.77720  0.13971  1.0000 -0.2015184524
C   C210      1.0  0.53320  0.75600  0.47304  1.0000 -0.2015184524
C   C211      1.0  0.63650  0.76960  0.36522  1.0000 0.1783152586
C   C212      1.0  0.23040  0.86690  0.03189  1.0000 0.1783152586
C   C213      1.0  0.13310  0.36350  0.69855  1.0000 0.1783152586
C   C214      1.0  0.36350  0.23040  0.86522  1.0000 0.1783152586
C   C215      1.0  0.76960  0.13310  0.53189  1.0000 0.1783152586
C   C216      1.0  0.86690  0.63650  0.19855  1.0000 0.1783152586
C   C217      1.0  0.76960  0.63650  0.30145  1.0000 0.1783152586
C   C218      1.0  0.86690  0.23040  0.63478  1.0000 0.1783152586
C   C219      1.0  0.36350  0.13310  0.96811  1.0000 0.1783152586
C   C220      1.0  0.23040  0.36350  0.80145  1.0000 0.1783152586
C   C221      1.0  0.13310  0.76960  0.13478  1.0000 0.1783152586
C   C222      1.0  0.63650  0.86690  0.46811  1.0000 0.1783152586
C   C223      1.0  0.63500  0.71380  0.38470  1.0000 -0.2015184524
C   C224      1.0  0.28620  0.92120  0.05137  1.0000 -0.2015184524
C   C225      1.0  0.07880  0.36500  0.71803  1.0000 -0.2015184524
C   C226      1.0  0.36500  0.28620  0.88470  1.0000 -0.2015184524
C   C227      1.0  0.71380  0.07880  0.55137  1.0000 -0.2015184524
C   C228      1.0  0.92120  0.63500  0.21803  1.0000 -0.2015184524
C   C229      1.0  0.71380  0.63500  0.28197  1.0000 -0.2015184524
C   C230      1.0  0.92120  0.28620  0.61530  1.0000 -0.2015184524
C   C231      1.0  0.36500  0.07880  0.94863  1.0000 -0.2015184524
C   C232      1.0  0.28620  0.36500  0.78197  1.0000 -0.2015184524
C   C233      1.0  0.07880  0.71380  0.11530  1.0000 -0.2015184524
C   C234      1.0  0.63500  0.92120  0.44863  1.0000 -0.2015184524
C   C235      1.0  0.53590  0.67610  0.39792  1.0000 0.054160029
C   C236      1.0  0.32390  0.85980  0.06459  1.0000 0.054160029
C   C237      1.0  0.14020  0.46410  0.73125  1.0000 0.054160029
C   C238      1.0  0.46410  0.32390  0.89792  1.0000 0.054160029
C   C239      1.0  0.67610  0.14020  0.56459  1.0000 0.054160029
C   C240      1.0  0.85980  0.53590  0.23125  1.0000 0.054160029
C   C241      1.0  0.67610  0.53590  0.26875  1.0000 0.054160029
C   C242      1.0  0.85980  0.32390  0.60208  1.0000 0.054160029
C   C243      1.0  0.46410  0.14020  0.93541  1.0000 0.054160029
C   C244      1.0  0.32390  0.46410  0.76875  1.0000 0.054160029
C   C245      1.0  0.14020  0.67610  0.10208  1.0000 0.054160029
C   C246      1.0  0.53590  0.85980  0.43541  1.0000 0.054160029
C   C247      1.0  0.74390  0.81110  0.34961  1.0000 -0.2517960447
C   C248      1.0  0.18890  0.93280  0.01628  1.0000 -0.2517960447
C   C249      1.0  0.06720  0.25610  0.68294  1.0000 -0.2517960447
C   C250      1.0  0.25610  0.18890  0.84961  1.0000 -0.2517960447
C   C251      1.0  0.81110  0.06720  0.51628  1.0000 -0.2517960447
C   C252      1.0  0.93280  0.74390  0.18294  1.0000 -0.2517960447
C   C253      1.0  0.81110  0.74390  0.31706  1.0000 -0.2517960447
C   C254      1.0  0.93280  0.18890  0.65039  1.0000 -0.2517960447
C   C255      1.0  0.25610  0.06720  0.98372  1.0000 -0.2517960447
C   C256      1.0  0.18890  0.25610  0.81706  1.0000 -0.2517960447
C   C257      1.0  0.06720  0.81110  0.15039  1.0000 -0.2517960447
C   C258      1.0  0.74390  0.93280  0.48372  1.0000 -0.2517960447
C   C259      1.0  0.71200  0.71200  0.33333  1.0000 -0.1321425484
C   C260      1.0  0.28800  0.00000  0.00000  1.0000 -0.1321425484
C   C261      1.0  0.00000  0.28800  0.66667  1.0000 -0.1321425484
C   C262      1.0  0.28800  0.28800  0.83333  1.0000 -0.1321425484
C   C263      1.0  0.71200  0.00000  0.50000  1.0000 -0.1321425484
C   C264      1.0  0.00000  0.71200  0.16667  1.0000 -0.1321425484
N   N1        1.0  0.05300  0.48260  0.54412  1.0000 -0.5509690105
N   N2        1.0  0.51740  0.57040  0.21079  1.0000 -0.5509690105
N   N3        1.0  0.42960  0.94700  0.87745  1.0000 -0.5509690105
N   N4        1.0  0.94700  0.51740  0.04412  1.0000 -0.5509690105
N   N5        1.0  0.48260  0.42960  0.71079  1.0000 -0.5509690105
N   N6        1.0  0.57040  0.05300  0.37745  1.0000 -0.5509690105
N   N7        1.0  0.48260  0.05300  0.12255  1.0000 -0.5509690105
N   N8        1.0  0.57040  0.51740  0.45588  1.0000 -0.5509690105
N   N9        1.0  0.94700  0.42960  0.78921  1.0000 -0.5509690105
N   N10       1.0  0.51740  0.94700  0.62255  1.0000 -0.5509690105
N   N11       1.0  0.42960  0.48260  0.95588  1.0000 -0.5509690105
N   N12       1.0  0.05300  0.57040  0.28921  1.0000 -0.5509690105
N   N13       1.0  0.09120  0.43460  0.50910  1.0000 -0.5991861531
N   N14       1.0  0.56540  0.65660  0.17577  1.0000 -0.5991861531
N   N15       1.0  0.34340  0.90880  0.84243  1.0000 -0.5991861531
N   N16       1.0  0.90880  0.56540  0.00910  1.0000 -0.5991861531
N   N17       1.0  0.43460  0.34340  0.67577  1.0000 -0.5991861531
N   N18       1.0  0.65660  0.09120  0.34243  1.0000 -0.5991861531
N   N19       1.0  0.43460  0.09120  0.15757  1.0000 -0.5991861531
N   N20       1.0  0.65660  0.56540  0.49090  1.0000 -0.5991861531
N   N21       1.0  0.90880  0.34340  0.82423  1.0000 -0.5991861531
N   N22       1.0  0.56540  0.90880  0.65757  1.0000 -0.5991861531
N   N23       1.0  0.34340  0.43460  0.99090  1.0000 -0.5991861531
N   N24       1.0  0.09120  0.65660  0.32423  1.0000 -0.5991861531
N   N25       1.0  0.04810  0.59700  0.51329  1.0000 -0.5413884182
N   N26       1.0  0.40300  0.45110  0.17996  1.0000 -0.5413884182
N   N27       1.0  0.54890  0.95190  0.84662  1.0000 -0.5413884182
N   N28       1.0  0.95190  0.40300  0.01329  1.0000 -0.5413884182
N   N29       1.0  0.59700  0.54890  0.67996  1.0000 -0.5413884182
N   N30       1.0  0.45110  0.04810  0.34662  1.0000 -0.5413884182
N   N31       1.0  0.59700  0.04810  0.15338  1.0000 -0.5413884182
N   N32       1.0  0.45110  0.40300  0.48671  1.0000 -0.5413884182
N   N33       1.0  0.95190  0.54890  0.82004  1.0000 -0.5413884182
N   N34       1.0  0.40300  0.95190  0.65338  1.0000 -0.5413884182
N   N35       1.0  0.54890  0.59700  0.98671  1.0000 -0.5413884182
N   N36       1.0  0.04810  0.45110  0.32004  1.0000 -0.5413884182
N   N37       1.0  0.08370  0.31910  0.53782  1.0000 -0.2899365364
N   N38       1.0  0.68090  0.76460  0.20449  1.0000 -0.2899365364
N   N39       1.0  0.23540  0.91630  0.87115  1.0000 -0.2899365364
N   N40       1.0  0.91630  0.68090  0.03782  1.0000 -0.2899365364
N   N41       1.0  0.31910  0.23540  0.70449  1.0000 -0.2899365364
N   N42       1.0  0.76460  0.08370  0.37115  1.0000 -0.2899365364
N   N43       1.0  0.31910  0.08370  0.12885  1.0000 -0.2899365364
N   N44       1.0  0.76460  0.68090  0.46218  1.0000 -0.2899365364
N   N45       1.0  0.91630  0.23540  0.79551  1.0000 -0.2899365364
N   N46       1.0  0.68090  0.91630  0.62885  1.0000 -0.2899365364
N   N47       1.0  0.23540  0.31910  0.96218  1.0000 -0.2899365364
N   N48       1.0  0.08370  0.76460  0.29551  1.0000 -0.2899365364
N   N49       1.0  0.08910  0.54730  0.48036  1.0000 -0.296168507
N   N50       1.0  0.45270  0.54180  0.14703  1.0000 -0.296168507
N   N51       1.0  0.45820  0.91090  0.81369  1.0000 -0.296168507
N   N52       1.0  0.91090  0.45270  0.98036  1.0000 -0.296168507
N   N53       1.0  0.54730  0.45820  0.64703  1.0000 -0.296168507
N   N54       1.0  0.54180  0.08910  0.31369  1.0000 -0.296168507
N   N55       1.0  0.54730  0.08910  0.18631  1.0000 -0.296168507
N   N56       1.0  0.54180  0.45270  0.51964  1.0000 -0.296168507
N   N57       1.0  0.91090  0.45820  0.85297  1.0000 -0.296168507
N   N58       1.0  0.45270  0.91090  0.68631  1.0000 -0.296168507
N   N59       1.0  0.45820  0.54730  0.01964  1.0000 -0.296168507
N   N60       1.0  0.08910  0.54180  0.35297  1.0000 -0.296168507
N   N61       1.0  0.02180  0.64680  0.54721  1.0000 -0.296168507
N   N62       1.0  0.35320  0.37500  0.21388  1.0000 -0.296168507
N   N63       1.0  0.62500  0.97820  0.88054  1.0000 -0.296168507
N   N64       1.0  0.97820  0.35320  0.04721  1.0000 -0.2899365364
N   N65       1.0  0.64680  0.62500  0.71388  1.0000 -0.2899365364
N   N66       1.0  0.37500  0.02180  0.38054  1.0000 -0.2899365364
N   N67       1.0  0.64680  0.02180  0.11946  1.0000 -0.2899365364
N   N68       1.0  0.37500  0.35320  0.45279  1.0000 -0.296168507
N   N69       1.0  0.97820  0.62500  0.78612  1.0000 -0.296168507
N   N70       1.0  0.35320  0.97820  0.61946  1.0000 -0.296168507
N   N71       1.0  0.62500  0.64680  0.95279  1.0000 -0.2899365364
N   N72       1.0  0.02180  0.37500  0.28612  1.0000 -0.296168507
N   N73       1.0  0.39380  0.71640  0.56176  1.0000 -0.2288511355
N   N74       1.0  0.28360  0.67740  0.22843  1.0000 -0.2288511355
N   N75       1.0  0.32260  0.60620  0.89509  1.0000 -0.2288511355
N   N76       1.0  0.60620  0.28360  0.06176  1.0000 -0.2288511355
N   N77       1.0  0.71640  0.32260  0.72843  1.0000 -0.2288511355
N   N78       1.0  0.67740  0.39380  0.39509  1.0000 -0.2288511355
N   N79       1.0  0.71640  0.39380  0.10491  1.0000 -0.2288511355
N   N80       1.0  0.67740  0.28360  0.43824  1.0000 -0.2288511355
N   N81       1.0  0.60620  0.32260  0.77157  1.0000 -0.2288511355
N   N82       1.0  0.28360  0.60620  0.60491  1.0000 -0.2288511355
N   N83       1.0  0.32260  0.71640  0.93824  1.0000 -0.2288511355
N   N84       1.0  0.39380  0.67740  0.27157  1.0000 -0.2288511355
N   N85       1.0  0.43770  0.68860  0.39359  1.0000 -0.2404157826
N   N86       1.0  0.31140  0.74910  0.06026  1.0000 -0.2404157826
N   N87       1.0  0.25090  0.56230  0.72692  1.0000 -0.2404157826
N   N88       1.0  0.56230  0.31140  0.89359  1.0000 -0.2404157826
N   N89       1.0  0.68860  0.25090  0.56026  1.0000 -0.2404157826
N   N90       1.0  0.74910  0.43770  0.22692  1.0000 -0.2404157826
N   N91       1.0  0.68860  0.43770  0.27308  1.0000 -0.2404157826
N   N92       1.0  0.74910  0.31140  0.60641  1.0000 -0.2404157826
N   N93       1.0  0.56230  0.25090  0.93974  1.0000 -0.2404157826
N   N94       1.0  0.31140  0.56230  0.77308  1.0000 -0.2404157826
N   N95       1.0  0.25090  0.68860  0.10641  1.0000 -0.2404157826
N   N96       1.0  0.43770  0.74910  0.43974  1.0000 -0.2404157826
O   O1        1.0  0.26700  0.45200  0.56656  1.0000 -0.5413884182
O   O2        1.0  0.54800  0.81500  0.23323  1.0000 -0.5413884182
O   O3        1.0  0.18500  0.73300  0.89989  1.0000 -0.5413884182
O   O4        1.0  0.73300  0.54800  0.06656  1.0000 -0.5413884182
O   O5        1.0  0.45200  0.18500  0.73323  1.0000 -0.5413884182
O   O6        1.0  0.81500  0.26700  0.39989  1.0000 -0.5413884182
O   O7        1.0  0.45200  0.26700  0.10011  1.0000 -0.5413884182
O   O8        1.0  0.81500  0.54800  0.43344  1.0000 -0.5413884182
O   O9        1.0  0.73300  0.18500  0.76677  1.0000 -0.5413884182
O   O10       1.0  0.54800  0.73300  0.60011  1.0000 -0.5413884182
O   O11       1.0  0.18500  0.45200  0.93344  1.0000 -0.5413884182
O   O12       1.0  0.26700  0.81500  0.26677  1.0000 -0.5413884182
O   O13       1.0  0.17970  0.30960  0.59196  1.0000 -0.5639241049
O   O14       1.0  0.69040  0.87010  0.25863  1.0000 -0.5639241049
O   O15       1.0  0.12990  0.82030  0.92529  1.0000 -0.5639241049
O   O16       1.0  0.82030  0.69040  0.09196  1.0000 -0.5639241049
O   O17       1.0  0.30960  0.12990  0.75863  1.0000 -0.5639241049
O   O18       1.0  0.87010  0.17970  0.42529  1.0000 -0.5639241049
O   O19       1.0  0.30960  0.17970  0.07471  1.0000 -0.5639241049
O   O20       1.0  0.87010  0.69040  0.40804  1.0000 -0.5639241049
O   O21       1.0  0.82030  0.12990  0.74137  1.0000 -0.5639241049
O   O22       1.0  0.69040  0.82030  0.57471  1.0000 -0.5639241049
O   O23       1.0  0.12990  0.30960  0.90804  1.0000 -0.5639241049
O   O24       1.0  0.17970  0.87010  0.24137  1.0000 -0.5639241049
O   O25       1.0  0.17120  0.61440  0.43993  1.0000 -0.5215908687
O   O26       1.0  0.38560  0.55680  0.10660  1.0000 -0.5254907319
O   O27       1.0  0.44320  0.82880  0.77326  1.0000 -0.5254907319
O   O28       1.0  0.82880  0.38560  0.93993  1.0000 -0.5254907319
O   O29       1.0  0.61440  0.44320  0.60660  1.0000 -0.5254907319
O   O30       1.0  0.55680  0.17120  0.27326  1.0000 -0.5254907319
O   O31       1.0  0.61440  0.17120  0.22674  1.0000 -0.5254907319
O   O32       1.0  0.55680  0.38560  0.56007  1.0000 -0.5254907319
O   O33       1.0  0.82880  0.44320  0.89340  1.0000 -0.5254907319
O   O34       1.0  0.38560  0.82880  0.72674  1.0000 -0.5254907319
O   O35       1.0  0.44320  0.61440  0.06007  1.0000 -0.5254907319
O   O36       1.0  0.17120  0.55680  0.39340  1.0000 -0.5254907319
O   O37       1.0  0.17210  0.79240  0.44328  1.0000 -0.6062716652
O   O38       1.0  0.20760  0.37970  0.10995  1.0000 -0.6062716652
O   O39       1.0  0.62030  0.82790  0.77661  1.0000 -0.6062716652
O   O40       1.0  0.82790  0.20760  0.94328  1.0000 -0.6062716652
O   O41       1.0  0.79240  0.62030  0.60995  1.0000 -0.6062716652
O   O42       1.0  0.37970  0.17210  0.27661  1.0000 -0.6062716652
O   O43       1.0  0.79240  0.17210  0.22339  1.0000 -0.6062716652
O   O44       1.0  0.37970  0.20760  0.55672  1.0000 -0.6062716652
O   O45       1.0  0.82790  0.62030  0.89005  1.0000 -0.6062716652
O   O46       1.0  0.20760  0.82790  0.72339  1.0000 -0.6062716652
O   O47       1.0  0.62030  0.79240  0.05672  1.0000 -0.6062716652
O   O48       1.0  0.17210  0.37970  0.39005  1.0000 -0.6062716652
O   O49       1.0  0.85720  0.73150  0.51151  1.0000 -0.4411253839
O   O50       1.0  0.26850  0.12570  0.17818  1.0000 -0.4411253839
O   O51       1.0  0.87430  0.14280  0.84484  1.0000 -0.4411253839
O   O52       1.0  0.14280  0.26850  0.01151  1.0000 -0.4411253839
O   O53       1.0  0.73150  0.87430  0.67818  1.0000 -0.4411253839
O   O54       1.0  0.12570  0.85720  0.34484  1.0000 -0.4411253839
O   O55       1.0  0.73150  0.85720  0.15516  1.0000 -0.4411253839
O   O56       1.0  0.12570  0.26850  0.48849  1.0000 -0.4411253839
O   O57       1.0  0.14280  0.87430  0.82182  1.0000 -0.4411253839
O   O58       1.0  0.26850  0.14280  0.65516  1.0000 -0.4411253839
O   O59       1.0  0.87430  0.73150  0.98849  1.0000 -0.4411253839
O   O60       1.0  0.85720  0.12570  0.32182  1.0000 -0.4411253839
O   O61       1.0  0.78310  0.58880  0.53687  1.0000 -0.5215908687
O   O62       1.0  0.41120  0.19430  0.20354  1.0000 -0.5215908687
O   O63       1.0  0.80570  0.21690  0.87020  1.0000 -0.5215908687
O   O64       1.0  0.21690  0.41120  0.03687  1.0000 -0.5215908687
O   O65       1.0  0.58880  0.80570  0.70354  1.0000 -0.5215908687
O   O66       1.0  0.19430  0.78310  0.37020  1.0000 -0.5215908687
O   O67       1.0  0.58880  0.78310  0.12980  1.0000 -0.5215908687
O   O68       1.0  0.19430  0.41120  0.46313  1.0000 -0.5215908687
O   O69       1.0  0.21690  0.80570  0.79646  1.0000 -0.5215908687
O   O70       1.0  0.41120  0.21690  0.62980  1.0000 -0.5215908687
O   O71       1.0  0.80570  0.58880  0.96313  1.0000 -0.5215908687
O   O72       1.0  0.78310  0.19430  0.29646  1.0000 -0.5215908687
