# DDEC6 charges by PACMAN v1.1 (https://github.com/mtap-research/PACMAN-charge/)
data_2007[Cd][bcu]3[ASR]1
_chemical_formula_sum              "Cd4 H57 C40 O17"
_cell_length_a       12.0328
_cell_length_b       12.0328
_cell_length_c       12.0328
_cell_angle_alpha    109.181
_cell_angle_beta     112.062
_cell_angle_gamma    107.208

_symmetry_space_group_name_H-M    "P 1"
_symmetry_Int_Tables_number       1

loop_
  _symmetry_equiv_pos_as_xyz
  'x, y, z'

loop_
  _atom_site_type_symbol
  _atom_site_label
  _atom_site_symmetry_multiplicity
  _atom_site_fract_x
  _atom_site_fract_y
  _atom_site_fract_z
  _atom_site_occupancy
  _atom_site_charge
Cd  Cd1       1.0  0.00000  0.33019  0.33019  1.0000 1.043606779
Cd  Cd2       1.0  0.00000  0.66981  0.66981  1.0000 1.043606779
Cd  Cd3       1.0  0.17478  0.50000  0.67478  1.0000 0.9447960764
Cd  Cd4       1.0  0.82522  0.50000  0.32522  1.0000 0.9447960764
H   H1        1.0  0.57930  0.69600  0.39030  1.0000 0.1188607573
H   H2        1.0  0.74700  0.82600  0.67760  1.0000 0.1105677004
H   H3        1.0  0.69680  0.88880  0.58540  1.0000 0.101095958
H   H4        1.0  0.57130  0.79710  0.71260  1.0000 0.1105677004
H   H5        1.0  0.53010  0.87310  0.63300  1.0000 0.101095958
H   H6        1.0  0.28780  0.62760  0.30600  1.0000 0.1404068958
H   H7        1.0  0.34430  0.77180  0.42490  1.0000 0.1188607573
H   H8        1.0  0.43730  0.73830  0.37180  1.0000 0.1188607573
H   H9        1.0  0.32330  0.39580  0.31230  1.0000 0.1404068958
H   H10       1.0  0.36030  0.48280  0.24630  1.0000 0.1404068958
H   H11       1.0  0.44840  0.41550  0.29330  1.0000 0.1404068958
H   H12       1.0  0.46340  0.47470  0.55690  1.0000 0.1404068958
H   H13       1.0  0.58920  0.48990  0.54010  1.0000 0.1404068958
H   H14       1.0  0.59930  0.61150  0.65260  1.0000 0.1339243263
H   H15       1.0  0.30570  0.18900  0.60970  1.0000 0.1188607573
H   H16       1.0  0.14840  0.06940  0.32240  1.0000 0.1105677004
H   H17       1.0  0.30340  0.11140  0.41460  1.0000 0.101095958
H   H18       1.0  0.08450  0.85870  0.28740  1.0000 0.1105677004
H   H19       1.0  0.24010  0.89710  0.36700  1.0000 0.101095958
H   H20       1.0  0.32160  0.98180  0.69400  1.0000 0.1404068958
H   H21       1.0  0.34690  0.91940  0.57510  1.0000 0.1188607573
H   H22       1.0  0.36650  0.06550  0.62820  1.0000 0.1188607573
H   H23       1.0  0.08350  0.01100  0.68770  1.0000 0.1404068958
H   H24       1.0  0.23650  0.11400  0.75370  1.0000 0.1404068958
H   H25       1.0  0.12220  0.15510  0.70670  1.0000 0.1404068958
H   H26       1.0  0.91780  0.90650  0.44310  1.0000 0.1404068958
H   H27       1.0  0.94980  0.04910  0.45990  1.0000 0.1404068958
H   H28       1.0  0.95890  0.94670  0.34740  1.0000 0.1339243263
H   H29       1.0  0.69430  0.30400  0.88330  1.0000 0.1188607573
H   H30       1.0  0.85160  0.17400  0.92100  1.0000 0.1105677004
H   H31       1.0  0.69660  0.11120  0.80800  1.0000 0.101095958
H   H32       1.0  0.91550  0.20290  0.77420  1.0000 0.1105677004
H   H33       1.0  0.75990  0.12690  0.65700  1.0000 0.101095958
H   H34       1.0  0.67840  0.37240  0.66020  1.0000 0.1404068958
H   H35       1.0  0.65310  0.22820  0.57250  1.0000 0.1188607573
H   H36       1.0  0.63350  0.26170  0.69900  1.0000 0.1188607573
H   H37       1.0  0.91650  0.60420  0.92750  1.0000 0.1404068958
H   H38       1.0  0.76350  0.51720  0.87750  1.0000 0.1404068958
H   H39       1.0  0.87780  0.58450  0.03290  1.0000 0.1404068958
H   H40       1.0  0.08220  0.52530  0.98870  1.0000 0.1404068958
H   H41       1.0  0.05020  0.51010  0.09930  1.0000 0.1404068958
H   H42       1.0  0.04110  0.38850  0.98780  1.0000 0.1339243263
H   H43       1.0  0.42070  0.81100  0.11670  1.0000 0.1188607573
H   H44       1.0  0.25300  0.93060  0.07900  1.0000 0.1105677004
H   H45       1.0  0.30320  0.88860  0.19200  1.0000 0.101095958
H   H46       1.0  0.42870  0.14130  0.22580  1.0000 0.1105677004
H   H47       1.0  0.46990  0.10290  0.34300  1.0000 0.101095958
H   H48       1.0  0.71220  0.01820  0.33980  1.0000 0.1404068958
H   H49       1.0  0.65570  0.08060  0.42750  1.0000 0.1188607573
H   H50       1.0  0.56270  0.93450  0.30100  1.0000 0.1188607573
H   H51       1.0  0.67670  0.98900  0.07250  1.0000 0.1404068958
H   H52       1.0  0.63970  0.88600  0.12250  1.0000 0.1404068958
H   H53       1.0  0.55160  0.84490  0.96710  1.0000 0.1404068958
H   H54       1.0  0.53660  0.09350  0.01130  1.0000 0.1404068958
H   H55       1.0  0.41080  0.95090  0.90070  1.0000 0.1404068958
H   H56       1.0  0.40070  0.05330  0.01220  1.0000 0.1339243263
H   H57       1.0  0.07003  0.57003  0.50000  1.0000 0.3051723748
C   C1        1.0  0.30310  0.58030  0.50640  1.0000 0.5679897278
C   C2        1.0  0.72130  0.63790  0.47200  1.0000 0.5895662666
C   C3        1.0  0.41990  0.66040  0.49830  1.0000 0.0360512718
C   C4        1.0  0.48910  0.58110  0.45600  1.0000 0.2074064001
C   C5        1.0  0.61240  0.68180  0.46960  1.0000 -0.1637452539
C   C6        1.0  0.66910  0.81310  0.60000  1.0000 -0.1637452539
C   C7        1.0  0.54870  0.79880  0.62710  1.0000 -0.2054695577
C   C8        1.0  0.36740  0.70360  0.39000  1.0000 -0.4359400958
C   C9        1.0  0.39670  0.45730  0.31400  1.0000 -0.4564102083
C   C10       1.0  0.54000  0.53490  0.56130  1.0000 -0.4520642176
C   C11       1.0  0.07390  0.79670  0.49360  1.0000 0.5679897278
C   C12       1.0  0.16590  0.24930  0.52800  1.0000 0.5895662666
C   C13       1.0  0.16210  0.92160  0.50170  1.0000 0.0360512718
C   C14       1.0  0.12510  0.03310  0.54400  1.0000 0.2074064001
C   C15       1.0  0.21220  0.14280  0.53040  1.0000 -0.1637452539
C   C16       1.0  0.21310  0.06910  0.40000  1.0000 -0.1637452539
C   C17       1.0  0.17170  0.92160  0.37290  1.0000 -0.2054695577
C   C18       1.0  0.31360  0.97740  0.61000  1.0000 -0.4359400958
C   C19       1.0  0.14330  0.08270  0.68600  1.0000 -0.4564102083
C   C20       1.0  0.97360  0.97870  0.43870  1.0000 -0.4520642176
C   C21       1.0  0.92610  0.41970  0.72280  1.0000 0.5791520387
C   C22       1.0  0.83410  0.36210  0.08340  1.0000 0.5895662666
C   C23       1.0  0.83790  0.33960  0.75950  1.0000 0.0333514794
C   C24       1.0  0.87490  0.41890  0.90800  1.0000 0.2074064001
C   C25       1.0  0.78780  0.31820  0.93060  1.0000 -0.1637452539
C   C26       1.0  0.78690  0.18690  0.85600  1.0000 -0.1637452539
C   C27       1.0  0.82830  0.20120  0.74990  1.0000 -0.2054695577
C   C28       1.0  0.68640  0.29640  0.66380  1.0000 -0.4359400958
C   C29       1.0  0.85670  0.54270  0.93940  1.0000 -0.4564102083
C   C30       1.0  0.02640  0.46510  0.00510  1.0000 -0.4520642176
C   C31       1.0  0.69690  0.20330  0.27720  1.0000 0.5791520387
C   C32       1.0  0.27870  0.75070  0.91660  1.0000 0.5895662666
C   C33       1.0  0.58010  0.07840  0.24050  1.0000 0.0333514794
C   C34       1.0  0.51090  0.96690  0.09200  1.0000 0.2074064001
C   C35       1.0  0.38760  0.85720  0.06940  1.0000 -0.1637452539
C   C36       1.0  0.33090  0.93090  0.14400  1.0000 -0.1637452539
C   C37       1.0  0.45130  0.07840  0.25010  1.0000 -0.2048083931
C   C38       1.0  0.63260  0.02260  0.33620  1.0000 -0.4349634141
C   C39       1.0  0.60330  0.91730  0.06060  1.0000 -0.4564102083
C   C40       1.0  0.46000  0.02130  0.99490  1.0000 -0.4520642176
O   O1        1.0  0.19260  0.47500  0.38360  1.0000 -0.6328070551
O   O2        1.0  0.31250  0.60000  0.61350  1.0000 -0.494520852
O   O3        1.0  0.80800  0.65800  0.58000  1.0000 -0.5398667246
O   O4        1.0  0.68930  0.58580  0.35230  1.0000 -0.4834190796
O   O5        1.0  0.09140  0.80900  0.61640  1.0000 -0.6328070551
O   O6        1.0  0.98650  0.69900  0.38650  1.0000 -0.494520852
O   O7        1.0  0.07800  0.22800  0.42000  1.0000 -0.5398667246
O   O8        1.0  0.23350  0.33700  0.64770  1.0000 -0.4834190796
O   O9        1.0  0.90860  0.52500  0.71760  1.0000 -0.621584782
O   O10       1.0  0.01350  0.40000  0.71250  1.0000 -0.4834190796
O   O11       1.0  0.92200  0.34200  0.15000  1.0000 -0.5398667246
O   O12       1.0  0.76650  0.41420  0.10350  1.0000 -0.4834190796
O   O13       1.0  0.80740  0.19100  0.28240  1.0000 -0.621584782
O   O14       1.0  0.68750  0.30100  0.28750  1.0000 -0.4834190796
O   O15       1.0  0.19200  0.77200  0.85000  1.0000 -0.5398667246
O   O16       1.0  0.31070  0.66300  0.89650  1.0000 -0.4834190796
O   O17       1.0  0.00000  0.50000  0.50000  1.0000 -0.8623916894
