# DDEC6 charges by PACMAN v1.1 (https://github.com/mtap-research/PACMAN-charge/)
data_2007[CeRu][tfi]3[ASR]1
_chemical_formula_sum              "Ce2 P8 H16 Ru4 C8 O28"
_cell_length_a       9.69209
_cell_length_b       9.69209
_cell_length_c       15.6938
_cell_angle_alpha    87.2983
_cell_angle_beta     92.7017
_cell_angle_gamma    80.9804

_symmetry_space_group_name_H-M    "P 1"
_symmetry_Int_Tables_number       1

loop_
  _symmetry_equiv_pos_as_xyz
  'x, y, z'

loop_
  _atom_site_type_symbol
  _atom_site_label
  _atom_site_symmetry_multiplicity
  _atom_site_fract_x
  _atom_site_fract_y
  _atom_site_fract_z
  _atom_site_occupancy
  _atom_site_charge
Ce  Ce1       1.0  0.98860  0.98860  0.75000  1.0000 2.0991370497
Ce  Ce2       1.0  0.01140  0.01140  0.25000  1.0000 2.0861897288
P   P1        1.0  0.04528  0.64358  0.64390  1.0000 1.2085789858
P   P2        1.0  0.64358  0.04528  0.85610  1.0000 1.2085789858
P   P3        1.0  0.95472  0.35642  0.35610  1.0000 1.2085789858
P   P4        1.0  0.35642  0.95472  0.14390  1.0000 1.2085789858
P   P5        1.0  0.97408  0.35134  0.65165  1.0000 1.1666879473
P   P6        1.0  0.35134  0.97408  0.84835  1.0000 1.1666879473
P   P7        1.0  0.02592  0.64866  0.34835  1.0000 1.1666879473
P   P8        1.0  0.64866  0.02592  0.15165  1.0000 1.1666879473
H   H1        1.0  0.16000  0.52180  0.81170  1.0000 0.159625285
H   H2        1.0  0.52180  0.16000  0.68830  1.0000 0.159625285
H   H3        1.0  0.84000  0.47820  0.18830  1.0000 0.159625285
H   H4        1.0  0.47820  0.84000  0.31170  1.0000 0.159625285
H   H5        1.0  0.12710  0.36510  0.81070  1.0000 0.151049214
H   H6        1.0  0.36510  0.12710  0.68930  1.0000 0.151049214
H   H7        1.0  0.87290  0.63490  0.18930  1.0000 0.151049214
H   H8        1.0  0.63490  0.87290  0.31070  1.0000 0.151049214
H   H9        1.0  0.22510  0.41970  0.74160  1.0000 0.151049214
H   H10       1.0  0.41970  0.22510  0.75840  1.0000 0.151049214
H   H11       1.0  0.77490  0.58030  0.25840  1.0000 0.151049214
H   H12       1.0  0.58030  0.77490  0.24160  1.0000 0.151049214
H   H13       1.0  0.82400  0.49200  0.77100  1.0000 0.3840733586
H   H14       1.0  0.49200  0.82400  0.72900  1.0000 0.385508251
H   H15       1.0  0.17600  0.50800  0.22900  1.0000 0.3840733586
H   H16       1.0  0.50800  0.17600  0.27100  1.0000 0.3840733586
Ru  Ru1       1.0  0.12006  0.45378  0.50207  1.0000 0.9189677505
Ru  Ru2       1.0  0.45378  0.12006  0.99793  1.0000 0.9189677505
Ru  Ru3       1.0  0.87994  0.54622  0.49793  1.0000 0.9189677505
Ru  Ru4       1.0  0.54622  0.87994  0.00207  1.0000 0.9189677505
C   C1        1.0  0.01520  0.49600  0.71500  1.0000 -0.1924920784
C   C2        1.0  0.49600  0.01520  0.78500  1.0000 -0.1924920784
C   C3        1.0  0.98480  0.50400  0.28500  1.0000 -0.1924920784
C   C4        1.0  0.50400  0.98480  0.21500  1.0000 -0.1924920784
C   C5        1.0  0.14320  0.44620  0.77510  1.0000 -0.4319326313
C   C6        1.0  0.44620  0.14320  0.72490  1.0000 -0.4319326313
C   C7        1.0  0.85680  0.55380  0.22490  1.0000 -0.4319326313
C   C8        1.0  0.55380  0.85680  0.27510  1.0000 -0.4319326313
O   O1        1.0  0.16807  0.58893  0.58909  1.0000 -0.6162101807
O   O2        1.0  0.58893  0.16807  0.91091  1.0000 -0.6162101807
O   O3        1.0  0.83193  0.41107  0.41091  1.0000 -0.6162101807
O   O4        1.0  0.41107  0.83193  0.08909  1.0000 -0.6162101807
O   O5        1.0  0.91088  0.68836  0.58536  1.0000 -0.6594352754
O   O6        1.0  0.68836  0.91088  0.91464  1.0000 -0.6594352754
O   O7        1.0  0.08912  0.31164  0.41464  1.0000 -0.6594352754
O   O8        1.0  0.31164  0.08912  0.08536  1.0000 -0.6594352754
O   O9        1.0  0.07722  0.75984  0.69762  1.0000 -0.7898142742
O   O10       1.0  0.75984  0.07722  0.80238  1.0000 -0.7898142742
O   O11       1.0  0.92278  0.24016  0.30238  1.0000 -0.7898142742
O   O12       1.0  0.24016  0.92278  0.19762  1.0000 -0.7898142742
O   O13       1.0  0.10125  0.30997  0.59716  1.0000 -0.6497695925
O   O14       1.0  0.30997  0.10125  0.90284  1.0000 -0.6497695925
O   O15       1.0  0.89875  0.69003  0.40284  1.0000 -0.6497695925
O   O16       1.0  0.69003  0.89875  0.09716  1.0000 -0.6497695925
O   O17       1.0  0.84389  0.40771  0.59246  1.0000 -0.643338445
O   O18       1.0  0.40771  0.84389  0.90754  1.0000 -0.643338445
O   O19       1.0  0.15611  0.59229  0.40754  1.0000 -0.643338445
O   O20       1.0  0.59229  0.15611  0.09246  1.0000 -0.643338445
O   O21       1.0  0.95005  0.23219  0.71076  1.0000 -0.7898142742
O   O22       1.0  0.23219  0.95005  0.78924  1.0000 -0.7898142742
O   O23       1.0  0.04995  0.76781  0.28924  1.0000 -0.7898142742
O   O24       1.0  0.76781  0.04995  0.21076  1.0000 -0.7898142742
O   O25       1.0  0.89857  0.55017  0.76433  1.0000 -0.4154961886
O   O26       1.0  0.55017  0.89857  0.73567  1.0000 -0.4091731192
O   O27       1.0  0.10143  0.44983  0.23567  1.0000 -0.4154961886
O   O28       1.0  0.44983  0.10143  0.26433  1.0000 -0.4154961886
