# DDEC6 charges by PACMAN v1.1 (https://github.com/mtap-research/PACMAN-charge/)
data_2007[CaSm][bnn]3[ASR]1
_chemical_formula_sum              "Ca2 Sm2 H52 C96 N8 O18"
_cell_length_a       9.6187
_cell_length_b       13.8934
_cell_length_c       17.2345
_cell_angle_alpha    98.058
_cell_angle_beta     90.457
_cell_angle_gamma    90.599

_symmetry_space_group_name_H-M    "P 1"
_symmetry_Int_Tables_number       1

loop_
  _symmetry_equiv_pos_as_xyz
  'x, y, z'

loop_
  _atom_site_type_symbol
  _atom_site_label
  _atom_site_symmetry_multiplicity
  _atom_site_fract_x
  _atom_site_fract_y
  _atom_site_fract_z
  _atom_site_occupancy
  _atom_site_charge
Ca  Ca1       1.0  0.22700  0.58910  0.50030  1.0000 1.1118715863
Ca  Ca2       1.0  0.77300  0.41090  0.49970  1.0000 1.1118715863
Sm  Sm1       1.0  0.22966  0.09955  0.98572  1.0000 2.1303994517
Sm  Sm2       1.0  0.77034  0.90045  0.01428  1.0000 2.1303994517
H   H1        1.0  0.27100  0.24870  0.58340  1.0000 0.1202864722
H   H2        1.0  0.72900  0.75130  0.41660  1.0000 0.1202864722
H   H3        1.0  0.39140  0.23590  0.45510  1.0000 0.1202864722
H   H4        1.0  0.60860  0.76410  0.54490  1.0000 0.1202864722
H   H5        1.0  0.52920  0.48230  0.26180  1.0000 0.1377113323
H   H6        1.0  0.47080  0.51770  0.73820  1.0000 0.1377113323
H   H7        1.0  0.52630  0.66340  0.27090  1.0000 0.1295667566
H   H8        1.0  0.47370  0.33660  0.72910  1.0000 0.1295667566
H   H9        1.0  0.24280  0.94380  0.44220  1.0000 0.1295667566
H   H10       1.0  0.75720  0.05620  0.55780  1.0000 0.1295667566
H   H11       1.0  0.07440  0.94850  0.55250  1.0000 0.1295667566
H   H12       1.0  0.92560  0.05150  0.44750  1.0000 0.1295667566
H   H13       1.0  0.91430  0.69310  0.73940  1.0000 0.1377113323
H   H14       1.0  0.08570  0.30690  0.26060  1.0000 0.1377113323
H   H15       1.0  0.96290  0.52160  0.74840  1.0000 0.1377113323
H   H16       1.0  0.03710  0.47840  0.25160  1.0000 0.1377113323
H   H17       1.0  0.61010  0.29310  0.39840  1.0000 0.1122522529
H   H18       1.0  0.38990  0.70690  0.60160  1.0000 0.1122522529
H   H19       1.0  0.69530  0.16220  0.31370  1.0000 0.1122522529
H   H20       1.0  0.30470  0.83780  0.68630  1.0000 0.1122522529
H   H21       1.0  0.58520  0.11290  0.19220  1.0000 0.1295667566
H   H22       1.0  0.41480  0.88710  0.80780  1.0000 0.1295667566
H   H23       1.0  0.31420  0.33430  0.23800  1.0000 0.1295667566
H   H24       1.0  0.68580  0.66570  0.76200  1.0000 0.1295667566
H   H25       1.0  0.53930  0.89280  0.44520  1.0000 0.1202864722
H   H26       1.0  0.46070  0.10720  0.55480  1.0000 0.1202864722
H   H27       1.0  0.69430  0.98250  0.37880  1.0000 0.1202864722
H   H28       1.0  0.30570  0.01750  0.62120  1.0000 0.1202864722
H   H29       1.0  0.67610  0.97600  0.24270  1.0000 0.1202864722
H   H30       1.0  0.32390  0.02400  0.75730  1.0000 0.1202864722
H   H31       1.0  0.34790  0.79010  0.23940  1.0000 0.1295667566
H   H32       1.0  0.65210  0.20990  0.76060  1.0000 0.1295667566
H   H33       1.0  0.81040  0.86110  0.58360  1.0000 0.1122522529
H   H34       1.0  0.18960  0.13890  0.41640  1.0000 0.1122522529
H   H35       1.0  0.66930  0.96450  0.66800  1.0000 0.1122522529
H   H36       1.0  0.33070  0.03550  0.33200  1.0000 0.1122522529
H   H37       1.0  0.73800  0.01270  0.79850  1.0000 0.1295667566
H   H38       1.0  0.26200  0.98730  0.20150  1.0000 0.1295667566
H   H39       1.0  0.09670  0.86530  0.75820  1.0000 0.1295667566
H   H40       1.0  0.90330  0.13470  0.24180  1.0000 0.1295667566
H   H41       1.0  0.98550  0.26670  0.61240  1.0000 0.1202864722
H   H42       1.0  0.01450  0.73330  0.38760  1.0000 0.1202864722
H   H43       1.0  0.95840  0.14830  0.69510  1.0000 0.1202864722
H   H44       1.0  0.04160  0.85170  0.30490  1.0000 0.1202864722
H   H45       1.0  0.06300  0.16820  0.81820  1.0000 0.1122522529
H   H46       1.0  0.93700  0.83180  0.18180  1.0000 0.1122522529
H   H47       1.0  0.22120  0.42780  0.77840  1.0000 0.1295667566
H   H48       1.0  0.77880  0.57220  0.22160  1.0000 0.1295667566
H   H49       1.0  0.93340  0.20450  0.97440  1.0000 0.4296257954
H   H50       1.0  0.06660  0.79550  0.02560  1.0000 0.4296257954
H   H51       1.0  0.95200  0.10410  0.97630  1.0000 0.3663715582
H   H52       1.0  0.04800  0.89590  0.02370  1.0000 0.3663715582
C   C1        1.0  0.22220  0.39510  0.56470  1.0000 0.2007763844
C   C2        1.0  0.77780  0.60490  0.43530  1.0000 0.2007763844
C   C3        1.0  0.27880  0.29780  0.55050  1.0000 -0.1645741303
C   C4        1.0  0.72120  0.70220  0.44950  1.0000 -0.1645741303
C   C5        1.0  0.34510  0.29130  0.48100  1.0000 -0.1849636574
C   C6        1.0  0.65490  0.70870  0.51900  1.0000 -0.1849636574
C   C7        1.0  0.33230  0.38480  0.45330  1.0000 0.2007763844
C   C8        1.0  0.66770  0.61520  0.54670  1.0000 0.2007763844
C   C9        1.0  0.38980  0.40640  0.38330  1.0000 -0.1086433917
C   C10       1.0  0.61020  0.59360  0.61670  1.0000 -0.1086433917
C   C11       1.0  0.39700  0.50000  0.36120  1.0000 0.2074474206
C   C12       1.0  0.60300  0.50000  0.63880  1.0000 0.2074474206
C   C13       1.0  0.48030  0.52580  0.29920  1.0000 -0.1712299724
C   C14       1.0  0.51970  0.47420  0.70080  1.0000 -0.1712299724
C   C15       1.0  0.47700  0.62540  0.30350  1.0000 -0.1712299724
C   C16       1.0  0.52300  0.37460  0.69650  1.0000 -0.1712299724
C   C17       1.0  0.38580  0.66170  0.36600  1.0000 0.2074474206
C   C18       1.0  0.61420  0.33830  0.63400  1.0000 0.2074474206
C   C19       1.0  0.35300  0.75940  0.39020  1.0000 -0.0891687174
C   C20       1.0  0.64700  0.24060  0.60980  1.0000 -0.0891687174
C   C21       1.0  0.26140  0.79140  0.45100  1.0000 0.1896526899
C   C22       1.0  0.73860  0.20860  0.54900  1.0000 0.1896526899
C   C23       1.0  0.21520  0.89080  0.46810  1.0000 -0.1918497671
C   C24       1.0  0.78480  0.10920  0.53190  1.0000 -0.1918497671
C   C25       1.0  0.12400  0.89350  0.52860  1.0000 -0.1918497671
C   C26       1.0  0.87600  0.10650  0.47140  1.0000 -0.1918497671
C   C27       1.0  0.11810  0.79640  0.54910  1.0000 0.1896526899
C   C28       1.0  0.88190  0.20360  0.45090  1.0000 0.1896526899
C   C29       1.0  0.04520  0.77120  0.61390  1.0000 -0.1010989772
C   C30       1.0  0.95480  0.22880  0.38610  1.0000 -0.1010989772
C   C31       1.0  0.04410  0.67900  0.63840  1.0000 0.2074474206
C   C32       1.0  0.95590  0.32100  0.36160  1.0000 0.2074474206
C   C33       1.0  0.97130  0.65170  0.70480  1.0000 -0.1712299724
C   C34       1.0  0.02870  0.34830  0.29520  1.0000 -0.1712299724
C   C35       1.0  0.99750  0.55780  0.70970  1.0000 -0.1712299724
C   C36       1.0  0.00250  0.44220  0.29030  1.0000 -0.1712299724
C   C37       1.0  0.08720  0.52200  0.64610  1.0000 0.2007763844
C   C38       1.0  0.91280  0.47800  0.35390  1.0000 0.2007763844
C   C39       1.0  0.14160  0.42810  0.62980  1.0000 -0.1086433917
C   C40       1.0  0.85840  0.57190  0.37020  1.0000 -0.1086433917
C   C41       1.0  0.45080  0.32530  0.32800  1.0000 0.0914685098
C   C42       1.0  0.54920  0.67470  0.67200  1.0000 0.0914685098
C   C43       1.0  0.56590  0.27420  0.34900  1.0000 -0.1504854015
C   C44       1.0  0.43410  0.72580  0.65100  1.0000 -0.1504854015
C   C45       1.0  0.61660  0.19630  0.29870  1.0000 -0.0891687174
C   C46       1.0  0.38340  0.80370  0.70130  1.0000 -0.0891687174
C   C47       1.0  0.55220  0.16760  0.22600  1.0000 -0.0891687174
C   C48       1.0  0.44780  0.83240  0.77400  1.0000 -0.0891687174
C   C49       1.0  0.44010  0.21940  0.20340  1.0000 -0.0018333043
C   C50       1.0  0.55990  0.78060  0.79660  1.0000 -0.0018333043
C   C51       1.0  0.39020  0.29840  0.25400  1.0000 -0.1504854015
C   C52       1.0  0.60980  0.70160  0.74600  1.0000 -0.1504854015
C   C53       1.0  0.36850  0.18560  0.12730  1.0000 0.5757877092
C   C54       1.0  0.63150  0.81440  0.87270  1.0000 0.5749549131
C   C55       1.0  0.42910  0.83302  0.34857  1.0000 0.0914685098
C   C56       1.0  0.57090  0.16698  0.65143  1.0000 0.0914685098
C   C57       1.0  0.53190  0.89020  0.38996  1.0000 -0.1504854015
C   C58       1.0  0.46810  0.10980  0.61004  1.0000 -0.1504854015
C   C59       1.0  0.62400  0.94350  0.35050  1.0000 -0.0891687174
C   C60       1.0  0.37600  0.05650  0.64950  1.0000 -0.0891687174
C   C61       1.0  0.61320  0.93960  0.26965  1.0000 -0.1086433917
C   C62       1.0  0.38680  0.06040  0.73035  1.0000 -0.1086433917
C   C63       1.0  0.51030  0.88250  0.22826  1.0000 -0.0114449904
C   C64       1.0  0.48970  0.11750  0.77174  1.0000 -0.0114449904
C   C65       1.0  0.41820  0.82918  0.26772  1.0000 -0.1504854015
C   C66       1.0  0.58180  0.17082  0.73228  1.0000 -0.1504854015
C   C67       1.0  0.49620  0.88090  0.14120  1.0000 0.6141962569
C   C68       1.0  0.50380  0.11910  0.85880  1.0000 0.6141962569
C   C69       1.0  0.96560  0.84750  0.66390  1.0000 0.0952112834
C   C70       1.0  0.03440  0.15250  0.33610  1.0000 0.0914685098
C   C71       1.0  0.83900  0.88080  0.63640  1.0000 -0.1429358263
C   C72       1.0  0.16100  0.11920  0.36360  1.0000 -0.1429358263
C   C73       1.0  0.75510  0.94290  0.68670  1.0000 -0.0765573967
C   C74       1.0  0.24490  0.05710  0.31330  1.0000 -0.0765573967
C   C75       1.0  0.79680  0.97310  0.76370  1.0000 -0.1010989772
C   C76       1.0  0.20320  0.02690  0.23630  1.0000 -0.1010989772
C   C77       1.0  0.92580  0.94460  0.78920  1.0000 -0.0114449904
C   C78       1.0  0.07420  0.05540  0.21080  1.0000 -0.0114449904
C   C79       1.0  0.00870  0.88340  0.74000  1.0000 -0.1504854015
C   C80       1.0  0.99130  0.11660  0.26000  1.0000 -0.1504854015
C   C81       1.0  0.97300  0.98120  0.87130  1.0000 0.6535104375
C   C82       1.0  0.02700  0.01880  0.12870  1.0000 0.6535104375
C   C83       1.0  0.11200  0.35810  0.68570  1.0000 0.0914685098
C   C84       1.0  0.88800  0.64190  0.31430  1.0000 0.0914685098
C   C85       1.0  0.02990  0.27510  0.66240  1.0000 -0.1429358263
C   C86       1.0  0.97010  0.72490  0.33760  1.0000 -0.1429358263
C   C87       1.0  0.01280  0.20490  0.71200  1.0000 -0.0891687174
C   C88       1.0  0.98720  0.79510  0.28800  1.0000 -0.0891687174
C   C89       1.0  0.07420  0.21690  0.78510  1.0000 -0.1010989772
C   C90       1.0  0.92580  0.78310  0.21490  1.0000 -0.1010989772
C   C91       1.0  0.15280  0.30030  0.81070  1.0000 -0.0114449904
C   C92       1.0  0.84720  0.69970  0.18930  1.0000 -0.0114449904
C   C93       1.0  0.16930  0.37020  0.76060  1.0000 -0.1504854015
C   C94       1.0  0.83070  0.62980  0.23940  1.0000 -0.1504854015
C   C95       1.0  0.21840  0.31390  0.89120  1.0000 0.6218336086
C   C96       1.0  0.78160  0.68610  0.10880  1.0000 0.6218336086
N   N1        1.0  0.25760  0.44800  0.50590  1.0000 -0.4897718369
N   N2        1.0  0.74240  0.55200  0.49410  1.0000 -0.4897718369
N   N3        1.0  0.33930  0.58280  0.39970  1.0000 -0.4828526367
N   N4        1.0  0.66070  0.41720  0.60030  1.0000 -0.4828526367
N   N5        1.0  0.20060  0.73480  0.50070  1.0000 -0.4897718369
N   N6        1.0  0.79940  0.26520  0.49930  1.0000 -0.4897718369
N   N7        1.0  0.11230  0.59710  0.60340  1.0000 -0.4897718369
N   N8        1.0  0.88770  0.40290  0.39660  1.0000 -0.4897718369
O   O1        1.0  0.42070  0.11670  0.08121  1.0000 -0.619083165
O   O2        1.0  0.57930  0.88330  0.91879  1.0000 -0.619083165
O   O3        1.0  0.25640  0.22440  0.10918  1.0000 -0.619083165
O   O4        1.0  0.74360  0.77560  0.89082  1.0000 -0.619083165
O   O5        1.0  0.59420  0.91670  0.10616  1.0000 -0.6812694062
O   O6        1.0  0.40580  0.08330  0.89384  1.0000 -0.6812694062
O   O7        1.0  0.38750  0.84460  0.10730  1.0000 -0.535165741
O   O8        1.0  0.61250  0.15540  0.89270  1.0000 -0.535165741
O   O9        1.0  0.09800  0.00400  0.88284  1.0000 -0.6458999951
O   O10       1.0  0.90200  0.99600  0.11716  1.0000 -0.6458999951
O   O11       1.0  0.88180  0.98900  0.92492  1.0000 -0.6888339062
O   O12       1.0  0.11820  0.01100  0.07508  1.0000 -0.6888339062
O   O13       1.0  0.26610  0.39590  0.91900  1.0000 -0.455051734
O   O14       1.0  0.73390  0.60410  0.08100  1.0000 -0.4537213285
O   O15       1.0  0.21850  0.24320  0.92930  1.0000 -0.6812694062
O   O16       1.0  0.78150  0.75680  0.07070  1.0000 -0.6812694062
O   O17       1.0  0.99060  0.16430  0.00410  1.0000 -0.7855065007
O   O18       1.0  0.00940  0.83570  0.99590  1.0000 -0.7855065007
