# DDEC6 charges by PACMAN v1.1 (https://github.com/mtap-research/PACMAN-charge/)
data_2007[Cd][ths]3[ASR]1
_chemical_formula_sum              "Cd8 H16 C16 O24"
_cell_length_a       8.365
_cell_length_b       9.795
_cell_length_c       20.946
_cell_angle_alpha    90
_cell_angle_beta     90
_cell_angle_gamma    90

_symmetry_space_group_name_H-M    "P 1"
_symmetry_Int_Tables_number       1

loop_
  _symmetry_equiv_pos_as_xyz
  'x, y, z'

loop_
  _atom_site_type_symbol
  _atom_site_label
  _atom_site_symmetry_multiplicity
  _atom_site_fract_x
  _atom_site_fract_y
  _atom_site_fract_z
  _atom_site_occupancy
  _atom_site_charge
Cd  Cd1       1.0  0.49232  0.39662  0.28324  1.0000 1.0101076581
Cd  Cd2       1.0  0.00768  0.60338  0.78324  1.0000 1.0101076581
Cd  Cd3       1.0  0.50768  0.89662  0.21676  1.0000 1.0101076581
Cd  Cd4       1.0  0.99232  0.10338  0.71676  1.0000 1.0101076581
Cd  Cd5       1.0  0.69169  0.34058  0.02134  1.0000 1.0101076581
Cd  Cd6       1.0  0.80831  0.65942  0.52134  1.0000 1.0101076581
Cd  Cd7       1.0  0.30831  0.84058  0.47866  1.0000 1.0101076581
Cd  Cd8       1.0  0.19169  0.15942  0.97866  1.0000 1.0101076581
H   H1        1.0  0.57520  0.59990  0.07590  1.0000 0.3121000148
H   H2        1.0  0.92480  0.40010  0.57590  1.0000 0.3121000148
H   H3        1.0  0.42480  0.09990  0.42410  1.0000 0.3121000148
H   H4        1.0  0.07520  0.90010  0.92410  1.0000 0.3121000148
H   H5        1.0  0.30570  0.32190  0.18440  1.0000 0.2862760045
H   H6        1.0  0.19430  0.67810  0.68440  1.0000 0.2862760045
H   H7        1.0  0.69430  0.82190  0.31560  1.0000 0.2862760045
H   H8        1.0  0.80570  0.17810  0.81560  1.0000 0.2862760045
H   H9        1.0  0.32790  0.59000  0.06030  1.0000 0.0440051241
H   H10       1.0  0.17210  0.41000  0.56030  1.0000 0.0440051241
H   H11       1.0  0.67210  0.09000  0.43970  1.0000 0.0440051241
H   H12       1.0  0.82790  0.91000  0.93970  1.0000 0.0440051241
H   H13       1.0  0.21120  0.50250  0.15400  1.0000 0.0440051241
H   H14       1.0  0.28880  0.49750  0.65400  1.0000 0.0440051241
H   H15       1.0  0.78880  0.00250  0.34600  1.0000 0.0440051241
H   H16       1.0  0.71120  0.99750  0.84600  1.0000 0.0440051241
C   C1        1.0  0.32160  0.37970  0.04449  1.0000 0.5135860063
C   C2        1.0  0.17840  0.62030  0.54449  1.0000 0.5135860063
C   C3        1.0  0.67840  0.87970  0.45551  1.0000 0.5135860063
C   C4        1.0  0.82160  0.12030  0.95551  1.0000 0.5135860063
C   C5        1.0  0.37860  0.50760  0.07983  1.0000 -0.0423188567
C   C6        1.0  0.12140  0.49240  0.57983  1.0000 -0.0423188567
C   C7        1.0  0.62140  0.00760  0.42017  1.0000 -0.0423188567
C   C8        1.0  0.87860  0.99240  0.92017  1.0000 -0.0423188567
C   C9        1.0  0.33030  0.49850  0.15081  1.0000 -0.0523122068
C   C10       1.0  0.16970  0.50150  0.65081  1.0000 -0.0523122068
C   C11       1.0  0.66970  0.99850  0.34919  1.0000 -0.0523122068
C   C12       1.0  0.83030  0.00150  0.84919  1.0000 -0.0523122068
C   C13       1.0  0.40110  0.62100  0.18596  1.0000 0.5361700572
C   C14       1.0  0.09890  0.37900  0.68596  1.0000 0.5361700572
C   C15       1.0  0.59890  0.12100  0.31404  1.0000 0.5361700572
C   C16       1.0  0.90110  0.87900  0.81404  1.0000 0.5361700572
O   O1        1.0  0.41860  0.30240  0.01646  1.0000 -0.6211862348
O   O2        1.0  0.08140  0.69760  0.51646  1.0000 -0.6211862348
O   O3        1.0  0.58140  0.80240  0.48354  1.0000 -0.6211862348
O   O4        1.0  0.91860  0.19760  0.98354  1.0000 -0.6211862348
O   O5        1.0  0.17210  0.35640  0.04455  1.0000 -0.6211862348
O   O6        1.0  0.32790  0.64360  0.54455  1.0000 -0.6211862348
O   O7        1.0  0.82790  0.85640  0.45545  1.0000 -0.6211862348
O   O8        1.0  0.67210  0.14360  0.95545  1.0000 -0.6211862348
O   O9        1.0  0.54770  0.51760  0.07391  1.0000 -0.5624399416
O   O10       1.0  0.95230  0.48240  0.57391  1.0000 -0.5624399416
O   O11       1.0  0.45230  0.01760  0.42609  1.0000 -0.5624399416
O   O12       1.0  0.04770  0.98240  0.92609  1.0000 -0.5624399416
O   O13       1.0  0.38430  0.37330  0.17781  1.0000 -0.5260228299
O   O14       1.0  0.11570  0.62670  0.67781  1.0000 -0.5247504793
O   O15       1.0  0.61570  0.87330  0.32219  1.0000 -0.5260228299
O   O16       1.0  0.88430  0.12670  0.82219  1.0000 -0.5247504793
O   O17       1.0  0.40030  0.73330  0.15598  1.0000 -0.6559427363
O   O18       1.0  0.09970  0.26670  0.65598  1.0000 -0.6547382854
O   O19       1.0  0.59970  0.23330  0.34402  1.0000 -0.6559427363
O   O20       1.0  0.90030  0.76670  0.84402  1.0000 -0.6559427363
O   O21       1.0  0.45510  0.60920  0.24208  1.0000 -0.6758858942
O   O22       1.0  0.04490  0.39080  0.74208  1.0000 -0.6758858942
O   O23       1.0  0.54490  0.10920  0.25792  1.0000 -0.6758858942
O   O24       1.0  0.95510  0.89080  0.75792  1.0000 -0.6758858942
