# DDEC6 charges by PACMAN v1.1 (https://github.com/mtap-research/PACMAN-charge/)
data_2007[Fe][dia]3[ASR]3
_chemical_formula_sum              "Fe12 H24 C24 O48"
_cell_length_a       11.4198
_cell_length_b       9.8979
_cell_length_c       18.4392
_cell_angle_alpha    90
_cell_angle_beta     126.853
_cell_angle_gamma    90

_symmetry_space_group_name_H-M    "P 1"
_symmetry_Int_Tables_number       1

loop_
  _symmetry_equiv_pos_as_xyz
  'x, y, z'

loop_
  _atom_site_type_symbol
  _atom_site_label
  _atom_site_symmetry_multiplicity
  _atom_site_fract_x
  _atom_site_fract_y
  _atom_site_fract_z
  _atom_site_occupancy
  _atom_site_charge
Fe  Fe1       1.0  0.62275  0.91784  0.86703  1.0000 0.9032287326
Fe  Fe2       1.0  0.37725  0.41784  0.63297  1.0000 0.9032287326
Fe  Fe3       1.0  0.37725  0.08216  0.13297  1.0000 0.9032287326
Fe  Fe4       1.0  0.62275  0.58216  0.36703  1.0000 0.9032287326
Fe  Fe5       1.0  0.57219  0.89330  0.31167  1.0000 0.9101568487
Fe  Fe6       1.0  0.42781  0.39330  0.18833  1.0000 0.9101568487
Fe  Fe7       1.0  0.42781  0.10670  0.68833  1.0000 0.9101568487
Fe  Fe8       1.0  0.57219  0.60670  0.81167  1.0000 0.9101568487
Fe  Fe9       1.0  0.50000  0.00000  0.00000  1.0000 0.9555670198
Fe  Fe10      1.0  0.50000  0.50000  0.50000  1.0000 0.9532096561
Fe  Fe11      1.0  0.00000  0.00000  0.00000  1.0000 1.0009389695
Fe  Fe12      1.0  1.00000  0.50000  0.50000  1.0000 1.0009389695
H   H1        1.0  0.50130  0.75870  0.63510  1.0000 0.1241839107
H   H2        1.0  0.49870  0.25870  0.86490  1.0000 0.1241839107
H   H3        1.0  0.49870  0.24130  0.36490  1.0000 0.1289307771
H   H4        1.0  0.50130  0.74130  0.13510  1.0000 0.1241839107
H   H5        1.0  0.21560  0.03410  0.73870  1.0000 0.1289307771
H   H6        1.0  0.78440  0.53410  0.76130  1.0000 0.1289307771
H   H7        1.0  0.78440  0.96590  0.26130  1.0000 0.1289307771
H   H8        1.0  0.21560  0.46590  0.23870  1.0000 0.1289307771
H   H9        1.0  0.51830  0.61920  0.95900  1.0000 0.1289307771
H   H10       1.0  0.48170  0.11920  0.54100  1.0000 0.1289307771
H   H11       1.0  0.48170  0.38080  0.04100  1.0000 0.1289307771
H   H12       1.0  0.51830  0.88080  0.45900  1.0000 0.1289307771
H   H13       1.0  0.75320  0.18990  0.77350  1.0000 0.1289307771
H   H14       1.0  0.24680  0.68990  0.72650  1.0000 0.1289307771
H   H15       1.0  0.24680  0.81010  0.22650  1.0000 0.1289307771
H   H16       1.0  0.75320  0.31010  0.27350  1.0000 0.1289307771
H   H17       1.0  0.77510  0.14900  0.07330  1.0000 0.1289307771
H   H18       1.0  0.22490  0.64900  0.42670  1.0000 0.1289307771
H   H19       1.0  0.22490  0.85100  0.92670  1.0000 0.1289307771
H   H20       1.0  0.77510  0.35100  0.57330  1.0000 0.1289307771
H   H21       1.0  0.98000  0.70130  0.98620  1.0000 0.1289307771
H   H22       1.0  0.02000  0.20130  0.51380  1.0000 0.1289307771
H   H23       1.0  0.02000  0.29870  0.01380  1.0000 0.1289307771
H   H24       1.0  0.98000  0.79870  0.48620  1.0000 0.1289307771
C   C1        1.0  0.50380  0.82650  0.67080  1.0000 0.440245318
C   C2        1.0  0.49620  0.32650  0.82920  1.0000 0.4344066557
C   C3        1.0  0.49620  0.17350  0.32920  1.0000 0.440245318
C   C4        1.0  0.50380  0.67350  0.17080  1.0000 0.440245318
C   C5        1.0  0.30870  0.01350  0.79040  1.0000 0.4215361353
C   C6        1.0  0.69130  0.51350  0.70960  1.0000 0.4215361353
C   C7        1.0  0.69130  0.98650  0.20960  1.0000 0.4215361353
C   C8        1.0  0.30870  0.48650  0.29040  1.0000 0.4215361353
C   C9        1.0  0.52580  0.71060  0.95080  1.0000 0.4215361353
C   C10       1.0  0.47420  0.21060  0.54920  1.0000 0.4215361353
C   C11       1.0  0.47420  0.28940  0.04920  1.0000 0.4215361353
C   C12       1.0  0.52580  0.78940  0.45080  1.0000 0.4215361353
C   C13       1.0  0.76810  0.12970  0.81710  1.0000 0.4139893976
C   C14       1.0  0.23190  0.62970  0.68290  1.0000 0.4215361353
C   C15       1.0  0.23190  0.87030  0.18290  1.0000 0.4215361353
C   C16       1.0  0.76810  0.37030  0.31710  1.0000 0.4139893976
C   C17       1.0  0.77610  0.09710  0.03170  1.0000 0.4505115103
C   C18       1.0  0.22390  0.59710  0.46830  1.0000 0.4505115103
C   C19       1.0  0.22390  0.90290  0.96830  1.0000 0.4505115103
C   C20       1.0  0.77610  0.40290  0.53170  1.0000 0.4505115103
C   C21       1.0  0.88040  0.71970  0.94680  1.0000 0.440245318
C   C22       1.0  0.11960  0.21970  0.55320  1.0000 0.440245318
C   C23       1.0  0.11960  0.28030  0.05320  1.0000 0.440245318
C   C24       1.0  0.88040  0.78030  0.44680  1.0000 0.440245318
O   O1        1.0  0.56290  0.79720  0.75370  1.0000 -0.549606872
O   O2        1.0  0.43710  0.29720  0.74630  1.0000 -0.549606872
O   O3        1.0  0.43710  0.20280  0.24630  1.0000 -0.549606872
O   O4        1.0  0.56290  0.70280  0.25370  1.0000 -0.549606872
O   O5        1.0  0.45030  0.93570  0.63421  1.0000 -0.4624742616
O   O6        1.0  0.54970  0.43570  0.86579  1.0000 -0.4624742616
O   O7        1.0  0.54970  0.06430  0.36579  1.0000 -0.4624742616
O   O8        1.0  0.45030  0.56430  0.13421  1.0000 -0.4624742616
O   O9        1.0  0.41050  0.00160  0.78160  1.0000 -0.549606872
O   O10       1.0  0.58950  0.50160  0.71840  1.0000 -0.549606872
O   O11       1.0  0.58950  0.99840  0.21840  1.0000 -0.549606872
O   O12       1.0  0.41050  0.49840  0.28160  1.0000 -0.549606872
O   O13       1.0  0.32370  0.00010  0.86207  1.0000 -0.486888041
O   O14       1.0  0.67630  0.50010  0.63793  1.0000 -0.486888041
O   O15       1.0  0.67630  0.99990  0.13793  1.0000 -0.486888041
O   O16       1.0  0.32370  0.49990  0.36207  1.0000 -0.486888041
O   O17       1.0  0.54530  0.74060  0.89255  1.0000 -0.5366459995
O   O18       1.0  0.45470  0.24060  0.60745  1.0000 -0.5349671069
O   O19       1.0  0.45470  0.25940  0.10745  1.0000 -0.5366459995
O   O20       1.0  0.54530  0.75940  0.39255  1.0000 -0.5366459995
O   O21       1.0  0.51570  0.79020  0.99829  1.0000 -0.486888041
O   O22       1.0  0.48430  0.29020  0.50171  1.0000 -0.486888041
O   O23       1.0  0.48430  0.20980  0.00171  1.0000 -0.486888041
O   O24       1.0  0.51570  0.70980  0.49829  1.0000 -0.486888041
O   O25       1.0  0.65470  0.08140  0.80452  1.0000 -0.5366459995
O   O26       1.0  0.34530  0.58140  0.69548  1.0000 -0.5366459995
O   O27       1.0  0.34530  0.91860  0.19548  1.0000 -0.5366459995
O   O28       1.0  0.65470  0.41860  0.30452  1.0000 -0.5366459995
O   O29       1.0  0.89530  0.10550  0.88047  1.0000 -0.4701250765
O   O30       1.0  0.10470  0.60550  0.61953  1.0000 -0.4701250765
O   O31       1.0  0.10470  0.89450  0.11953  1.0000 -0.4701250765
O   O32       1.0  0.89530  0.39450  0.38047  1.0000 -0.4701250765
O   O33       1.0  0.66350  0.02460  0.97722  1.0000 -0.549606872
O   O34       1.0  0.33650  0.52460  0.52278  1.0000 -0.549606872
O   O35       1.0  0.33650  0.97540  0.02278  1.0000 -0.549606872
O   O36       1.0  0.66350  0.47540  0.47722  1.0000 -0.549606872
O   O37       1.0  0.88530  0.10450  0.03420  1.0000 -0.486888041
O   O38       1.0  0.11470  0.60450  0.46580  1.0000 -0.486888041
O   O39       1.0  0.11470  0.89550  0.96580  1.0000 -0.486888041
O   O40       1.0  0.88530  0.39550  0.53420  1.0000 -0.486888041
O   O41       1.0  0.84030  0.84420  0.93924  1.0000 -0.549606872
O   O42       1.0  0.15970  0.34420  0.56076  1.0000 -0.549606872
O   O43       1.0  0.15970  0.15580  0.06076  1.0000 -0.549606872
O   O44       1.0  0.84030  0.65580  0.43924  1.0000 -0.549606872
O   O45       1.0  0.79670  0.62300  0.90568  1.0000 -0.486888041
O   O46       1.0  0.20330  0.12300  0.59432  1.0000 -0.486888041
O   O47       1.0  0.20330  0.37700  0.09432  1.0000 -0.486888041
O   O48       1.0  0.79670  0.87700  0.40568  1.0000 -0.486888041
