# DDEC6 charges by PACMAN v1.1 (https://github.com/mtap-research/PACMAN-charge/)
data_2007[Zn][cag]3[ASR]1
_chemical_formula_sum              "Zn16 H96 C96 N64"
_cell_length_a       15.379
_cell_length_b       15.449
_cell_length_c       18.407
_cell_angle_alpha    90
_cell_angle_beta     90
_cell_angle_gamma    90

_symmetry_space_group_name_H-M    "P 1"
_symmetry_Int_Tables_number       1

loop_
  _symmetry_equiv_pos_as_xyz
  'x, y, z'

loop_
  _atom_site_type_symbol
  _atom_site_label
  _atom_site_symmetry_multiplicity
  _atom_site_fract_x
  _atom_site_fract_y
  _atom_site_fract_z
  _atom_site_occupancy
  _atom_site_charge
Zn  Zn1       1.0  0.20052  0.13963  0.40614  1.0000 0.6031675774
Zn  Zn2       1.0  0.29948  0.86037  0.90614  1.0000 0.6031675774
Zn  Zn3       1.0  0.79948  0.63963  0.09386  1.0000 0.6031675774
Zn  Zn4       1.0  0.70052  0.36037  0.59386  1.0000 0.6031675774
Zn  Zn5       1.0  0.79948  0.86037  0.59386  1.0000 0.6031675774
Zn  Zn6       1.0  0.70052  0.13963  0.09386  1.0000 0.6031675774
Zn  Zn7       1.0  0.20052  0.36037  0.90614  1.0000 0.6031675774
Zn  Zn8       1.0  0.29948  0.63963  0.40614  1.0000 0.6050920485
Zn  Zn9       1.0  0.50879  0.33582  0.31534  1.0000 0.6031675774
Zn  Zn10      1.0  0.99121  0.66418  0.81534  1.0000 0.6031675774
Zn  Zn11      1.0  0.49121  0.83582  0.18466  1.0000 0.6031675774
Zn  Zn12      1.0  0.00879  0.16418  0.68466  1.0000 0.6031675774
Zn  Zn13      1.0  0.49121  0.66418  0.68466  1.0000 0.6031675774
Zn  Zn14      1.0  0.00879  0.33582  0.18466  1.0000 0.6031675774
Zn  Zn15      1.0  0.50879  0.16418  0.81534  1.0000 0.6031675774
Zn  Zn16      1.0  0.99121  0.83582  0.31534  1.0000 0.6031675774
H   H1        1.0  0.32120  0.28060  0.34680  1.0000 0.0894001366
H   H2        1.0  0.17880  0.71940  0.84680  1.0000 0.0894001366
H   H3        1.0  0.67880  0.78060  0.15320  1.0000 0.0894001366
H   H4        1.0  0.82120  0.21940  0.65320  1.0000 0.0894001366
H   H5        1.0  0.67880  0.71940  0.65320  1.0000 0.0894001366
H   H6        1.0  0.82120  0.28060  0.15320  1.0000 0.0894001366
H   H7        1.0  0.32120  0.21940  0.84680  1.0000 0.0894001366
H   H8        1.0  0.17880  0.78060  0.34680  1.0000 0.0894001366
H   H9        1.0  0.39640  0.05880  0.42430  1.0000 0.1018103402
H   H10       1.0  0.10360  0.94120  0.92430  1.0000 0.1018103402
H   H11       1.0  0.60360  0.55880  0.07570  1.0000 0.1018103402
H   H12       1.0  0.89640  0.44120  0.57570  1.0000 0.1018103402
H   H13       1.0  0.60360  0.94120  0.57570  1.0000 0.1018103402
H   H14       1.0  0.89640  0.05880  0.07570  1.0000 0.1018103402
H   H15       1.0  0.39640  0.44120  0.92430  1.0000 0.1018103402
H   H16       1.0  0.10360  0.55880  0.42430  1.0000 0.1018103402
H   H17       1.0  0.52550  0.13910  0.38590  1.0000 0.1018103402
H   H18       1.0  0.97450  0.86090  0.88590  1.0000 0.1018103402
H   H19       1.0  0.47450  0.63910  0.11410  1.0000 0.1018103402
H   H20       1.0  0.02550  0.36090  0.61410  1.0000 0.1018103402
H   H21       1.0  0.47450  0.86090  0.61410  1.0000 0.1018103402
H   H22       1.0  0.02550  0.13910  0.11410  1.0000 0.1018103402
H   H23       1.0  0.52550  0.36090  0.88590  1.0000 0.1018103402
H   H24       1.0  0.97450  0.63910  0.38590  1.0000 0.1018103402
H   H25       1.0  0.06320  0.18840  0.52230  1.0000 0.0894001366
H   H26       1.0  0.43680  0.81160  0.02230  1.0000 0.0894001366
H   H27       1.0  0.93680  0.68840  0.97770  1.0000 0.0894001366
H   H28       1.0  0.56320  0.31160  0.47770  1.0000 0.0894001366
H   H29       1.0  0.93680  0.81160  0.47770  1.0000 0.0894001366
H   H30       1.0  0.56320  0.18840  0.97770  1.0000 0.0894001366
H   H31       1.0  0.06320  0.31160  0.02230  1.0000 0.0894001366
H   H32       1.0  0.43680  0.68840  0.52230  1.0000 0.0894001366
H   H33       1.0  0.26700  0.04820  0.55460  1.0000 0.1091716437
H   H34       1.0  0.23300  0.95180  0.05460  1.0000 0.1091716437
H   H35       1.0  0.73300  0.54820  0.94540  1.0000 0.1091716437
H   H36       1.0  0.76700  0.45180  0.44540  1.0000 0.1091716437
H   H37       1.0  0.73300  0.95180  0.44540  1.0000 0.1091716437
H   H38       1.0  0.76700  0.04820  0.94540  1.0000 0.1091716437
H   H39       1.0  0.26700  0.45180  0.05460  1.0000 0.1091716437
H   H40       1.0  0.23300  0.54820  0.55460  1.0000 0.1091716437
H   H41       1.0  0.18830  0.06090  0.66800  1.0000 0.1018103402
H   H42       1.0  0.31170  0.93910  0.16800  1.0000 0.1018103402
H   H43       1.0  0.81170  0.56090  0.83200  1.0000 0.1018103402
H   H44       1.0  0.68830  0.43910  0.33200  1.0000 0.1018103402
H   H45       1.0  0.81170  0.93910  0.33200  1.0000 0.1018103402
H   H46       1.0  0.68830  0.06090  0.83200  1.0000 0.1018103402
H   H47       1.0  0.18830  0.43910  0.16800  1.0000 0.1018103402
H   H48       1.0  0.31170  0.56090  0.66800  1.0000 0.1018103402
H   H49       1.0  0.06330  0.99030  0.40480  1.0000 0.0894001366
H   H50       1.0  0.43670  0.00970  0.90480  1.0000 0.0894001366
H   H51       1.0  0.93670  0.49030  0.09520  1.0000 0.0894001366
H   H52       1.0  0.56330  0.50970  0.59520  1.0000 0.0894001366
H   H53       1.0  0.93670  0.00970  0.59520  1.0000 0.0894001366
H   H54       1.0  0.56330  0.99030  0.09520  1.0000 0.0894001366
H   H55       1.0  0.06330  0.50970  0.90480  1.0000 0.0894001366
H   H56       1.0  0.43670  0.49030  0.40480  1.0000 0.0894001366
H   H57       1.0  0.23640  0.03600  0.25720  1.0000 0.1018103402
H   H58       1.0  0.26360  0.96400  0.75720  1.0000 0.1018103402
H   H59       1.0  0.76360  0.53600  0.24280  1.0000 0.1018103402
H   H60       1.0  0.73640  0.46400  0.74280  1.0000 0.1018103402
H   H61       1.0  0.76360  0.96400  0.74280  1.0000 0.1018103402
H   H62       1.0  0.73640  0.03600  0.24280  1.0000 0.1018103402
H   H63       1.0  0.23640  0.46400  0.75720  1.0000 0.1018103402
H   H64       1.0  0.26360  0.53600  0.25720  1.0000 0.1018103402
H   H65       1.0  0.14240  0.92120  0.21330  1.0000 0.1018103402
H   H66       1.0  0.35760  0.07880  0.71330  1.0000 0.1018103402
H   H67       1.0  0.85760  0.42120  0.28670  1.0000 0.1018103402
H   H68       1.0  0.64240  0.57880  0.78670  1.0000 0.1018103402
H   H69       1.0  0.85760  0.07880  0.78670  1.0000 0.1018103402
H   H70       1.0  0.64240  0.92120  0.28670  1.0000 0.1018103402
H   H71       1.0  0.14240  0.57880  0.71330  1.0000 0.1018103402
H   H72       1.0  0.35760  0.42120  0.21330  1.0000 0.1018103402
H   H73       1.0  0.09820  0.18870  0.26980  1.0000 0.0894001366
H   H74       1.0  0.40180  0.81130  0.76980  1.0000 0.0894001366
H   H75       1.0  0.90180  0.68870  0.23020  1.0000 0.0894001366
H   H76       1.0  0.59820  0.31130  0.73020  1.0000 0.0894001366
H   H77       1.0  0.90180  0.81130  0.73020  1.0000 0.0894001366
H   H78       1.0  0.59820  0.18870  0.23020  1.0000 0.0894001366
H   H79       1.0  0.09820  0.31130  0.76980  1.0000 0.0894001366
H   H80       1.0  0.40180  0.68870  0.26980  1.0000 0.0894001366
H   H81       1.0  0.05850  0.42190  0.34010  1.0000 0.1018103402
H   H82       1.0  0.44150  0.57810  0.84010  1.0000 0.1018103402
H   H83       1.0  0.94150  0.92190  0.15990  1.0000 0.1018103402
H   H84       1.0  0.55850  0.07810  0.65990  1.0000 0.1018103402
H   H85       1.0  0.94150  0.57810  0.65990  1.0000 0.1018103402
H   H86       1.0  0.55850  0.42190  0.15990  1.0000 0.1018103402
H   H87       1.0  0.05850  0.07810  0.84010  1.0000 0.1018103402
H   H88       1.0  0.44150  0.92190  0.34010  1.0000 0.1018103402
H   H89       1.0  0.13670  0.34260  0.43420  1.0000 0.1018103402
H   H90       1.0  0.36330  0.65740  0.93420  1.0000 0.1018103402
H   H91       1.0  0.86330  0.84260  0.06580  1.0000 0.1018103402
H   H92       1.0  0.63670  0.15740  0.56580  1.0000 0.1018103402
H   H93       1.0  0.86330  0.65740  0.56580  1.0000 0.1018103402
H   H94       1.0  0.63670  0.34260  0.06580  1.0000 0.1018103402
H   H95       1.0  0.13670  0.15740  0.93420  1.0000 0.1018103402
H   H96       1.0  0.36330  0.84260  0.43420  1.0000 0.1018103402
C   C1        1.0  0.35650  0.23460  0.36060  1.0000 0.1275144646
C   C2        1.0  0.14350  0.76540  0.86060  1.0000 0.1275144646
C   C3        1.0  0.64350  0.73460  0.13940  1.0000 0.1275144646
C   C4        1.0  0.85650  0.26540  0.63940  1.0000 0.1275144646
C   C5        1.0  0.64350  0.76540  0.63940  1.0000 0.1275144646
C   C6        1.0  0.85650  0.23460  0.13940  1.0000 0.1275144646
C   C7        1.0  0.35650  0.26540  0.86060  1.0000 0.1275144646
C   C8        1.0  0.14350  0.73460  0.36060  1.0000 0.1275144646
C   C9        1.0  0.39660  0.11350  0.40310  1.0000 -0.0713721003
C   C10       1.0  0.10340  0.88650  0.90310  1.0000 -0.0713721003
C   C11       1.0  0.60340  0.61350  0.09690  1.0000 -0.0713721003
C   C12       1.0  0.89660  0.38650  0.59690  1.0000 -0.0713721003
C   C13       1.0  0.60340  0.88650  0.59690  1.0000 -0.0713721003
C   C14       1.0  0.89660  0.11350  0.09690  1.0000 -0.0713721003
C   C15       1.0  0.39660  0.38650  0.90310  1.0000 -0.0713721003
C   C16       1.0  0.10340  0.61350  0.40310  1.0000 -0.0713721003
C   C17       1.0  0.46840  0.15820  0.38200  1.0000 -0.078251859
C   C18       1.0  0.03160  0.84180  0.88200  1.0000 -0.078251859
C   C19       1.0  0.53160  0.65820  0.11800  1.0000 -0.078251859
C   C20       1.0  0.96840  0.34180  0.61800  1.0000 -0.078251859
C   C21       1.0  0.53160  0.84180  0.61800  1.0000 -0.078251859
C   C22       1.0  0.96840  0.15820  0.11800  1.0000 -0.078251859
C   C23       1.0  0.46840  0.34180  0.88200  1.0000 -0.078251859
C   C24       1.0  0.03160  0.65820  0.38200  1.0000 -0.078251859
C   C25       1.0  0.10490  0.15410  0.54480  1.0000 0.1353041379
C   C26       1.0  0.39510  0.84590  0.04480  1.0000 0.1353041379
C   C27       1.0  0.89510  0.65410  0.95520  1.0000 0.1353041379
C   C28       1.0  0.60490  0.34590  0.45520  1.0000 0.1353041379
C   C29       1.0  0.89510  0.84590  0.45520  1.0000 0.1353041379
C   C30       1.0  0.60490  0.15410  0.95520  1.0000 0.1353041379
C   C31       1.0  0.10490  0.34590  0.04480  1.0000 0.1353041379
C   C32       1.0  0.39510  0.65410  0.54480  1.0000 0.1353041379
C   C33       1.0  0.21550  0.07870  0.56140  1.0000 -0.0713721003
C   C34       1.0  0.28450  0.92130  0.06140  1.0000 -0.0713721003
C   C35       1.0  0.78450  0.57870  0.93860  1.0000 -0.0713721003
C   C36       1.0  0.71550  0.42130  0.43860  1.0000 -0.0713721003
C   C37       1.0  0.78450  0.92130  0.43860  1.0000 -0.0713721003
C   C38       1.0  0.71550  0.07870  0.93860  1.0000 -0.0713721003
C   C39       1.0  0.21550  0.42130  0.06140  1.0000 -0.0713721003
C   C40       1.0  0.28450  0.57870  0.56140  1.0000 -0.0713721003
C   C41       1.0  0.17160  0.08540  0.62400  1.0000 -0.0609083885
C   C42       1.0  0.32840  0.91460  0.12400  1.0000 -0.0609083885
C   C43       1.0  0.82840  0.58540  0.87600  1.0000 -0.0609083885
C   C44       1.0  0.67160  0.41460  0.37600  1.0000 -0.0609083885
C   C45       1.0  0.82840  0.91460  0.37600  1.0000 -0.0609083885
C   C46       1.0  0.67160  0.08540  0.87600  1.0000 -0.0609083885
C   C47       1.0  0.17160  0.41460  0.12400  1.0000 -0.0609083885
C   C48       1.0  0.32840  0.58540  0.62400  1.0000 -0.0609083885
C   C49       1.0  0.09520  0.98730  0.36200  1.0000 0.1222229747
C   C50       1.0  0.40480  0.01270  0.86200  1.0000 0.1222229747
C   C51       1.0  0.90480  0.48730  0.13800  1.0000 0.1222229747
C   C52       1.0  0.59520  0.51270  0.63800  1.0000 0.1222229747
C   C53       1.0  0.90480  0.01270  0.63800  1.0000 0.1222229747
C   C54       1.0  0.59520  0.98730  0.13800  1.0000 0.1222229747
C   C55       1.0  0.09520  0.51270  0.86200  1.0000 0.1222229747
C   C56       1.0  0.40480  0.48730  0.36200  1.0000 0.1222229747
C   C57       1.0  0.18950  0.01270  0.28230  1.0000 -0.078251859
C   C58       1.0  0.31050  0.98730  0.78230  1.0000 -0.078251859
C   C59       1.0  0.81050  0.51270  0.21770  1.0000 -0.078251859
C   C60       1.0  0.68950  0.48730  0.71770  1.0000 -0.078251859
C   C61       1.0  0.81050  0.98730  0.71770  1.0000 -0.078251859
C   C62       1.0  0.68950  0.01270  0.21770  1.0000 -0.078251859
C   C63       1.0  0.18950  0.48730  0.78230  1.0000 -0.078251859
C   C64       1.0  0.31050  0.51270  0.28230  1.0000 -0.078251859
C   C65       1.0  0.13730  0.94900  0.25790  1.0000 -0.0713721003
C   C66       1.0  0.36270  0.05100  0.75790  1.0000 -0.0713721003
C   C67       1.0  0.86270  0.44900  0.24210  1.0000 -0.0713721003
C   C68       1.0  0.63730  0.55100  0.74210  1.0000 -0.0713721003
C   C69       1.0  0.86270  0.05100  0.74210  1.0000 -0.0713721003
C   C70       1.0  0.63730  0.94900  0.24210  1.0000 -0.0713721003
C   C71       1.0  0.13730  0.55100  0.75790  1.0000 -0.0713721003
C   C72       1.0  0.36270  0.44900  0.25790  1.0000 -0.0713721003
C   C73       1.0  0.09790  0.23750  0.29940  1.0000 0.1275144646
C   C74       1.0  0.40210  0.76250  0.79940  1.0000 0.1275144646
C   C75       1.0  0.90210  0.73750  0.20060  1.0000 0.1275144646
C   C76       1.0  0.59790  0.26250  0.70060  1.0000 0.1275144646
C   C77       1.0  0.90210  0.76250  0.70060  1.0000 0.1275144646
C   C78       1.0  0.59790  0.23750  0.20060  1.0000 0.1275144646
C   C79       1.0  0.09790  0.26250  0.79940  1.0000 0.1275144646
C   C80       1.0  0.40210  0.73750  0.29940  1.0000 0.1275144646
C   C81       1.0  0.07590  0.36440  0.33710  1.0000 -0.0713721003
C   C82       1.0  0.42410  0.63560  0.83710  1.0000 -0.0713721003
C   C83       1.0  0.92410  0.86440  0.16290  1.0000 -0.0713721003
C   C84       1.0  0.57590  0.13560  0.66290  1.0000 -0.0713721003
C   C85       1.0  0.92410  0.63560  0.66290  1.0000 -0.0713721003
C   C86       1.0  0.57590  0.36440  0.16290  1.0000 -0.0713721003
C   C87       1.0  0.07590  0.13560  0.83710  1.0000 -0.0713721003
C   C88       1.0  0.42410  0.86440  0.33710  1.0000 -0.0713721003
C   C89       1.0  0.11950  0.32060  0.38940  1.0000 -0.078251859
C   C90       1.0  0.38050  0.67940  0.88940  1.0000 -0.078251859
C   C91       1.0  0.88050  0.82060  0.11060  1.0000 -0.078251859
C   C92       1.0  0.61950  0.17940  0.61060  1.0000 -0.078251859
C   C93       1.0  0.88050  0.67940  0.61060  1.0000 -0.078251859
C   C94       1.0  0.61950  0.32060  0.11060  1.0000 -0.078251859
C   C95       1.0  0.11950  0.17940  0.88940  1.0000 -0.078251859
C   C96       1.0  0.38050  0.82060  0.38940  1.0000 -0.078251859
N   N1        1.0  0.44240  0.23580  0.35420  1.0000 -0.2960448267
N   N2        1.0  0.05760  0.76420  0.85420  1.0000 -0.2960448267
N   N3        1.0  0.55760  0.73580  0.14580  1.0000 -0.2960448267
N   N4        1.0  0.94240  0.26420  0.64580  1.0000 -0.2960448267
N   N5        1.0  0.55760  0.76420  0.64580  1.0000 -0.2960448267
N   N6        1.0  0.94240  0.23580  0.14580  1.0000 -0.2960448267
N   N7        1.0  0.44240  0.26420  0.85420  1.0000 -0.2960448267
N   N8        1.0  0.05760  0.73580  0.35420  1.0000 -0.2960448267
N   N9        1.0  0.32590  0.16190  0.38820  1.0000 -0.2841100881
N   N10       1.0  0.17410  0.83810  0.88820  1.0000 -0.2841100881
N   N11       1.0  0.67410  0.66190  0.11180  1.0000 -0.2841100881
N   N12       1.0  0.82590  0.33810  0.61180  1.0000 -0.2841100881
N   N13       1.0  0.67410  0.83810  0.61180  1.0000 -0.2841100881
N   N14       1.0  0.82590  0.16190  0.11180  1.0000 -0.2841100881
N   N15       1.0  0.32590  0.33810  0.88820  1.0000 -0.2841100881
N   N16       1.0  0.17410  0.66190  0.38820  1.0000 -0.2841100881
N   N17       1.0  0.10000  0.13300  0.61329  1.0000 -0.2882448437
N   N18       1.0  0.40000  0.86700  0.11329  1.0000 -0.2882448437
N   N19       1.0  0.90000  0.63300  0.88671  1.0000 -0.2882448437
N   N20       1.0  0.60000  0.36700  0.38671  1.0000 -0.2882448437
N   N21       1.0  0.90000  0.86700  0.38671  1.0000 -0.2882448437
N   N22       1.0  0.60000  0.13300  0.88671  1.0000 -0.2882448437
N   N23       1.0  0.10000  0.36700  0.11329  1.0000 -0.2882448437
N   N24       1.0  0.40000  0.63300  0.61329  1.0000 -0.2882448437
N   N25       1.0  0.17230  0.12380  0.50974  1.0000 -0.2882448437
N   N26       1.0  0.32770  0.87620  0.00974  1.0000 -0.2882448437
N   N27       1.0  0.82770  0.62380  0.99026  1.0000 -0.2882448437
N   N28       1.0  0.67230  0.37620  0.49026  1.0000 -0.2882448437
N   N29       1.0  0.82770  0.87620  0.49026  1.0000 -0.2882448437
N   N30       1.0  0.67230  0.12380  0.99026  1.0000 -0.2882448437
N   N31       1.0  0.17230  0.37620  0.00974  1.0000 -0.2882448437
N   N32       1.0  0.32770  0.62380  0.50974  1.0000 -0.2882448437
N   N33       1.0  0.07650  0.93220  0.30859  1.0000 -0.2960448267
N   N34       1.0  0.42350  0.06780  0.80859  1.0000 -0.2960448267
N   N35       1.0  0.92350  0.43220  0.19141  1.0000 -0.2960448267
N   N36       1.0  0.57650  0.56780  0.69141  1.0000 -0.2960448267
N   N37       1.0  0.92350  0.06780  0.69141  1.0000 -0.2960448267
N   N38       1.0  0.57650  0.93220  0.19141  1.0000 -0.2960448267
N   N39       1.0  0.07650  0.56780  0.80859  1.0000 -0.2960448267
N   N40       1.0  0.42350  0.43220  0.30859  1.0000 -0.2960448267
N   N41       1.0  0.16260  0.03710  0.34885  1.0000 -0.2882448437
N   N42       1.0  0.33740  0.96290  0.84885  1.0000 -0.2882448437
N   N43       1.0  0.83740  0.53710  0.15115  1.0000 -0.2882448437
N   N44       1.0  0.66260  0.46290  0.65115  1.0000 -0.2882448437
N   N45       1.0  0.83740  0.96290  0.65115  1.0000 -0.2882448437
N   N46       1.0  0.66260  0.03710  0.15115  1.0000 -0.2882448437
N   N47       1.0  0.16260  0.46290  0.84885  1.0000 -0.2882448437
N   N48       1.0  0.33740  0.53710  0.34885  1.0000 -0.2882448437
N   N49       1.0  0.06170  0.31150  0.27986  1.0000 -0.2882448437
N   N50       1.0  0.43830  0.68850  0.77986  1.0000 -0.2882448437
N   N51       1.0  0.93830  0.81150  0.22014  1.0000 -0.2882448437
N   N52       1.0  0.56170  0.18850  0.72014  1.0000 -0.2882448437
N   N53       1.0  0.93830  0.68850  0.72014  1.0000 -0.2882448437
N   N54       1.0  0.56170  0.31150  0.22014  1.0000 -0.2882448437
N   N55       1.0  0.06170  0.18850  0.77986  1.0000 -0.2882448437
N   N56       1.0  0.43830  0.81150  0.27986  1.0000 -0.2882448437
N   N57       1.0  0.13360  0.23900  0.36498  1.0000 -0.2882448437
N   N58       1.0  0.36640  0.76100  0.86498  1.0000 -0.2882448437
N   N59       1.0  0.86640  0.73900  0.13502  1.0000 -0.2882448437
N   N60       1.0  0.63360  0.26100  0.63502  1.0000 -0.2882448437
N   N61       1.0  0.86640  0.76100  0.63502  1.0000 -0.2882448437
N   N62       1.0  0.63360  0.23900  0.13502  1.0000 -0.2882448437
N   N63       1.0  0.13360  0.26100  0.86498  1.0000 -0.2882448437
N   N64       1.0  0.36640  0.73900  0.36498  1.0000 -0.2882448437
