# DDEC6 charges by PACMAN v1.1 (https://github.com/mtap-research/PACMAN-charge/)
data_2007[Ga][nan]3[ASR]2
_chemical_formula_sum              "Ga6 P6 C2 O28"
_cell_length_a       8.9999
_cell_length_b       9.1123
_cell_length_c       9.4932
_cell_angle_alpha    90.837
_cell_angle_beta     94.231
_cell_angle_gamma    94.178

_symmetry_space_group_name_H-M    "P 1"
_symmetry_Int_Tables_number       1

loop_
  _symmetry_equiv_pos_as_xyz
  'x, y, z'

loop_
  _atom_site_type_symbol
  _atom_site_label
  _atom_site_symmetry_multiplicity
  _atom_site_fract_x
  _atom_site_fract_y
  _atom_site_fract_z
  _atom_site_occupancy
  _atom_site_charge
Ga  Ga1       1.0  0.28306  0.07308  0.61728  1.0000 1.440874099
Ga  Ga2       1.0  0.71694  0.92692  0.38272  1.0000 1.440874099
Ga  Ga3       1.0  0.61057  0.34147  0.13351  1.0000 1.546622216
Ga  Ga4       1.0  0.38943  0.65853  0.86649  1.0000 1.546622216
Ga  Ga5       1.0  0.19182  0.09975  0.09224  1.0000 1.5378540747
Ga  Ga6       1.0  0.80818  0.90025  0.90776  1.0000 1.5378540747
P   P1        1.0  0.43931  0.14548  0.33640  1.0000 1.568181514
P   P2        1.0  0.56069  0.85452  0.66360  1.0000 1.568181514
P   P3        1.0  0.36696  0.29998  0.88344  1.0000 1.5575131767
P   P4        1.0  0.63304  0.70002  0.11656  1.0000 1.5575131767
P   P5        1.0  0.12759  0.86355  0.86230  1.0000 1.5575131767
P   P6        1.0  0.87241  0.13645  0.13770  1.0000 1.5575131767
C   C1        1.0  0.97620  0.07310  0.52850  1.0000 0.4914162748
C   C2        1.0  0.02380  0.92690  0.47150  1.0000 0.4914162748
O   O1        1.0  0.34150  0.17900  0.45510  1.0000 -0.7357971675
O   O2        1.0  0.65850  0.82100  0.54490  1.0000 -0.7357971675
O   O3        1.0  0.34710  0.06170  0.21400  1.0000 -0.7502484329
O   O4        1.0  0.65290  0.93830  0.78600  1.0000 -0.7502484329
O   O5        1.0  0.56700  0.05790  0.38290  1.0000 -0.7102155395
O   O6        1.0  0.43300  0.94210  0.61710  1.0000 -0.7102155395
O   O7        1.0  0.49790  0.29760  0.27980  1.0000 -0.757985682
O   O8        1.0  0.50210  0.70240  0.72020  1.0000 -0.757985682
O   O9        1.0  0.23560  0.24420  0.96830  1.0000 -0.7502484329
O   O10       1.0  0.76440  0.75580  0.03170  1.0000 -0.7502484329
O   O11       1.0  0.36680  0.22870  0.73970  1.0000 -0.6880211242
O   O12       1.0  0.63320  0.77130  0.26030  1.0000 -0.6880211242
O   O13       1.0  0.51430  0.27310  0.96740  1.0000 -0.7708176978
O   O14       1.0  0.48570  0.72690  0.03260  1.0000 -0.7708176978
O   O15       1.0  0.35220  0.46290  0.86700  1.0000 -0.7273563452
O   O16       1.0  0.64780  0.53710  0.13300  1.0000 -0.7273563452
O   O17       1.0  0.19950  0.71640  0.85300  1.0000 -0.7102155395
O   O18       1.0  0.80050  0.28360  0.14700  1.0000 -0.7102155395
O   O19       1.0  0.13580  0.91570  0.01900  1.0000 -0.7502484329
O   O20       1.0  0.86420  0.08430  0.98100  1.0000 -0.7502484329
O   O21       1.0  0.20290  0.97840  0.77800  1.0000 -0.7502484329
O   O22       1.0  0.79710  0.02160  0.22200  1.0000 -0.7502484329
O   O23       1.0  0.96120  0.83230  0.81270  1.0000 -0.7217985399
O   O24       1.0  0.03880  0.16770  0.18730  1.0000 -0.7217985399
O   O25       1.0  0.07730  0.15950  0.58870  1.0000 -0.4445120401
O   O26       1.0  0.92270  0.84050  0.41130  1.0000 -0.4445120401
O   O27       1.0  0.84120  0.09490  0.51060  1.0000 -0.432261125
O   O28       1.0  0.15880  0.90510  0.48940  1.0000 -0.432261125
