# DDEC6 charges by PACMAN v1.1 (https://github.com/mtap-research/PACMAN-charge/)
data_2007[Cd][rtl]3[ASR]1
_chemical_formula_sum              "Cd8 H24 C72 O48"
_cell_length_a       16.0984
_cell_length_b       14.607
_cell_length_c       16.1257
_cell_angle_alpha    90
_cell_angle_beta     101.479
_cell_angle_gamma    90

_symmetry_space_group_name_H-M    "P 1"
_symmetry_Int_Tables_number       1

loop_
  _symmetry_equiv_pos_as_xyz
  'x, y, z'

loop_
  _atom_site_type_symbol
  _atom_site_label
  _atom_site_symmetry_multiplicity
  _atom_site_fract_x
  _atom_site_fract_y
  _atom_site_fract_z
  _atom_site_occupancy
  _atom_site_charge
Cd  Cd1       1.0  0.54228  0.06820  0.60860  1.0000 1.0118437669
Cd  Cd2       1.0  0.45772  0.56820  0.89140  1.0000 1.0158037008
Cd  Cd3       1.0  0.45772  0.93180  0.39140  1.0000 1.0118437669
Cd  Cd4       1.0  0.54228  0.43180  0.10860  1.0000 1.0118437669
Cd  Cd5       1.0  0.95767  0.93266  0.89137  1.0000 1.0010435643
Cd  Cd6       1.0  0.04233  0.43266  0.60863  1.0000 1.0010435643
Cd  Cd7       1.0  0.04233  0.06734  0.10863  1.0000 1.0010435643
Cd  Cd8       1.0  0.95767  0.56734  0.39137  1.0000 1.0010435643
H   H1        1.0  0.92320  0.77510  0.62490  1.0000 0.1389091169
H   H2        1.0  0.07680  0.27510  0.87510  1.0000 0.1389091169
H   H3        1.0  0.07680  0.22490  0.37510  1.0000 0.1389091169
H   H4        1.0  0.92320  0.72490  0.12490  1.0000 0.1389091169
H   H5        1.0  0.72620  0.78500  0.43220  1.0000 0.1316679126
H   H6        1.0  0.27380  0.28500  0.06780  1.0000 0.1316679126
H   H7        1.0  0.27380  0.21500  0.56780  1.0000 0.1316679126
H   H8        1.0  0.72620  0.71500  0.93220  1.0000 0.1316679126
H   H9        1.0  0.73050  0.94480  0.63370  1.0000 0.1389091169
H   H10       1.0  0.26950  0.44480  0.86630  1.0000 0.1389091169
H   H11       1.0  0.26950  0.05520  0.36630  1.0000 0.1389091169
H   H12       1.0  0.73050  0.55520  0.13370  1.0000 0.1389091169
H   H13       1.0  0.57700  0.27410  0.37230  1.0000 0.1389091169
H   H14       1.0  0.42300  0.77410  0.12770  1.0000 0.1389091169
H   H15       1.0  0.42300  0.72590  0.62770  1.0000 0.1389091169
H   H16       1.0  0.57700  0.22590  0.87230  1.0000 0.1389091169
H   H17       1.0  0.76380  0.44750  0.36460  1.0000 0.1316679126
H   H18       1.0  0.23620  0.94750  0.13540  1.0000 0.1316679126
H   H19       1.0  0.23620  0.55250  0.63540  1.0000 0.1316679126
H   H20       1.0  0.76380  0.05250  0.86460  1.0000 0.1316679126
H   H21       1.0  0.77380  0.28990  0.56920  1.0000 0.1389091169
H   H22       1.0  0.22620  0.78990  0.93080  1.0000 0.1389091169
H   H23       1.0  0.22620  0.71010  0.43080  1.0000 0.1389091169
H   H24       1.0  0.77380  0.21010  0.06920  1.0000 0.1389091169
C   C1        1.0  0.88230  0.89670  0.72910  1.0000 0.5311830999
C   C2        1.0  0.11770  0.39670  0.77090  1.0000 0.5311830999
C   C3        1.0  0.11770  0.10330  0.27090  1.0000 0.5311830999
C   C4        1.0  0.88230  0.60330  0.22910  1.0000 0.5311830999
C   C5        1.0  0.83350  0.86640  0.63990  1.0000 0.01277082
C   C6        1.0  0.16650  0.36640  0.86010  1.0000 0.01277082
C   C7        1.0  0.16650  0.13360  0.36010  1.0000 0.01277082
C   C8        1.0  0.83350  0.63360  0.13990  1.0000 0.01277082
C   C9        1.0  0.87110  0.79960  0.59910  1.0000 -0.0916280443
C   C10       1.0  0.12890  0.29960  0.90090  1.0000 -0.0916280443
C   C11       1.0  0.12890  0.20040  0.40090  1.0000 -0.0916280443
C   C12       1.0  0.87110  0.70040  0.09910  1.0000 -0.0953460275
C   C13       1.0  0.83210  0.76960  0.52150  1.0000 -0.0031088159
C   C14       1.0  0.16790  0.26960  0.97850  1.0000 -0.0031088159
C   C15       1.0  0.16790  0.23040  0.47850  1.0000 -0.0031088159
C   C16       1.0  0.83210  0.73040  0.02150  1.0000 -0.0031088159
C   C17       1.0  0.75400  0.80610  0.48480  1.0000 -0.0916280443
C   C18       1.0  0.24600  0.30610  0.01520  1.0000 -0.0819192517
C   C19       1.0  0.24600  0.19390  0.51520  1.0000 -0.0819192517
C   C20       1.0  0.75400  0.69390  0.98480  1.0000 -0.0916280443
C   C21       1.0  0.71640  0.87410  0.52560  1.0000 -0.0259850874
C   C22       1.0  0.28360  0.37410  0.97440  1.0000 -0.0259850874
C   C23       1.0  0.28360  0.12590  0.47440  1.0000 -0.0259850874
C   C24       1.0  0.71640  0.62590  0.02560  1.0000 -0.0198147917
C   C25       1.0  0.75610  0.90190  0.60430  1.0000 -0.0916280443
C   C26       1.0  0.24390  0.40190  0.89570  1.0000 -0.0916280443
C   C27       1.0  0.24390  0.09810  0.39570  1.0000 -0.0916280443
C   C28       1.0  0.75610  0.59810  0.10430  1.0000 -0.0953460275
C   C29       1.0  0.87090  0.70110  0.46860  1.0000 0.5195147009
C   C30       1.0  0.12910  0.20110  0.03140  1.0000 0.5195147009
C   C31       1.0  0.12910  0.29890  0.53140  1.0000 0.5195147009
C   C32       1.0  0.87090  0.79890  0.96860  1.0000 0.5195147009
C   C33       1.0  0.63020  0.90790  0.48730  1.0000 0.5715563954
C   C34       1.0  0.36980  0.40790  0.01270  1.0000 0.5715563954
C   C35       1.0  0.36980  0.09210  0.51270  1.0000 0.5715563954
C   C36       1.0  0.63020  0.59210  0.98730  1.0000 0.5715563954
C   C37       1.0  0.62830  0.20160  0.52790  1.0000 0.5195147009
C   C38       1.0  0.37170  0.70160  0.97210  1.0000 0.5195147009
C   C39       1.0  0.37170  0.79840  0.47210  1.0000 0.5195147009
C   C40       1.0  0.62830  0.29840  0.02790  1.0000 0.5195147009
C   C41       1.0  0.67060  0.26930  0.48520  1.0000 -0.0259850874
C   C42       1.0  0.32940  0.76930  0.01480  1.0000 -0.0259850874
C   C43       1.0  0.32940  0.73070  0.51480  1.0000 -0.0259850874
C   C44       1.0  0.67060  0.23070  0.98520  1.0000 -0.0259850874
C   C45       1.0  0.62820  0.30060  0.39810  1.0000 -0.0726031637
C   C46       1.0  0.37180  0.80060  0.10190  1.0000 -0.0726031637
C   C47       1.0  0.37180  0.69940  0.60190  1.0000 -0.0726031637
C   C48       1.0  0.62820  0.19940  0.89810  1.0000 -0.0726031637
C   C49       1.0  0.66120  0.36360  0.35820  1.0000 -0.0083439306
C   C50       1.0  0.33880  0.86360  0.14180  1.0000 -0.0083439306
C   C51       1.0  0.33880  0.63640  0.64180  1.0000 -0.0083439306
C   C52       1.0  0.66120  0.13640  0.85820  1.0000 -0.0083439306
C   C53       1.0  0.74030  0.40240  0.39360  1.0000 -0.0540331019
C   C54       1.0  0.25970  0.90240  0.10640  1.0000 -0.0553513816
C   C55       1.0  0.25970  0.59760  0.60640  1.0000 -0.0553513816
C   C56       1.0  0.74030  0.09760  0.89360  1.0000 -0.0540331019
C   C57       1.0  0.78590  0.37050  0.47780  1.0000 -0.0198147917
C   C58       1.0  0.21410  0.87050  0.02220  1.0000 -0.0198147917
C   C59       1.0  0.21410  0.62950  0.52220  1.0000 -0.0198147917
C   C60       1.0  0.78590  0.12950  0.97780  1.0000 -0.0198147917
C   C61       1.0  0.74630  0.30850  0.51560  1.0000 -0.0819192517
C   C62       1.0  0.25370  0.80850  0.98440  1.0000 -0.0819192517
C   C63       1.0  0.25370  0.69150  0.48440  1.0000 -0.0819192517
C   C64       1.0  0.74630  0.19150  0.01560  1.0000 -0.0819192517
C   C65       1.0  0.61940  0.39630  0.26890  1.0000 0.5311830999
C   C66       1.0  0.38060  0.89630  0.23110  1.0000 0.5311830999
C   C67       1.0  0.38060  0.60370  0.73110  1.0000 0.5311830999
C   C68       1.0  0.61940  0.10370  0.76890  1.0000 0.5311830999
C   C69       1.0  0.87160  0.40820  0.51330  1.0000 0.5559174777
C   C70       1.0  0.12840  0.90820  0.98670  1.0000 0.5559174777
C   C71       1.0  0.12840  0.59180  0.48670  1.0000 0.5559174777
C   C72       1.0  0.87160  0.09180  0.01330  1.0000 0.5559174777
O   O1        1.0  0.85284  0.96460  0.76271  1.0000 -0.477470973
O   O2        1.0  0.14716  0.46460  0.73729  1.0000 -0.477470973
O   O3        1.0  0.14716  0.03540  0.23729  1.0000 -0.4708732901
O   O4        1.0  0.85284  0.53540  0.26271  1.0000 -0.4708732901
O   O5        1.0  0.94627  0.85510  0.76408  1.0000 -0.4487346677
O   O6        1.0  0.05373  0.35510  0.73592  1.0000 -0.4487346677
O   O7        1.0  0.05373  0.14490  0.23592  1.0000 -0.4487346677
O   O8        1.0  0.94627  0.64490  0.26408  1.0000 -0.4487346677
O   O9        1.0  0.59588  0.96600  0.52708  1.0000 -0.5375480988
O   O10       1.0  0.40412  0.46600  0.97292  1.0000 -0.5375480988
O   O11       1.0  0.40412  0.03400  0.47292  1.0000 -0.5375480988
O   O12       1.0  0.59588  0.53400  0.02708  1.0000 -0.5341003476
O   O13       1.0  0.59436  0.87415  0.41654  1.0000 -0.4599529709
O   O14       1.0  0.40564  0.37415  0.08346  1.0000 -0.4599529709
O   O15       1.0  0.40564  0.12585  0.58346  1.0000 -0.4708732901
O   O16       1.0  0.59436  0.62585  0.91654  1.0000 -0.4599529709
O   O17       1.0  0.83270  0.67310  0.40146  1.0000 -0.4126529831
O   O18       1.0  0.16730  0.17310  0.09854  1.0000 -0.4126529831
O   O19       1.0  0.16730  0.32690  0.59854  1.0000 -0.4126529831
O   O20       1.0  0.83270  0.82690  0.90146  1.0000 -0.4126529831
O   O21       1.0  0.94637  0.67260  0.50344  1.0000 -0.477470973
O   O22       1.0  0.05363  0.17260  0.99656  1.0000 -0.4867567855
O   O23       1.0  0.05363  0.32740  0.49656  1.0000 -0.4867567855
O   O24       1.0  0.94637  0.82740  0.00344  1.0000 -0.4867567855
O   O25       1.0  0.55630  0.17230  0.49953  1.0000 -0.4599529709
O   O26       1.0  0.44370  0.67230  0.00047  1.0000 -0.4599529709
O   O27       1.0  0.44370  0.82770  0.50047  1.0000 -0.4599529709
O   O28       1.0  0.55630  0.32770  0.99953  1.0000 -0.4599529709
O   O29       1.0  0.66970  0.17260  0.59950  1.0000 -0.4487346677
O   O30       1.0  0.33030  0.67260  0.90050  1.0000 -0.4487346677
O   O31       1.0  0.33030  0.82740  0.40050  1.0000 -0.4599529709
O   O32       1.0  0.66970  0.32740  0.09950  1.0000 -0.4599529709
O   O33       1.0  0.55520  0.35070  0.23710  1.0000 -0.4487346677
O   O34       1.0  0.44480  0.85070  0.26290  1.0000 -0.4487346677
O   O35       1.0  0.44480  0.64930  0.76290  1.0000 -0.4487346677
O   O36       1.0  0.55520  0.14930  0.73710  1.0000 -0.4487346677
O   O37       1.0  0.64710  0.45950  0.23532  1.0000 -0.4192874966
O   O38       1.0  0.35290  0.95950  0.26468  1.0000 -0.4126529831
O   O39       1.0  0.35290  0.54050  0.76468  1.0000 -0.4126529831
O   O40       1.0  0.64710  0.04050  0.73532  1.0000 -0.4192874966
O   O41       1.0  0.90560  0.37650  0.58443  1.0000 -0.4408026425
O   O42       1.0  0.09440  0.87650  0.91557  1.0000 -0.4408026425
O   O43       1.0  0.09440  0.62350  0.41557  1.0000 -0.4408026425
O   O44       1.0  0.90560  0.12350  0.08443  1.0000 -0.4408026425
O   O45       1.0  0.90578  0.46280  0.47600  1.0000 -0.4708732901
O   O46       1.0  0.09422  0.96280  0.02400  1.0000 -0.4708732901
O   O47       1.0  0.09422  0.53720  0.52400  1.0000 -0.4708732901
O   O48       1.0  0.90578  0.03720  0.97600  1.0000 -0.477470973
