# DDEC6 charges by PACMAN v1.1 (https://github.com/mtap-research/PACMAN-charge/)
data_2008[Zn][lvt]3[ASR]1
_chemical_formula_sum              "Zn4 H36 C68 O16"
_cell_length_a       19.4305
_cell_length_b       19.4305
_cell_length_c       19.4305
_cell_angle_alpha    152.325
_cell_angle_beta     112.271
_cell_angle_gamma    74.6581

_symmetry_space_group_name_H-M    "P 1"
_symmetry_Int_Tables_number       1

loop_
  _symmetry_equiv_pos_as_xyz
  'x, y, z'

loop_
  _atom_site_type_symbol
  _atom_site_label
  _atom_site_symmetry_multiplicity
  _atom_site_fract_x
  _atom_site_fract_y
  _atom_site_fract_z
  _atom_site_occupancy
  _atom_site_charge
Zn  Zn1       1.0  0.48599  0.33322  0.84723  1.0000 0.9471973261
Zn  Zn2       1.0  0.01401  0.86124  0.84723  1.0000 0.9471973261
Zn  Zn3       1.0  0.98599  0.13876  0.15277  1.0000 0.9471973261
Zn  Zn4       1.0  0.51401  0.66678  0.15277  1.0000 0.9471973261
H   H1        1.0  0.44900  0.26950  0.55590  1.0000 0.1236524588
H   H2        1.0  0.05100  0.60690  0.82050  1.0000 0.1236524588
H   H3        1.0  0.21360  0.39310  0.44410  1.0000 0.1236524588
H   H4        1.0  0.28640  0.73050  0.17950  1.0000 0.1236524588
H   H5        1.0  0.55100  0.73050  0.44410  1.0000 0.1236524588
H   H6        1.0  0.94900  0.39310  0.17950  1.0000 0.1236524588
H   H7        1.0  0.78640  0.60690  0.55590  1.0000 0.1236524588
H   H8        1.0  0.71360  0.26950  0.82050  1.0000 0.1236524588
H   H9        1.0  0.45120  0.27010  0.43750  1.0000 0.1134959633
H   H10       1.0  0.04880  0.48630  0.81890  1.0000 0.1134959633
H   H11       1.0  0.33260  0.51370  0.56250  1.0000 0.1134959633
H   H12       1.0  0.16740  0.72990  0.18110  1.0000 0.1134959633
H   H13       1.0  0.54880  0.72990  0.56250  1.0000 0.1134959633
H   H14       1.0  0.95120  0.51370  0.18110  1.0000 0.1134959633
H   H15       1.0  0.66740  0.48630  0.43750  1.0000 0.1134959633
H   H16       1.0  0.83260  0.27010  0.81890  1.0000 0.1134959633
H   H17       1.0  0.51350  0.72420  0.86570  1.0000 0.1134959633
H   H18       1.0  0.98650  0.85220  0.21070  1.0000 0.1134959633
H   H19       1.0  0.35850  0.14780  0.13430  1.0000 0.1134959633
H   H20       1.0  0.14150  0.27580  0.78930  1.0000 0.1134959633
H   H21       1.0  0.48650  0.27580  0.13430  1.0000 0.1134959633
H   H22       1.0  0.01350  0.14780  0.78930  1.0000 0.1134959633
H   H23       1.0  0.64150  0.85220  0.86570  1.0000 0.1134959633
H   H24       1.0  0.85850  0.72420  0.21070  1.0000 0.1134959633
H   H25       1.0  0.50720  0.72070  0.97970  1.0000 0.1236524588
H   H26       1.0  0.99280  0.97250  0.21350  1.0000 0.1236524588
H   H27       1.0  0.24100  0.02750  0.02030  1.0000 0.1236524588
H   H28       1.0  0.25900  0.27930  0.78650  1.0000 0.1236524588
H   H29       1.0  0.49280  0.27930  0.02030  1.0000 0.1236524588
H   H30       1.0  0.00720  0.02750  0.78650  1.0000 0.1236524588
H   H31       1.0  0.75900  0.97250  0.97970  1.0000 0.1236524588
H   H32       1.0  0.74100  0.72070  0.21350  1.0000 0.1236524588
H   H33       1.0  0.59010  0.63490  0.72500  1.0000 0.1134959633
H   H34       1.0  0.90990  0.63490  0.04480  1.0000 0.1134959633
H   H35       1.0  0.40990  0.36510  0.27500  1.0000 0.1134959633
H   H36       1.0  0.09010  0.36510  0.95520  1.0000 0.1134959633
C   C1        1.0  0.47803  0.49133  0.85370  1.0000 0.5919443598
C   C2        1.0  0.02197  0.87567  0.01330  1.0000 0.5919443598
C   C3        1.0  0.13763  0.12433  0.14630  1.0000 0.5919443598
C   C4        1.0  0.36237  0.50867  0.98670  1.0000 0.5919443598
C   C5        1.0  0.52197  0.50867  0.14630  1.0000 0.5919443598
C   C6        1.0  0.97803  0.12433  0.98670  1.0000 0.5919443598
C   C7        1.0  0.86237  0.87567  0.85370  1.0000 0.5919443598
C   C8        1.0  0.63763  0.49133  0.01330  1.0000 0.5919443598
C   C9        1.0  0.47777  0.49577  0.78020  1.0000 -0.0364366952
C   C10       1.0  0.02223  0.80243  0.01800  1.0000 -0.0364366952
C   C11       1.0  0.21557  0.19757  0.21980  1.0000 -0.0364366952
C   C12       1.0  0.28443  0.50423  0.98200  1.0000 -0.0364366952
C   C13       1.0  0.52223  0.50423  0.21980  1.0000 -0.0364366952
C   C14       1.0  0.97777  0.19757  0.98200  1.0000 -0.0364366952
C   C15       1.0  0.78443  0.80243  0.78020  1.0000 -0.0364366952
C   C16       1.0  0.71557  0.49577  0.01800  1.0000 -0.0364366952
C   C17       1.0  0.46141  0.36194  0.61847  1.0000 -0.0877615226
C   C18       1.0  0.03859  0.65706  0.90053  1.0000 -0.0877615226
C   C19       1.0  0.24347  0.34294  0.38153  1.0000 -0.0877615226
C   C20       1.0  0.25653  0.63806  0.09947  1.0000 -0.0877615226
C   C21       1.0  0.53859  0.63806  0.38153  1.0000 -0.0877615226
C   C22       1.0  0.96141  0.34294  0.09947  1.0000 -0.0877615226
C   C23       1.0  0.75653  0.65706  0.61847  1.0000 -0.0877615226
C   C24       1.0  0.74347  0.36194  0.90053  1.0000 -0.0877615226
C   C25       1.0  0.46315  0.36175  0.54800  1.0000 -0.1606241682
C   C26       1.0  0.03685  0.58485  0.89860  1.0000 -0.1606241682
C   C27       1.0  0.31375  0.41515  0.45200  1.0000 -0.1606241682
C   C28       1.0  0.18625  0.63825  0.10140  1.0000 -0.1606241682
C   C29       1.0  0.53685  0.63825  0.45200  1.0000 -0.1606241682
C   C30       1.0  0.96315  0.41515  0.10140  1.0000 -0.1606241682
C   C31       1.0  0.68625  0.58485  0.54800  1.0000 -0.1606241682
C   C32       1.0  0.81375  0.36175  0.89860  1.0000 -0.1606241682
C   C33       1.0  0.48283  0.50063  0.64280  1.0000 0.0795094787
C   C34       1.0  0.01717  0.65997  0.01780  1.0000 0.0795094787
C   C35       1.0  0.35783  0.34003  0.35720  1.0000 0.0795094787
C   C36       1.0  0.14217  0.49937  0.98220  1.0000 0.0795094787
C   C37       1.0  0.51717  0.49937  0.35720  1.0000 0.0795094787
C   C38       1.0  0.98283  0.34003  0.98220  1.0000 0.0795094787
C   C39       1.0  0.64217  0.65997  0.64280  1.0000 0.0795094787
C   C40       1.0  0.85783  0.50063  0.01780  1.0000 0.0795094787
C   C41       1.0  0.49967  0.63147  0.80180  1.0000 -0.1606241682
C   C42       1.0  0.00033  0.80213  0.13180  1.0000 -0.1606241682
C   C43       1.0  0.32967  0.19787  0.19820  1.0000 -0.1606241682
C   C44       1.0  0.17033  0.36853  0.86820  1.0000 -0.1606241682
C   C45       1.0  0.50033  0.36853  0.19820  1.0000 -0.1606241682
C   C46       1.0  0.99967  0.19787  0.86820  1.0000 -0.1606241682
C   C47       1.0  0.67033  0.80213  0.80180  1.0000 -0.1606241682
C   C48       1.0  0.82967  0.63147  0.13180  1.0000 -0.1606241682
C   C49       1.0  0.49639  0.62899  0.86960  1.0000 -0.0877615226
C   C50       1.0  0.00361  0.87321  0.13260  1.0000 -0.0877615226
C   C51       1.0  0.25939  0.12679  0.13040  1.0000 -0.0877615226
C   C52       1.0  0.24061  0.37101  0.86740  1.0000 -0.0877615226
C   C53       1.0  0.50361  0.37101  0.13040  1.0000 -0.0877615226
C   C54       1.0  0.99639  0.12679  0.86740  1.0000 -0.0877615226
C   C55       1.0  0.74061  0.87321  0.86960  1.0000 -0.0877615226
C   C56       1.0  0.75939  0.62899  0.13260  1.0000 -0.0877615226
C   C57       1.0  0.48945  0.49945  0.56760  1.0000 0.0267032866
C   C58       1.0  0.01055  0.57815  0.01000  1.0000 0.0267032866
C   C59       1.0  0.43185  0.42185  0.43240  1.0000 0.0267032866
C   C60       1.0  0.06815  0.50055  0.99000  1.0000 0.0267032866
C   C61       1.0  0.51055  0.50055  0.43240  1.0000 0.0267032866
C   C62       1.0  0.98945  0.42185  0.99000  1.0000 0.0267032866
C   C63       1.0  0.56815  0.57815  0.56760  1.0000 0.0267032866
C   C64       1.0  0.93185  0.49945  0.01000  1.0000 0.0267032866
C   C65       1.0  0.55370  0.57780  0.63150  1.0000 -0.1925051839
C   C66       1.0  0.94630  0.57780  0.02410  1.0000 -0.1925051839
C   C67       1.0  0.44630  0.42220  0.36850  1.0000 -0.1925051839
C   C68       1.0  0.05370  0.42220  0.97590  1.0000 -0.1925051839
O   O1        1.0  0.46961  0.36587  0.76754  1.0000 -0.5268100643
O   O2        1.0  0.03039  0.79793  0.89626  1.0000 -0.5268100643
O   O3        1.0  0.09833  0.20207  0.23246  1.0000 -0.5268100643
O   O4        1.0  0.40167  0.63413  0.10374  1.0000 -0.5268100643
O   O5        1.0  0.53039  0.63413  0.23246  1.0000 -0.5268100643
O   O6        1.0  0.96961  0.20207  0.10374  1.0000 -0.5268100643
O   O7        1.0  0.90167  0.79793  0.76754  1.0000 -0.5268100643
O   O8        1.0  0.59833  0.36587  0.89626  1.0000 -0.5268100643
O   O9        1.0  0.48892  0.61689  0.99823  1.0000 -0.5465298811
O   O10       1.0  0.01108  0.00931  0.12797  1.0000 -0.5465298811
O   O11       1.0  0.11866  0.99069  0.00177  1.0000 -0.5465298811
O   O12       1.0  0.38134  0.38311  0.87203  1.0000 -0.5465298811
O   O13       1.0  0.51108  0.38311  0.00177  1.0000 -0.5465298811
O   O14       1.0  0.98892  0.99069  0.87203  1.0000 -0.5465298811
O   O15       1.0  0.88134  0.00931  0.99823  1.0000 -0.5465298811
O   O16       1.0  0.61866  0.61689  0.12797  1.0000 -0.5465298811
