# DDEC6 charges by PACMAN v1.1 (https://github.com/mtap-research/PACMAN-charge/)
data_2008[In][nan]3[ASR]1
_chemical_formula_sum              "In6 H30 C48 O30"
_cell_length_a       7.233
_cell_length_b       21.7582
_cell_length_c       21.7582
_cell_angle_alpha    60.0478
_cell_angle_beta     90
_cell_angle_gamma    90

_symmetry_space_group_name_H-M    "P 1"
_symmetry_Int_Tables_number       1

loop_
  _symmetry_equiv_pos_as_xyz
  'x, y, z'

loop_
  _atom_site_type_symbol
  _atom_site_label
  _atom_site_symmetry_multiplicity
  _atom_site_fract_x
  _atom_site_fract_y
  _atom_site_fract_z
  _atom_site_occupancy
  _atom_site_charge
In  In1       1.0  0.00000  0.00000  0.50000  1.0000 1.4899161808
In  In2       1.0  0.50000  0.00000  0.50000  1.0000 1.4899161808
In  In3       1.0  0.50000  0.50000  0.00000  1.0000 1.4899161808
In  In4       1.0  0.00000  0.50000  0.00000  1.0000 1.4899161808
In  In5       1.0  0.00000  0.00000  0.00000  1.0000 1.5063850037
In  In6       1.0  0.50000  0.00000  0.00000  1.0000 1.5063850037
H   H1        1.0  0.44921  0.79512  0.67950  1.0000 0.0903744327
H   H2        1.0  0.05024  0.96868  0.32256  1.0000 0.1008403645
H   H3        1.0  0.05082  0.96904  0.20798  1.0000 0.1008403645
H   H4        1.0  0.94921  0.20488  0.32050  1.0000 0.0903744327
H   H5        1.0  0.55024  0.03132  0.67744  1.0000 0.1008403645
H   H6        1.0  0.55082  0.03096  0.79202  1.0000 0.0903744327
H   H7        1.0  0.05079  0.67950  0.79512  1.0000 0.1008403645
H   H8        1.0  0.44976  0.32256  0.96868  1.0000 0.0903744327
H   H9        1.0  0.44918  0.20798  0.96904  1.0000 0.0903744327
H   H10       1.0  0.55079  0.32050  0.20488  1.0000 0.0903744327
H   H11       1.0  0.94976  0.67744  0.03132  1.0000 0.1008403645
H   H12       1.0  0.94918  0.79202  0.03096  1.0000 0.1008403645
H   H13       1.0  0.55079  0.20488  0.32050  1.0000 0.0903744327
H   H14       1.0  0.94976  0.03132  0.67744  1.0000 0.1008403645
H   H15       1.0  0.94918  0.03096  0.79202  1.0000 0.0903744327
H   H16       1.0  0.05079  0.79512  0.67950  1.0000 0.0903744327
H   H17       1.0  0.44976  0.96868  0.32256  1.0000 0.1008403645
H   H18       1.0  0.44918  0.96904  0.20798  1.0000 0.1008403645
H   H19       1.0  0.94921  0.32050  0.20488  1.0000 0.0903744327
H   H20       1.0  0.55024  0.67744  0.03132  1.0000 0.1008403645
H   H21       1.0  0.55082  0.79202  0.03096  1.0000 0.1008403645
H   H22       1.0  0.44921  0.67950  0.79512  1.0000 0.1008403645
H   H23       1.0  0.05024  0.32256  0.96868  1.0000 0.0903744327
H   H24       1.0  0.05082  0.20798  0.96904  1.0000 0.0903744327
H   H25       1.0  0.75017  0.45650  0.09481  1.0000 0.3782059676
H   H26       1.0  0.24997  0.90520  0.54350  1.0000 0.3782059676
H   H27       1.0  0.75003  0.09481  0.45651  1.0000 0.3782059676
H   H28       1.0  0.24999  0.45304  0.95201  1.0000 0.3782059676
H   H29       1.0  0.25000  0.07641  0.00248  1.0000 0.373660197
H   H30       1.0  0.74995  0.99789  0.92356  1.0000 0.373660197
C   C1        1.0  0.58560  0.76793  0.70467  1.0000 -0.0815721304
C   C2        1.0  0.91390  0.96959  0.29583  1.0000 -0.0815721304
C   C3        1.0  0.91420  0.96910  0.23408  1.0000 -0.0815721304
C   C4        1.0  0.08560  0.23207  0.29533  1.0000 -0.0815721304
C   C5        1.0  0.41390  0.03041  0.70417  1.0000 -0.0815721304
C   C6        1.0  0.41420  0.03090  0.76592  1.0000 -0.0815721304
C   C7        1.0  0.91440  0.70467  0.76793  1.0000 -0.0861351736
C   C8        1.0  0.58610  0.29583  0.96959  1.0000 -0.0815721304
C   C9        1.0  0.58580  0.23408  0.96910  1.0000 -0.0815721304
C   C10       1.0  0.41440  0.29533  0.23207  1.0000 -0.0815721304
C   C11       1.0  0.08610  0.70417  0.03041  1.0000 -0.0861351736
C   C12       1.0  0.08580  0.76592  0.03090  1.0000 -0.0815721304
C   C13       1.0  0.41440  0.23207  0.29533  1.0000 -0.0815721304
C   C14       1.0  0.08610  0.03041  0.70417  1.0000 -0.0815721304
C   C15       1.0  0.08580  0.03090  0.76592  1.0000 -0.0815721304
C   C16       1.0  0.91440  0.76793  0.70467  1.0000 -0.0815721304
C   C17       1.0  0.58610  0.96959  0.29583  1.0000 -0.0815721304
C   C18       1.0  0.58580  0.96910  0.23408  1.0000 -0.0815721304
C   C19       1.0  0.08560  0.29533  0.23207  1.0000 -0.0815721304
C   C20       1.0  0.41390  0.70417  0.03041  1.0000 -0.0861351736
C   C21       1.0  0.41420  0.76592  0.03090  1.0000 -0.0815721304
C   C22       1.0  0.58560  0.70467  0.76793  1.0000 -0.0861351736
C   C23       1.0  0.91390  0.29583  0.96959  1.0000 -0.0815721304
C   C24       1.0  0.91420  0.23408  0.96910  1.0000 -0.0815721304
C   C25       1.0  0.75000  0.87070  0.60596  1.0000 0.6170200101
C   C26       1.0  0.75000  0.79786  0.67230  1.0000 -0.0281156239
C   C27       1.0  0.75000  0.97748  0.39386  1.0000 0.6088979196
C   C28       1.0  0.75000  0.97119  0.32755  1.0000 -0.0281156239
C   C29       1.0  0.75000  0.96867  0.20249  1.0000 -0.0281156239
C   C30       1.0  0.75000  0.97075  0.13125  1.0000 0.6088979196
C   C31       1.0  0.25000  0.12930  0.39404  1.0000 0.6170200101
C   C32       1.0  0.25000  0.20214  0.32770  1.0000 -0.0230293428
C   C33       1.0  0.25000  0.02252  0.60614  1.0000 0.6039908878
C   C34       1.0  0.25000  0.02881  0.67245  1.0000 -0.0281156239
C   C35       1.0  0.25000  0.03133  0.79751  1.0000 -0.0281156239
C   C36       1.0  0.25000  0.02925  0.86875  1.0000 0.6170200101
C   C37       1.0  0.75000  0.60596  0.87070  1.0000 0.6088979196
C   C38       1.0  0.75000  0.67230  0.79786  1.0000 -0.0230293428
C   C39       1.0  0.75000  0.39386  0.97748  1.0000 0.6088979196
C   C40       1.0  0.75000  0.32755  0.97119  1.0000 -0.0281156239
C   C41       1.0  0.75000  0.20249  0.96867  1.0000 -0.0281156239
C   C42       1.0  0.75000  0.13125  0.97075  1.0000 0.6170200101
C   C43       1.0  0.25000  0.39404  0.12930  1.0000 0.6170200101
C   C44       1.0  0.25000  0.32770  0.20214  1.0000 -0.0281156239
C   C45       1.0  0.25000  0.60614  0.02252  1.0000 0.6088979196
C   C46       1.0  0.25000  0.67245  0.02881  1.0000 -0.0281156239
C   C47       1.0  0.25000  0.79751  0.03133  1.0000 -0.0281156239
C   C48       1.0  0.25000  0.86875  0.02925  1.0000 0.6088979196
O   O1        1.0  0.90435  0.89714  0.58072  1.0000 -0.5699635991
O   O2        1.0  0.90194  0.97733  0.42005  1.0000 -0.5489812144
O   O3        1.0  0.90353  0.97182  0.10416  1.0000 -0.5601279783
O   O4        1.0  0.40435  0.10286  0.41928  1.0000 -0.5699635991
O   O5        1.0  0.40194  0.02267  0.57995  1.0000 -0.5489812144
O   O6        1.0  0.40353  0.02818  0.89584  1.0000 -0.5794288564
O   O7        1.0  0.59565  0.58072  0.89714  1.0000 -0.5489812144
O   O8        1.0  0.59806  0.42005  0.97733  1.0000 -0.5601279783
O   O9        1.0  0.59647  0.10416  0.97182  1.0000 -0.5794288564
O   O10       1.0  0.09565  0.41928  0.10286  1.0000 -0.5794288564
O   O11       1.0  0.09806  0.57995  0.02267  1.0000 -0.5427472242
O   O12       1.0  0.09647  0.89584  0.02818  1.0000 -0.5601279783
O   O13       1.0  0.09565  0.10286  0.41928  1.0000 -0.5699635991
O   O14       1.0  0.09806  0.02267  0.57995  1.0000 -0.5489812144
O   O15       1.0  0.09647  0.02818  0.89584  1.0000 -0.5794288564
O   O16       1.0  0.59565  0.89714  0.58072  1.0000 -0.5699635991
O   O17       1.0  0.59806  0.97733  0.42005  1.0000 -0.5489812144
O   O18       1.0  0.59647  0.97182  0.10416  1.0000 -0.5601279783
O   O19       1.0  0.40435  0.41928  0.10286  1.0000 -0.5794288564
O   O20       1.0  0.40194  0.57995  0.02267  1.0000 -0.5427472242
O   O21       1.0  0.40353  0.89584  0.02818  1.0000 -0.5601279783
O   O22       1.0  0.90435  0.58072  0.89714  1.0000 -0.5489812144
O   O23       1.0  0.90194  0.42005  0.97733  1.0000 -0.5601279783
O   O24       1.0  0.90353  0.10416  0.97182  1.0000 -0.5794288564
O   O25       1.0  0.75000  0.04861  0.50117  1.0000 -0.8470307239
O   O26       1.0  0.25000  0.95139  0.49883  1.0000 -0.8470307239
O   O27       1.0  0.75000  0.50117  0.04861  1.0000 -0.8470307239
O   O28       1.0  0.25000  0.49883  0.95139  1.0000 -0.8470307239
O   O29       1.0  0.75000  0.97584  0.97584  1.0000 -0.8408683785
O   O30       1.0  0.25000  0.02416  0.02416  1.0000 -0.8408683785
