# DDEC6 charges by PACMAN v1.1 (https://github.com/mtap-research/PACMAN-charge/)
data_2008[Zn][pcu]3[ASR]9
_chemical_formula_sum              "Zn8 H48 C102 O28 F36"
_cell_length_a       17.853
_cell_length_b       7.528
_cell_length_c       29.0796
_cell_angle_alpha    90
_cell_angle_beta     125.297
_cell_angle_gamma    90

_symmetry_space_group_name_H-M    "P 1"
_symmetry_Int_Tables_number       1

loop_
  _symmetry_equiv_pos_as_xyz
  'x, y, z'

loop_
  _atom_site_type_symbol
  _atom_site_label
  _atom_site_symmetry_multiplicity
  _atom_site_fract_x
  _atom_site_fract_y
  _atom_site_fract_z
  _atom_site_occupancy
  _atom_site_charge
Zn  Zn1       1.0  0.54674  0.02626  0.96843  1.0000 1.0025553247
Zn  Zn2       1.0  0.45326  0.02626  0.53157  1.0000 1.0025553247
Zn  Zn3       1.0  0.45326  0.97374  0.03157  1.0000 1.0025553247
Zn  Zn4       1.0  0.54674  0.97374  0.46843  1.0000 1.0025553247
Zn  Zn5       1.0  0.42211  0.70501  0.91270  1.0000 1.0025553247
Zn  Zn6       1.0  0.57789  0.70501  0.58730  1.0000 1.0025553247
Zn  Zn7       1.0  0.57789  0.29499  0.08730  1.0000 1.0025553247
Zn  Zn8       1.0  0.42211  0.29499  0.41270  1.0000 1.0025553247
H   H1        1.0  0.25340  0.93320  0.75810  1.0000 0.1283427259
H   H2        1.0  0.74660  0.93320  0.74190  1.0000 0.1283427259
H   H3        1.0  0.74660  0.06680  0.24190  1.0000 0.1283427259
H   H4        1.0  0.25340  0.06680  0.25810  1.0000 0.1283427259
H   H5        1.0  0.16030  0.06540  0.66970  1.0000 0.1202679778
H   H6        1.0  0.83970  0.06540  0.83030  1.0000 0.1202679778
H   H7        1.0  0.83970  0.93460  0.33030  1.0000 0.1202679778
H   H8        1.0  0.16030  0.93460  0.16970  1.0000 0.1202679778
H   H9        1.0  0.32000  0.50520  0.73080  1.0000 0.1283427259
H   H10       1.0  0.68000  0.50520  0.76920  1.0000 0.1283427259
H   H11       1.0  0.68000  0.49480  0.26920  1.0000 0.1283427259
H   H12       1.0  0.32000  0.49480  0.23080  1.0000 0.1283427259
H   H13       1.0  0.40950  0.37570  0.81950  1.0000 0.1283427259
H   H14       1.0  0.59050  0.37570  0.68050  1.0000 0.1283427259
H   H15       1.0  0.59050  0.62430  0.18050  1.0000 0.1283427259
H   H16       1.0  0.40950  0.62430  0.31950  1.0000 0.1283427259
H   H17       1.0  0.27250  0.83520  0.57090  1.0000 0.1283427259
H   H18       1.0  0.72750  0.83520  0.92910  1.0000 0.1283427259
H   H19       1.0  0.72750  0.16480  0.42910  1.0000 0.1283427259
H   H20       1.0  0.27250  0.16480  0.07090  1.0000 0.1283427259
H   H21       1.0  0.17380  0.72420  0.59200  1.0000 0.1202679778
H   H22       1.0  0.82620  0.72420  0.90800  1.0000 0.1202679778
H   H23       1.0  0.82620  0.27580  0.40800  1.0000 0.1202679778
H   H24       1.0  0.17380  0.27580  0.09200  1.0000 0.1202679778
H   H25       1.0  0.31390  0.25910  0.64050  1.0000 0.1202679778
H   H26       1.0  0.68610  0.25910  0.85950  1.0000 0.1202679778
H   H27       1.0  0.68610  0.74090  0.35950  1.0000 0.1202679778
H   H28       1.0  0.31390  0.74090  0.14050  1.0000 0.1202679778
H   H29       1.0  0.41030  0.36960  0.61770  1.0000 0.1283427259
H   H30       1.0  0.58970  0.36960  0.88230  1.0000 0.1283427259
H   H31       1.0  0.58970  0.63040  0.38230  1.0000 0.1283427259
H   H32       1.0  0.41030  0.63040  0.11770  1.0000 0.1283427259
H   H33       1.0  0.17650  0.44400  0.78570  1.0000 0.1202679778
H   H34       1.0  0.82350  0.44400  0.71430  1.0000 0.1202679778
H   H35       1.0  0.82350  0.55600  0.21430  1.0000 0.1202679778
H   H36       1.0  0.17650  0.55600  0.28570  1.0000 0.1202679778
H   H37       1.0  0.05310  0.25440  0.72890  1.0000 0.1202679778
H   H38       1.0  0.94690  0.25440  0.77110  1.0000 0.1202679778
H   H39       1.0  0.94690  0.74560  0.27110  1.0000 0.1202679778
H   H40       1.0  0.05310  0.74560  0.22890  1.0000 0.1202679778
H   H41       1.0  0.14730  0.92170  0.86070  1.0000 0.1202679778
H   H42       1.0  0.85270  0.92170  0.63930  1.0000 0.1202679778
H   H43       1.0  0.85270  0.07830  0.13930  1.0000 0.1202679778
H   H44       1.0  0.14730  0.07830  0.36070  1.0000 0.1202679778
H   H45       1.0  0.26980  0.11140  0.91740  1.0000 0.1202679778
H   H46       1.0  0.73020  0.11140  0.58260  1.0000 0.1202679778
H   H47       1.0  0.73020  0.88860  0.08260  1.0000 0.1202679778
H   H48       1.0  0.26980  0.88860  0.41740  1.0000 0.1202679778
C   C1        1.0  0.39700  0.05410  0.85415  1.0000 0.5932079246
C   C2        1.0  0.60300  0.05410  0.64585  1.0000 0.5932079246
C   C3        1.0  0.60300  0.94590  0.14585  1.0000 0.5932079246
C   C4        1.0  0.39700  0.94590  0.35415  1.0000 0.5932079246
C   C5        1.0  0.34003  0.14130  0.79725  1.0000 -0.0194913605
C   C6        1.0  0.65997  0.14130  0.70275  1.0000 -0.0194913605
C   C7        1.0  0.65997  0.85870  0.20275  1.0000 -0.0194913605
C   C8        1.0  0.34003  0.85870  0.29725  1.0000 -0.0194913605
C   C9        1.0  0.26648  0.05050  0.75258  1.0000 -0.078658953
C   C10       1.0  0.73352  0.05050  0.74742  1.0000 -0.078658953
C   C11       1.0  0.73352  0.94950  0.24742  1.0000 -0.078658953
C   C12       1.0  0.26648  0.94950  0.25258  1.0000 -0.078658953
C   C13       1.0  0.21148  0.12820  0.69984  1.0000 -0.1636197427
C   C14       1.0  0.78852  0.12820  0.80016  1.0000 -0.1636197427
C   C15       1.0  0.78852  0.87180  0.30016  1.0000 -0.1636197427
C   C16       1.0  0.21148  0.87180  0.19984  1.0000 -0.1636197427
C   C17       1.0  0.23138  0.29860  0.69114  1.0000 0.0856472729
C   C18       1.0  0.76862  0.29860  0.80886  1.0000 0.0856472729
C   C19       1.0  0.76862  0.70140  0.30886  1.0000 0.0856472729
C   C20       1.0  0.23138  0.70140  0.19114  1.0000 0.0856472729
C   C21       1.0  0.30588  0.38890  0.73631  1.0000 -0.1406956511
C   C22       1.0  0.69412  0.38890  0.76369  1.0000 -0.1406956511
C   C23       1.0  0.69412  0.61110  0.26369  1.0000 -0.1406956511
C   C24       1.0  0.30588  0.61110  0.23631  1.0000 -0.1406956511
C   C25       1.0  0.35935  0.31190  0.78890  1.0000 -0.078658953
C   C26       1.0  0.64065  0.31190  0.71110  1.0000 -0.078658953
C   C27       1.0  0.64065  0.68810  0.21110  1.0000 -0.078658953
C   C28       1.0  0.35935  0.68810  0.28890  1.0000 -0.078658953
C   C29       1.0  0.17231  0.39680  0.63394  1.0000 -0.2772630761
C   C30       1.0  0.82769  0.39680  0.86606  1.0000 -0.2772630761
C   C31       1.0  0.82769  0.60320  0.36606  1.0000 -0.2772630761
C   C32       1.0  0.17231  0.60320  0.13394  1.0000 -0.2772630761
C   C33       1.0  0.10487  0.27150  0.58484  1.0000 0.6646183422
C   C34       1.0  0.89513  0.27150  0.91516  1.0000 0.6646183422
C   C35       1.0  0.89513  0.72850  0.41516  1.0000 0.6646183422
C   C36       1.0  0.10487  0.72850  0.08484  1.0000 0.6646183422
C   C37       1.0  0.11518  0.53560  0.64025  1.0000 0.6682542553
C   C38       1.0  0.88482  0.53560  0.85975  1.0000 0.6682542553
C   C39       1.0  0.88482  0.46440  0.35975  1.0000 0.6682542553
C   C40       1.0  0.11518  0.46440  0.14025  1.0000 0.6682542553
C   C41       1.0  0.41649  0.69110  0.58039  1.0000 0.5951057365
C   C42       1.0  0.58351  0.69110  0.91961  1.0000 0.5951057365
C   C43       1.0  0.58351  0.30890  0.41961  1.0000 0.5932079246
C   C44       1.0  0.41649  0.30890  0.08039  1.0000 0.5932079246
C   C45       1.0  0.35213  0.61530  0.59326  1.0000 0.0027166051
C   C46       1.0  0.64787  0.61530  0.90674  1.0000 0.0027166051
C   C47       1.0  0.64787  0.38470  0.40674  1.0000 0.0027166051
C   C48       1.0  0.35213  0.38470  0.09326  1.0000 0.0027166051
C   C49       1.0  0.28106  0.71800  0.58520  1.0000 -0.088582133
C   C50       1.0  0.71894  0.71800  0.91480  1.0000 -0.088582133
C   C51       1.0  0.71894  0.28200  0.41480  1.0000 -0.088582133
C   C52       1.0  0.28106  0.28200  0.08520  1.0000 -0.088582133
C   C53       1.0  0.22226  0.65230  0.59777  1.0000 -0.1543952832
C   C54       1.0  0.77774  0.65230  0.90223  1.0000 -0.1543952832
C   C55       1.0  0.77774  0.34770  0.40223  1.0000 -0.1543952832
C   C56       1.0  0.22226  0.34770  0.09777  1.0000 -0.1543952832
C   C57       1.0  0.23448  0.48020  0.61884  1.0000 0.0798533642
C   C58       1.0  0.76552  0.48020  0.88116  1.0000 0.0798533642
C   C59       1.0  0.76552  0.51980  0.38116  1.0000 0.0798533642
C   C60       1.0  0.23448  0.51980  0.11884  1.0000 0.0798533642
C   C61       1.0  0.30523  0.37650  0.62628  1.0000 -0.1406956511
C   C62       1.0  0.69477  0.37650  0.87372  1.0000 -0.1406956511
C   C63       1.0  0.69477  0.62350  0.37372  1.0000 -0.1406956511
C   C64       1.0  0.30523  0.62350  0.12628  1.0000 -0.1406956511
C   C65       1.0  0.36304  0.44250  0.61314  1.0000 -0.088582133
C   C66       1.0  0.63696  0.44250  0.88686  1.0000 -0.088582133
C   C67       1.0  0.63696  0.55750  0.38686  1.0000 -0.088582133
C   C68       1.0  0.36304  0.55750  0.11314  1.0000 -0.088582133
C   C69       1.0  0.31177  0.42480  0.89498  1.0000 0.5496236971
C   C70       1.0  0.68823  0.42480  0.60502  1.0000 0.5496236971
C   C71       1.0  0.68823  0.57520  0.10502  1.0000 0.5496236971
C   C72       1.0  0.31177  0.57520  0.39498  1.0000 0.5496236971
C   C73       1.0  0.23407  0.29950  0.85777  1.0000 -0.0072565212
C   C74       1.0  0.76593  0.29950  0.64223  1.0000 -0.0072565212
C   C75       1.0  0.76593  0.70050  0.14223  1.0000 -0.0072565212
C   C76       1.0  0.23407  0.70050  0.35777  1.0000 -0.0072565212
C   C77       1.0  0.16994  0.33910  0.80126  1.0000 -0.088582133
C   C78       1.0  0.83006  0.33910  0.69874  1.0000 -0.088582133
C   C79       1.0  0.83006  0.66090  0.19874  1.0000 -0.088582133
C   C80       1.0  0.16994  0.66090  0.30126  1.0000 -0.088582133
C   C81       1.0  0.09652  0.22630  0.76755  1.0000 -0.1406956511
C   C82       1.0  0.90348  0.22630  0.73245  1.0000 -0.1406956511
C   C83       1.0  0.90348  0.77370  0.23245  1.0000 -0.1406956511
C   C84       1.0  0.09652  0.77370  0.26755  1.0000 -0.1406956511
C   C85       1.0  0.08540  0.07230  0.78951  1.0000 0.0798533642
C   C86       1.0  0.91460  0.07230  0.71049  1.0000 0.0798533642
C   C87       1.0  0.91460  0.92770  0.21049  1.0000 0.0798533642
C   C88       1.0  0.08540  0.92770  0.28951  1.0000 0.0798533642
C   C89       1.0  0.15211  0.02930  0.84554  1.0000 -0.1406956511
C   C90       1.0  0.84789  0.02930  0.65446  1.0000 -0.1406956511
C   C91       1.0  0.84789  0.97070  0.15446  1.0000 -0.1406956511
C   C92       1.0  0.15211  0.97070  0.34554  1.0000 -0.1406956511
C   C93       1.0  0.22502  0.14190  0.87912  1.0000 -0.078658953
C   C94       1.0  0.77498  0.14190  0.62088  1.0000 -0.078658953
C   C95       1.0  0.77498  0.85810  0.12088  1.0000 -0.078658953
C   C96       1.0  0.22502  0.85810  0.37912  1.0000 -0.078658953
C   C97       1.0  0.00000  0.95550  0.75000  1.0000 -0.2772630761
C   C98       1.0  0.00000  0.04450  0.25000  1.0000 -0.2772630761
C   C99       1.0  0.97517  0.83520  0.78234  1.0000 0.6682542553
C   C100      1.0  0.02483  0.83520  0.71766  1.0000 0.6682542553
C   C101      1.0  0.02483  0.16480  0.21766  1.0000 0.6682542553
C   C102      1.0  0.97517  0.16480  0.28234  1.0000 0.6682542553
O   O1        1.0  0.37484  0.89850  0.85704  1.0000 -0.5403054068
O   O2        1.0  0.62516  0.89850  0.64296  1.0000 -0.5403054068
O   O3        1.0  0.62516  0.10150  0.14296  1.0000 -0.5403054068
O   O4        1.0  0.37484  0.10150  0.35704  1.0000 -0.5403054068
O   O5        1.0  0.46200  0.14080  0.89474  1.0000 -0.507384629
O   O6        1.0  0.53800  0.14080  0.60526  1.0000 -0.507384629
O   O7        1.0  0.53800  0.85920  0.10526  1.0000 -0.507384629
O   O8        1.0  0.46200  0.85920  0.39474  1.0000 -0.507384629
O   O9        1.0  0.48144  0.59250  0.59030  1.0000 -0.507384629
O   O10       1.0  0.51856  0.59250  0.90970  1.0000 -0.507384629
O   O11       1.0  0.51856  0.40750  0.40970  1.0000 -0.507384629
O   O12       1.0  0.48144  0.40750  0.09030  1.0000 -0.507384629
O   O13       1.0  0.40176  0.84610  0.56192  1.0000 -0.549898834
O   O14       1.0  0.59824  0.84610  0.93808  1.0000 -0.549898834
O   O15       1.0  0.59824  0.15390  0.43808  1.0000 -0.549898834
O   O16       1.0  0.40176  0.15390  0.06192  1.0000 -0.549898834
O   O17       1.0  0.31128  0.56860  0.87173  1.0000 -0.549898834
O   O18       1.0  0.68872  0.56860  0.62827  1.0000 -0.549898834
O   O19       1.0  0.68872  0.43140  0.12827  1.0000 -0.549898834
O   O20       1.0  0.31128  0.43140  0.37173  1.0000 -0.549898834
O   O21       1.0  0.36993  0.38900  0.94525  1.0000 -0.4424886713
O   O22       1.0  0.63007  0.38900  0.55475  1.0000 -0.4424886713
O   O23       1.0  0.63007  0.61100  0.05475  1.0000 -0.4424886713
O   O24       1.0  0.36993  0.61100  0.44525  1.0000 -0.4424886713
O   O25       1.0  0.48909  0.82530  0.98621  1.0000 -0.8347789357
O   O26       1.0  0.51091  0.82530  0.51379  1.0000 -0.8358813236
O   O27       1.0  0.51091  0.17470  0.01379  1.0000 -0.8358813236
O   O28       1.0  0.48909  0.17470  0.48621  1.0000 -0.8347789357
F   F1        1.0  0.14718  0.12980  0.58247  1.0000 -0.1890229652
F   F2        1.0  0.85282  0.12980  0.91753  1.0000 -0.1890229652
F   F3        1.0  0.85282  0.87020  0.41753  1.0000 -0.1890229652
F   F4        1.0  0.14718  0.87020  0.08247  1.0000 -0.1890229652
F   F5        1.0  0.03682  0.21160  0.58780  1.0000 -0.1965155313
F   F6        1.0  0.96318  0.21160  0.91220  1.0000 -0.1965155313
F   F7        1.0  0.96318  0.78840  0.41220  1.0000 -0.1965155313
F   F8        1.0  0.03682  0.78840  0.08780  1.0000 -0.1965155313
F   F9        1.0  0.06417  0.35380  0.53501  1.0000 -0.1890229652
F   F10       1.0  0.93583  0.35380  0.96499  1.0000 -0.1890229652
F   F11       1.0  0.93583  0.64620  0.46499  1.0000 -0.1890229652
F   F12       1.0  0.06417  0.64620  0.03501  1.0000 -0.1890229652
F   F13       1.0  0.04895  0.61150  0.59090  1.0000 -0.1965155313
F   F14       1.0  0.95105  0.61150  0.90910  1.0000 -0.1965155313
F   F15       1.0  0.95105  0.38850  0.40910  1.0000 -0.1965155313
F   F16       1.0  0.04895  0.38850  0.09090  1.0000 -0.1965155313
F   F17       1.0  0.07277  0.46430  0.66133  1.0000 -0.1890229652
F   F18       1.0  0.92723  0.46430  0.83867  1.0000 -0.1890229652
F   F19       1.0  0.92723  0.53570  0.33867  1.0000 -0.1890229652
F   F20       1.0  0.07277  0.53570  0.16133  1.0000 -0.1890229652
F   F21       1.0  0.16726  0.66840  0.67451  1.0000 -0.1890229652
F   F22       1.0  0.83274  0.66840  0.82549  1.0000 -0.1890229652
F   F23       1.0  0.83274  0.33160  0.32549  1.0000 -0.1890229652
F   F24       1.0  0.16726  0.33160  0.17451  1.0000 -0.1890229652
F   F25       1.0  0.89346  0.76080  0.74836  1.0000 -0.1823700974
F   F26       1.0  0.10654  0.76080  0.75164  1.0000 -0.1823700974
F   F27       1.0  0.10654  0.23920  0.25164  1.0000 -0.1823700974
F   F28       1.0  0.89346  0.23920  0.24836  1.0000 -0.1823700974
F   F29       1.0  0.03563  0.70240  0.81043  1.0000 -0.1965155313
F   F30       1.0  0.96437  0.70240  0.68957  1.0000 -0.1965155313
F   F31       1.0  0.96437  0.29760  0.18957  1.0000 -0.1965155313
F   F32       1.0  0.03563  0.29760  0.31043  1.0000 -0.1965155313
F   F33       1.0  0.97278  0.92920  0.82081  1.0000 -0.1890229652
F   F34       1.0  0.02722  0.92920  0.67919  1.0000 -0.1890229652
F   F35       1.0  0.02722  0.07080  0.17919  1.0000 -0.1890229652
F   F36       1.0  0.97278  0.07080  0.32081  1.0000 -0.1890229652
