# DDEC6 charges by PACMAN v1.1 (https://github.com/mtap-research/PACMAN-charge/)
data_2008[Ag][nan]3[ASR]1
_chemical_formula_sum              "Ag240 H1440 C1200 N480"
_cell_length_a       45.6736
_cell_length_b       45.6736
_cell_length_c       45.6736
_cell_angle_alpha    94.9819
_cell_angle_beta     94.9819
_cell_angle_gamma    145.722

_symmetry_space_group_name_H-M    "P 1"
_symmetry_Int_Tables_number       1

loop_
  _symmetry_equiv_pos_as_xyz
  'x, y, z'

loop_
  _atom_site_type_symbol
  _atom_site_label
  _atom_site_symmetry_multiplicity
  _atom_site_fract_x
  _atom_site_fract_y
  _atom_site_fract_z
  _atom_site_occupancy
  _atom_site_charge
Ag  Ag1       1.0  0.04266  0.47638  0.98158  1.0000 0.2606572205
Ag  Ag2       1.0  0.92681  0.41047  0.98864  1.0000 0.2300501664
Ag  Ag3       1.0  0.02023  0.47337  0.47714  1.0000 0.2300501664
Ag  Ag4       1.0  0.60793  0.81345  0.43466  1.0000 0.2187910029
Ag  Ag5       1.0  0.60028  0.76799  0.36791  1.0000 0.2300501664
Ag  Ag6       1.0  0.38956  0.50564  0.22342  1.0000 0.2606572205
Ag  Ag7       1.0  0.43947  0.03328  0.71273  1.0000 0.2606572205
Ag  Ag8       1.0  0.33775  0.98718  0.72753  1.0000 0.2187910029
Ag  Ag9       1.0  0.39140  0.97358  0.77028  1.0000 0.2429795677
Ag  Ag10      1.0  0.79962  0.63047  0.61043  1.0000 0.2187910029
Ag  Ag11      1.0  0.91434  0.72037  0.66373  1.0000 0.2300501664
Ag  Ag12      1.0  0.87995  0.76024  0.63605  1.0000 0.2606572205
Ag  Ag13      1.0  0.38867  0.70781  0.06262  1.0000 0.2300501664
Ag  Ag14      1.0  0.34053  0.64253  0.11454  1.0000 0.2300501664
Ag  Ag15      1.0  0.43810  0.68374  0.08712  1.0000 0.2606572205
Ag  Ag16      1.0  0.87339  0.14969  0.57202  1.0000 0.2300501664
Ag  Ag17      1.0  0.94492  0.27190  0.59224  1.0000 0.2073849098
Ag  Ag18      1.0  0.81817  0.16523  0.53984  1.0000 0.2606572205
Ag  Ag19      1.0  0.22418  0.35951  0.62329  1.0000 0.2429795677
Ag  Ag20      1.0  0.23908  0.40509  0.69405  1.0000 0.2606572205
Ag  Ag21      1.0  0.35019  0.46935  0.67894  1.0000 0.1989325671
Ag  Ag22      1.0  0.53264  0.80016  0.89898  1.0000 0.24858218
Ag  Ag23      1.0  0.51395  0.74764  0.83151  1.0000 0.2429795677
Ag  Ag24      1.0  0.44926  0.66803  0.88087  1.0000 0.24858218
Ag  Ag25      1.0  0.64425  0.03135  0.78836  1.0000 0.2429795677
Ag  Ag26      1.0  0.73377  0.15929  0.80862  1.0000 0.2429795677
Ag  Ag27      1.0  0.76745  0.12169  0.84106  1.0000 0.24858218
Ag  Ag28      1.0  0.46239  0.52996  0.49749  1.0000 0.2606572205
Ag  Ag29      1.0  0.51733  0.52219  0.54142  1.0000 0.1989325671
Ag  Ag30      1.0  0.58306  0.60032  0.49224  1.0000 0.24858218
Ag  Ag31      1.0  0.99480  0.06108  0.51842  1.0000 0.2606572205
Ag  Ag32      1.0  0.92183  0.93817  0.51136  1.0000 0.2300501664
Ag  Ag33      1.0  0.49623  0.54309  0.02286  1.0000 0.2300501664
Ag  Ag34      1.0  0.87879  0.17327  0.06534  1.0000 0.2187910029
Ag  Ag35      1.0  0.90008  0.23237  0.13209  1.0000 0.2300501664
Ag  Ag36      1.0  0.78222  0.16614  0.27658  1.0000 0.2606572205
Ag  Ag37      1.0  0.82055  0.72674  0.78727  1.0000 0.2606572205
Ag  Ag38      1.0  0.75965  0.61022  0.77247  1.0000 0.2187910029
Ag  Ag39      1.0  0.70330  0.62112  0.72972  1.0000 0.2429795677
Ag  Ag40      1.0  0.52004  0.18919  0.88957  1.0000 0.2187910029
Ag  Ag41      1.0  0.55664  0.25061  0.83627  1.0000 0.2300501664
Ag  Ag42      1.0  0.62419  0.24390  0.86395  1.0000 0.2606572205
Ag  Ag43      1.0  0.14519  0.32605  0.43738  1.0000 0.2300501664
Ag  Ag44      1.0  0.02799  0.22599  0.38546  1.0000 0.2300501664
Ag  Ag45      1.0  0.09662  0.35098  0.41288  1.0000 0.2606572205
Ag  Ag46      1.0  0.07767  0.30137  0.92798  1.0000 0.2300501664
Ag  Ag47      1.0  0.17966  0.35268  0.90776  1.0000 0.2073849098
Ag  Ag48      1.0  0.12539  0.27833  0.96016  1.0000 0.2606572205
Ag  Ag49      1.0  0.23622  0.60089  0.87671  1.0000 0.2429795677
Ag  Ag50      1.0  0.21104  0.54503  0.80595  1.0000 0.2606572205
Ag  Ag51      1.0  0.29041  0.67125  0.82106  1.0000 0.1989325671
Ag  Ag52      1.0  0.40118  0.63366  0.60102  1.0000 0.24858218
Ag  Ag53      1.0  0.41613  0.68244  0.66849  1.0000 0.2429795677
Ag  Ag54      1.0  0.28716  0.56839  0.61913  1.0000 0.24858218
Ag  Ag55      1.0  0.74299  0.85589  0.71164  1.0000 0.24858218
Ag  Ag56      1.0  0.85067  0.92515  0.69138  1.0000 0.2429795677
Ag  Ag57      1.0  0.78063  0.92639  0.65894  1.0000 0.2606572205
Ag  Ag58      1.0  0.53247  0.96490  0.00251  1.0000 0.2606572205
Ag  Ag59      1.0  0.48077  0.97591  0.95858  1.0000 0.1989325671
Ag  Ag60      1.0  0.60808  0.09082  0.00776  1.0000 0.24858218
Ag  Ag61      1.0  0.97638  0.49480  0.43372  1.0000 0.2651575802
Ag  Ag62      1.0  0.91047  0.42183  0.48366  1.0000 0.2300501664
Ag  Ag63      1.0  0.97337  0.99623  0.45314  1.0000 0.2300501664
Ag  Ag64      1.0  0.31345  0.37879  0.20552  1.0000 0.2187910029
Ag  Ag65      1.0  0.26799  0.40008  0.16771  1.0000 0.2300501664
Ag  Ag66      1.0  0.00564  0.28222  0.11608  1.0000 0.2606572205
Ag  Ag67      1.0  0.53328  0.32055  0.59381  1.0000 0.2606572205
Ag  Ag68      1.0  0.48718  0.25965  0.64943  1.0000 0.2187910029
Ag  Ag69      1.0  0.47358  0.20330  0.58218  1.0000 0.2429795677
Ag  Ag70      1.0  0.13047  0.02004  0.83085  1.0000 0.2187910029
Ag  Ag71      1.0  0.22037  0.05664  0.80603  1.0000 0.2300501664
Ag  Ag72      1.0  0.26024  0.12419  0.88029  1.0000 0.2606572205
Ag  Ag73      1.0  0.20781  0.64519  0.31914  1.0000 0.2300501664
Ag  Ag74      1.0  0.14253  0.52799  0.30200  1.0000 0.2300501664
Ag  Ag75      1.0  0.18374  0.59662  0.24564  1.0000 0.2606572205
Ag  Ag76      1.0  0.64969  0.57767  0.27630  1.0000 0.2300501664
Ag  Ag77      1.0  0.77190  0.67966  0.32698  1.0000 0.2073849098
Ag  Ag78      1.0  0.66523  0.62539  0.34706  1.0000 0.2606572205
Ag  Ag79      1.0  0.85951  0.73622  0.13533  1.0000 0.24858218
Ag  Ag80      1.0  0.90509  0.71104  0.16601  1.0000 0.2606572205
Ag  Ag81      1.0  0.96935  0.79041  0.11916  1.0000 0.1989325671
Ag  Ag82      1.0  0.30016  0.90118  0.26752  1.0000 0.24858218
Ag  Ag83      1.0  0.24764  0.91613  0.23369  1.0000 0.2429795677
Ag  Ag84      1.0  0.16803  0.78716  0.21877  1.0000 0.24858218
Ag  Ag85      1.0  0.53135  0.24299  0.38710  1.0000 0.24858218
Ag  Ag86      1.0  0.65929  0.35067  0.42552  1.0000 0.2429795677
Ag  Ag87      1.0  0.62169  0.28063  0.35424  1.0000 0.24858218
Ag  Ag88      1.0  0.02996  0.03247  0.06757  1.0000 0.2606572205
Ag  Ag89      1.0  0.02219  0.98077  0.00486  1.0000 0.1989325671
Ag  Ag90      1.0  0.10032  0.10808  0.01726  1.0000 0.24858218
Ag  Ag91      1.0  0.56108  0.54266  0.06628  1.0000 0.2606572205
Ag  Ag92      1.0  0.43817  0.42681  0.01634  1.0000 0.2300501664
Ag  Ag93      1.0  0.04309  0.52023  0.04686  1.0000 0.2300501664
Ag  Ag94      1.0  0.67327  0.10793  0.29448  1.0000 0.2187910029
Ag  Ag95      1.0  0.73237  0.10028  0.33229  1.0000 0.2300501664
Ag  Ag96      1.0  0.66614  0.88956  0.38392  1.0000 0.2606572205
Ag  Ag97      1.0  0.22674  0.93947  0.90619  1.0000 0.2606572205
Ag  Ag98      1.0  0.11022  0.83775  0.85057  1.0000 0.2187910029
Ag  Ag99      1.0  0.12112  0.89140  0.91782  1.0000 0.2429795677
Ag  Ag100     1.0  0.68919  0.29962  0.66915  1.0000 0.2187910029
Ag  Ag101     1.0  0.75061  0.41434  0.69397  1.0000 0.2300501664
Ag  Ag102     1.0  0.74390  0.37995  0.61971  1.0000 0.2606572205
Ag  Ag103     1.0  0.82605  0.88867  0.18086  1.0000 0.2300501664
Ag  Ag104     1.0  0.72599  0.84053  0.19800  1.0000 0.2300501664
Ag  Ag105     1.0  0.85098  0.93810  0.25436  1.0000 0.2606572205
Ag  Ag106     1.0  0.80137  0.37339  0.22370  1.0000 0.2300501664
Ag  Ag107     1.0  0.85268  0.44492  0.17302  1.0000 0.2073849098
Ag  Ag108     1.0  0.77833  0.31817  0.15294  1.0000 0.2606572205
Ag  Ag109     1.0  0.10089  0.72418  0.36467  1.0000 0.24858218
Ag  Ag110     1.0  0.04503  0.73908  0.33399  1.0000 0.2606572205
Ag  Ag111     1.0  0.17125  0.85019  0.38084  1.0000 0.1989325671
Ag  Ag112     1.0  0.13366  0.03264  0.23248  1.0000 0.24858218
Ag  Ag113     1.0  0.18244  0.01395  0.26631  1.0000 0.2429795677
Ag  Ag114     1.0  0.06839  0.94926  0.28123  1.0000 0.24858218
Ag  Ag115     1.0  0.35589  0.14425  0.11290  1.0000 0.24858218
Ag  Ag116     1.0  0.42515  0.23377  0.07448  1.0000 0.2429795677
Ag  Ag117     1.0  0.42639  0.26745  0.14576  1.0000 0.24858218
Ag  Ag118     1.0  0.46490  0.96239  0.43243  1.0000 0.2606572205
Ag  Ag119     1.0  0.47591  0.01733  0.49514  1.0000 0.1989325671
Ag  Ag120     1.0  0.59082  0.08306  0.48274  1.0000 0.2429795677
Ag  Ag121     1.0  0.95734  0.52362  0.01842  1.0000 0.2606572205
Ag  Ag122     1.0  0.07319  0.58953  0.01136  1.0000 0.2300501664
Ag  Ag123     1.0  0.97977  0.52663  0.52286  1.0000 0.2300501664
Ag  Ag124     1.0  0.39207  0.18655  0.56534  1.0000 0.2187910029
Ag  Ag125     1.0  0.39972  0.23201  0.63209  1.0000 0.2300501664
Ag  Ag126     1.0  0.61044  0.49436  0.77658  1.0000 0.2606572205
Ag  Ag127     1.0  0.56053  0.96672  0.28727  1.0000 0.2606572205
Ag  Ag128     1.0  0.66225  0.01282  0.27247  1.0000 0.2187910029
Ag  Ag129     1.0  0.60860  0.02642  0.22972  1.0000 0.2429795677
Ag  Ag130     1.0  0.20038  0.36953  0.38957  1.0000 0.2187910029
Ag  Ag131     1.0  0.08566  0.27963  0.33627  1.0000 0.2300501664
Ag  Ag132     1.0  0.12005  0.23976  0.36395  1.0000 0.2606572205
Ag  Ag133     1.0  0.61133  0.29219  0.93738  1.0000 0.2300501664
Ag  Ag134     1.0  0.65947  0.35747  0.88546  1.0000 0.2300501664
Ag  Ag135     1.0  0.56190  0.31626  0.91288  1.0000 0.2606572205
Ag  Ag136     1.0  0.12661  0.85031  0.42798  1.0000 0.2300501664
Ag  Ag137     1.0  0.05508  0.72810  0.40776  1.0000 0.2073849098
Ag  Ag138     1.0  0.18183  0.83477  0.46016  1.0000 0.2606572205
Ag  Ag139     1.0  0.77582  0.64049  0.37671  1.0000 0.24858218
Ag  Ag140     1.0  0.76092  0.59491  0.30595  1.0000 0.2606572205
Ag  Ag141     1.0  0.64981  0.53065  0.32106  1.0000 0.1989325671
Ag  Ag142     1.0  0.46736  0.19984  0.10102  1.0000 0.24858218
Ag  Ag143     1.0  0.48605  0.25236  0.16849  1.0000 0.2429795677
Ag  Ag144     1.0  0.55074  0.33197  0.11913  1.0000 0.24858218
Ag  Ag145     1.0  0.35575  0.96865  0.21164  1.0000 0.24858218
Ag  Ag146     1.0  0.26623  0.84071  0.19138  1.0000 0.24858218
Ag  Ag147     1.0  0.23255  0.87831  0.15894  1.0000 0.2606572205
Ag  Ag148     1.0  0.53761  0.47004  0.50251  1.0000 0.2606572205
Ag  Ag149     1.0  0.48267  0.47781  0.45858  1.0000 0.1989325671
Ag  Ag150     1.0  0.41694  0.39968  0.50776  1.0000 0.2429795677
Ag  Ag151     1.0  0.00520  0.93892  0.48158  1.0000 0.2651575802
Ag  Ag152     1.0  0.07817  0.06183  0.48864  1.0000 0.2300501664
Ag  Ag153     1.0  0.50377  0.45691  0.97714  1.0000 0.2300501664
Ag  Ag154     1.0  0.12121  0.82673  0.93466  1.0000 0.2187910029
Ag  Ag155     1.0  0.09992  0.76763  0.86791  1.0000 0.2300501664
Ag  Ag156     1.0  0.21778  0.83386  0.72342  1.0000 0.2606572205
Ag  Ag157     1.0  0.17945  0.27326  0.21273  1.0000 0.2606572205
Ag  Ag158     1.0  0.24035  0.38978  0.22753  1.0000 0.2187910029
Ag  Ag159     1.0  0.29670  0.37888  0.27028  1.0000 0.24858218
Ag  Ag160     1.0  0.47996  0.81081  0.11043  1.0000 0.2187910029
Ag  Ag161     1.0  0.44336  0.74939  0.16373  1.0000 0.2300501664
Ag  Ag162     1.0  0.37581  0.75610  0.13605  1.0000 0.2606572205
Ag  Ag163     1.0  0.85481  0.67395  0.56262  1.0000 0.2300501664
Ag  Ag164     1.0  0.97201  0.77401  0.61454  1.0000 0.2300501664
Ag  Ag165     1.0  0.90338  0.64902  0.58712  1.0000 0.2606572205
Ag  Ag166     1.0  0.92233  0.69863  0.07202  1.0000 0.2300501664
Ag  Ag167     1.0  0.82034  0.64732  0.09224  1.0000 0.2073849098
Ag  Ag168     1.0  0.87461  0.72167  0.03984  1.0000 0.2606572205
Ag  Ag169     1.0  0.76378  0.39911  0.12329  1.0000 0.24858218
Ag  Ag170     1.0  0.78896  0.45497  0.19405  1.0000 0.2606572205
Ag  Ag171     1.0  0.70959  0.32875  0.17894  1.0000 0.1989325671
Ag  Ag172     1.0  0.59882  0.36634  0.39898  1.0000 0.24858218
Ag  Ag173     1.0  0.58387  0.31756  0.33151  1.0000 0.2429795677
Ag  Ag174     1.0  0.71284  0.43161  0.38087  1.0000 0.24858218
Ag  Ag175     1.0  0.25701  0.14411  0.28836  1.0000 0.24858218
Ag  Ag176     1.0  0.14933  0.07485  0.30862  1.0000 0.2429795677
Ag  Ag177     1.0  0.21937  0.07361  0.34106  1.0000 0.24858218
Ag  Ag178     1.0  0.46753  0.03510  0.99749  1.0000 0.2606572205
Ag  Ag179     1.0  0.51923  0.02409  0.04142  1.0000 0.1989325671
Ag  Ag180     1.0  0.39192  0.90918  0.99224  1.0000 0.24858218
Ag  Ag181     1.0  0.02362  0.50520  0.56628  1.0000 0.2651575802
Ag  Ag182     1.0  0.08953  0.57817  0.51634  1.0000 0.2300501664
Ag  Ag183     1.0  0.02663  0.00377  0.54686  1.0000 0.2300501664
Ag  Ag184     1.0  0.68655  0.62121  0.79448  1.0000 0.2187910029
Ag  Ag185     1.0  0.73201  0.59992  0.83229  1.0000 0.2300501664
Ag  Ag186     1.0  0.99436  0.71778  0.88392  1.0000 0.2606572205
Ag  Ag187     1.0  0.46672  0.67945  0.40619  1.0000 0.2606572205
Ag  Ag188     1.0  0.51282  0.74035  0.35057  1.0000 0.2187910029
Ag  Ag189     1.0  0.52642  0.79670  0.41782  1.0000 0.24858218
Ag  Ag190     1.0  0.86953  0.97996  0.16915  1.0000 0.2187910029
Ag  Ag191     1.0  0.77963  0.94336  0.19397  1.0000 0.2300501664
Ag  Ag192     1.0  0.73976  0.87581  0.11971  1.0000 0.2606572205
Ag  Ag193     1.0  0.79219  0.35481  0.68086  1.0000 0.2300501664
Ag  Ag194     1.0  0.85747  0.47201  0.69800  1.0000 0.2300501664
Ag  Ag195     1.0  0.81626  0.40338  0.75436  1.0000 0.2606572205
Ag  Ag196     1.0  0.35031  0.42233  0.72370  1.0000 0.2300501664
Ag  Ag197     1.0  0.22810  0.32034  0.67302  1.0000 0.2073849098
Ag  Ag198     1.0  0.33477  0.37461  0.65294  1.0000 0.2606572205
Ag  Ag199     1.0  0.14049  0.26378  0.86467  1.0000 0.2429795677
Ag  Ag200     1.0  0.09491  0.28896  0.83399  1.0000 0.2606572205
Ag  Ag201     1.0  0.03065  0.20959  0.88084  1.0000 0.1989325671
Ag  Ag202     1.0  0.69984  0.09882  0.73248  1.0000 0.24858218
Ag  Ag203     1.0  0.75236  0.08387  0.76631  1.0000 0.2429795677
Ag  Ag204     1.0  0.83197  0.21284  0.78123  1.0000 0.24858218
Ag  Ag205     1.0  0.46865  0.75701  0.61290  1.0000 0.24858218
Ag  Ag206     1.0  0.34071  0.64933  0.57448  1.0000 0.2429795677
Ag  Ag207     1.0  0.37831  0.71937  0.64576  1.0000 0.24858218
Ag  Ag208     1.0  0.97004  0.96753  0.93243  1.0000 0.2606572205
Ag  Ag209     1.0  0.97781  0.01923  0.99514  1.0000 0.1989325671
Ag  Ag210     1.0  0.89968  0.89192  0.98274  1.0000 0.24858218
Ag  Ag211     1.0  0.43892  0.45734  0.93372  1.0000 0.2606572205
Ag  Ag212     1.0  0.56183  0.57319  0.98366  1.0000 0.2300501664
Ag  Ag213     1.0  0.95691  0.47977  0.95314  1.0000 0.2300501664
Ag  Ag214     1.0  0.32673  0.89207  0.70552  1.0000 0.2187910029
Ag  Ag215     1.0  0.26763  0.89972  0.66771  1.0000 0.2300501664
Ag  Ag216     1.0  0.33386  0.11044  0.61608  1.0000 0.2606572205
Ag  Ag217     1.0  0.77326  0.06053  0.09381  1.0000 0.2606572205
Ag  Ag218     1.0  0.88978  0.16225  0.14943  1.0000 0.2187910029
Ag  Ag219     1.0  0.87888  0.10860  0.08218  1.0000 0.24858218
Ag  Ag220     1.0  0.31081  0.70038  0.33085  1.0000 0.2187910029
Ag  Ag221     1.0  0.24939  0.58566  0.30603  1.0000 0.2300501664
Ag  Ag222     1.0  0.25610  0.62005  0.38029  1.0000 0.2606572205
Ag  Ag223     1.0  0.17395  0.11133  0.81914  1.0000 0.2300501664
Ag  Ag224     1.0  0.27401  0.15947  0.80200  1.0000 0.2300501664
Ag  Ag225     1.0  0.14902  0.06190  0.74564  1.0000 0.2606572205
Ag  Ag226     1.0  0.19863  0.62661  0.77630  1.0000 0.2300501664
Ag  Ag227     1.0  0.14732  0.55508  0.82698  1.0000 0.2073849098
Ag  Ag228     1.0  0.22167  0.68183  0.84706  1.0000 0.2606572205
Ag  Ag229     1.0  0.89911  0.27582  0.63533  1.0000 0.2429795677
Ag  Ag230     1.0  0.95497  0.26092  0.66601  1.0000 0.2606572205
Ag  Ag231     1.0  0.82875  0.14981  0.61916  1.0000 0.1989325671
Ag  Ag232     1.0  0.86634  0.96736  0.76752  1.0000 0.24858218
Ag  Ag233     1.0  0.81756  0.98605  0.73369  1.0000 0.2429795677
Ag  Ag234     1.0  0.93161  0.05074  0.71877  1.0000 0.24858218
Ag  Ag235     1.0  0.64411  0.85575  0.88710  1.0000 0.24858218
Ag  Ag236     1.0  0.57485  0.76623  0.92552  1.0000 0.2429795677
Ag  Ag237     1.0  0.57361  0.73255  0.85424  1.0000 0.24858218
Ag  Ag238     1.0  0.53510  0.03761  0.56757  1.0000 0.2606572205
Ag  Ag239     1.0  0.52409  0.98267  0.50486  1.0000 0.1989325671
Ag  Ag240     1.0  0.40918  0.91694  0.51726  1.0000 0.24858218
H   H1        1.0  0.03470  0.42200  0.92990  1.0000 0.1340587646
H   H2        1.0  0.99640  0.38510  0.89550  1.0000 0.1499769435
H   H3        1.0  0.99080  0.35930  0.92070  1.0000 0.1499769435
H   H4        1.0  0.82830  0.31490  0.94140  1.0000 0.1413069922
H   H5        1.0  0.80610  0.26340  0.93150  1.0000 0.1567888737
H   H6        1.0  0.80980  0.28750  0.90590  1.0000 0.1413069922
H   H7        1.0  0.86550  0.36570  0.54200  1.0000 0.1499769435
H   H8        1.0  0.84660  0.31750  0.54570  1.0000 0.1499769435
H   H9        1.0  0.82650  0.31430  0.51320  1.0000 0.1499769435
H   H10       1.0  0.03120  0.42420  0.50100  1.0000 0.1413069922
H   H11       1.0  0.00390  0.38070  0.51920  1.0000 0.1567888737
H   H12       1.0  0.04860  0.44190  0.53770  1.0000 0.1499769435
H   H13       1.0  0.15250  0.62020  0.09510  1.0000 0.1413069922
H   H14       1.0  0.21360  0.65980  0.10180  1.0000 0.1499769435
H   H15       1.0  0.16900  0.60360  0.11040  1.0000 0.1499769435
H   H16       1.0  0.13280  0.51560  0.98260  1.0000 0.1413069922
H   H17       1.0  0.18540  0.54750  0.00630  1.0000 0.1567888737
H   H18       1.0  0.19080  0.57870  0.98690  1.0000 0.1499769435
H   H19       1.0  0.59190  0.76850  0.48580  1.0000 0.1499769435
H   H20       1.0  0.57780  0.72460  0.49300  1.0000 0.1567888737
H   H21       1.0  0.53000  0.70670  0.47910  1.0000 0.1413069922
H   H22       1.0  0.53000  0.64710  0.35870  1.0000 0.1413069922
H   H23       1.0  0.53580  0.62650  0.38150  1.0000 0.1413069922
H   H24       1.0  0.58830  0.68230  0.37400  1.0000 0.1499769435
H   H25       1.0  0.23960  0.42250  0.12810  1.0000 0.1413069922
H   H26       1.0  0.27060  0.47140  0.11440  1.0000 0.1499769435
H   H27       1.0  0.24100  0.45780  0.13960  1.0000 0.1413069922
H   H28       1.0  0.46430  0.61750  0.22260  1.0000 0.1413069922
H   H29       1.0  0.45390  0.64280  0.21670  1.0000 0.1499769435
H   H30       1.0  0.47460  0.63830  0.19290  1.0000 0.1499769435
H   H31       1.0  0.74760  0.00610  0.40970  1.0000 0.1413069922
H   H32       1.0  0.76960  0.04640  0.43980  1.0000 0.1499769435
H   H33       1.0  0.71480  0.00800  0.41440  1.0000 0.1499769435
H   H34       1.0  0.61020  0.85630  0.49210  1.0000 0.1413069922
H   H35       1.0  0.64890  0.91400  0.51330  1.0000 0.1499769435
H   H36       1.0  0.67090  0.89950  0.51080  1.0000 0.1499769435
H   H37       1.0  0.50380  0.11460  0.67740  1.0000 0.1413069922
H   H38       1.0  0.46990  0.08700  0.64230  1.0000 0.1499769435
H   H39       1.0  0.50510  0.14450  0.66000  1.0000 0.1567888737
H   H40       1.0  0.28950  0.99550  0.68140  1.0000 0.1413069922
H   H41       1.0  0.33400  0.05630  0.70090  1.0000 0.1499769435
H   H42       1.0  0.31520  0.03950  0.66430  1.0000 0.1413069922
H   H43       1.0  0.46630  0.21500  0.70110  1.0000 0.1499769435
H   H44       1.0  0.40240  0.15620  0.69380  1.0000 0.1499769435
H   H45       1.0  0.44400  0.16650  0.70910  1.0000 0.1567888737
H   H46       1.0  0.40120  0.08630  0.57670  1.0000 0.1413069922
H   H47       1.0  0.45430  0.11410  0.59520  1.0000 0.1567888737
H   H48       1.0  0.39670  0.05940  0.60030  1.0000 0.1499769435
H   H49       1.0  0.44690  0.97060  0.80590  1.0000 0.1413069922
H   H50       1.0  0.47550  0.96510  0.79700  1.0000 0.1413069922
H   H51       1.0  0.51090  0.02020  0.81970  1.0000 0.1499769435
H   H52       1.0  0.53030  0.07850  0.70140  1.0000 0.1340587646
H   H53       1.0  0.58580  0.12370  0.72810  1.0000 0.1567888737
H   H54       1.0  0.56090  0.07350  0.70760  1.0000 0.1499769435
H   H55       1.0  0.71980  0.51000  0.59500  1.0000 0.1499769435
H   H56       1.0  0.74960  0.51480  0.57440  1.0000 0.1499769435
H   H57       1.0  0.72350  0.47830  0.59760  1.0000 0.1499769435
H   H58       1.0  0.95130  0.68430  0.67800  1.0000 0.1499769435
H   H59       1.0  0.91510  0.65590  0.70140  1.0000 0.1499769435
H   H60       1.0  0.91800  0.62820  0.68120  1.0000 0.1499769435
H   H61       1.0  0.81600  0.52460  0.71660  1.0000 0.1413069922
H   H62       1.0  0.82660  0.56260  0.70200  1.0000 0.1499769435
H   H63       1.0  0.76590  0.50220  0.69970  1.0000 0.1567888737
H   H64       1.0  0.80940  0.47280  0.58640  1.0000 0.1413069922
H   H65       1.0  0.76350  0.45870  0.57680  1.0000 0.1567888737
H   H66       1.0  0.82590  0.52040  0.58790  1.0000 0.1413069922
H   H67       1.0  0.81900  0.76820  0.61740  1.0000 0.1413069922
H   H68       1.0  0.81870  0.76740  0.58230  1.0000 0.1499769435
H   H69       1.0  0.76660  0.73500  0.59260  1.0000 0.1499769435
H   H70       1.0  0.70160  0.55420  0.55660  1.0000 0.1413069922
H   H71       1.0  0.66720  0.53860  0.57880  1.0000 0.1499769435
H   H72       1.0  0.65710  0.54160  0.54550  1.0000 0.1413069922
H   H73       1.0  0.33800  0.72850  0.03910  1.0000 0.1413069922
H   H74       1.0  0.27530  0.68370  0.02560  1.0000 0.1499769435
H   H75       1.0  0.29890  0.67360  0.01370  1.0000 0.1499769435
H   H76       1.0  0.22380  0.56540  0.11520  1.0000 0.1499769435
H   H77       1.0  0.18080  0.55370  0.10030  1.0000 0.1499769435
H   H78       1.0  0.23010  0.60390  0.13000  1.0000 0.1499769435
H   H79       1.0  0.31310  0.59730  0.16760  1.0000 0.1413069922
H   H80       1.0  0.31160  0.56530  0.18190  1.0000 0.1499769435
H   H81       1.0  0.27210  0.53760  0.14870  1.0000 0.1499769435
H   H82       1.0  0.45550  0.63630  0.10620  1.0000 0.1413069922
H   H83       1.0  0.43550  0.59780  0.12650  1.0000 0.1499769435
H   H84       1.0  0.48530  0.66150  0.14200  1.0000 0.1413069922
H   H85       1.0  0.49270  0.69200  0.04410  1.0000 0.1413069922
H   H86       1.0  0.52210  0.72280  0.01870  1.0000 0.1499769435
H   H87       1.0  0.46020  0.66020  0.00860  1.0000 0.1499769435
H   H88       1.0  0.40740  0.74410  0.01250  1.0000 0.1413069922
H   H89       1.0  0.40770  0.72940  0.97950  1.0000 0.1567888737
H   H90       1.0  0.46170  0.78970  0.00200  1.0000 0.1499769435
H   H91       1.0  0.93490  0.14440  0.60630  1.0000 0.1413069922
H   H92       1.0  0.99580  0.18420  0.61160  1.0000 0.1413069922
H   H93       1.0  0.96000  0.16080  0.57800  1.0000 0.1499769435
H   H94       1.0  0.06770  0.36960  0.61930  1.0000 0.1499769435
H   H95       1.0  0.11250  0.38280  0.63170  1.0000 0.1567888737
H   H96       1.0  0.07800  0.36860  0.65320  1.0000 0.1499769435
H   H97       1.0  0.00030  0.37820  0.61010  1.0000 0.1413069922
H   H98       1.0  0.00300  0.41000  0.59400  1.0000 0.1499769435
H   H99       1.0  0.02600  0.39920  0.58200  1.0000 0.1499769435
H   H100      1.0  0.79190  0.19260  0.50210  1.0000 0.1413069922
H   H101      1.0  0.82730  0.24330  0.48880  1.0000 0.1567888737
H   H102      1.0  0.79700  0.23130  0.51310  1.0000 0.1499769435
H   H103      1.0  0.72120  0.07610  0.48510  1.0000 0.1340587646
H   H104      1.0  0.66960  0.01150  0.47670  1.0000 0.1567888737
H   H105      1.0  0.71230  0.04380  0.45710  1.0000 0.1499769435
H   H106      1.0  0.82600  0.05370  0.54610  1.0000 0.1413069922
H   H107      1.0  0.78540  0.00580  0.51480  1.0000 0.1499769435
H   H108      1.0  0.76400  0.99580  0.54420  1.0000 0.1413069922
H   H109      1.0  0.12390  0.29330  0.57320  1.0000 0.1413069922
H   H110      1.0  0.07250  0.23540  0.57930  1.0000 0.1413069922
H   H111      1.0  0.06910  0.26550  0.56960  1.0000 0.1499769435
H   H112      1.0  0.13290  0.34520  0.70630  1.0000 0.1413069922
H   H113      1.0  0.14830  0.38630  0.69200  1.0000 0.1499769435
H   H114      1.0  0.08610  0.32530  0.68600  1.0000 0.1413069922
H   H115      1.0  0.25590  0.46280  0.74790  1.0000 0.1413069922
H   H116      1.0  0.27070  0.45730  0.77780  1.0000 0.1499769435
H   H117      1.0  0.30230  0.51370  0.77780  1.0000 0.1567888737
H   H118      1.0  0.45550  0.55650  0.73840  1.0000 0.1413069922
H   H119      1.0  0.47210  0.60290  0.73400  1.0000 0.1499769435
H   H120      1.0  0.47980  0.59950  0.76770  1.0000 0.1499769435
H   H121      1.0  0.44610  0.53860  0.65670  1.0000 0.1499769435
H   H122      1.0  0.44880  0.50600  0.64940  1.0000 0.1413069922
H   H123      1.0  0.46290  0.53960  0.62710  1.0000 0.1567888737
H   H124      1.0  0.22550  0.32080  0.56450  1.0000 0.1499769435
H   H125      1.0  0.24640  0.36350  0.54830  1.0000 0.1499769435
H   H126      1.0  0.26690  0.34760  0.54470  1.0000 0.1499769435
H   H127      1.0  0.62320  0.92520  0.91600  1.0000 0.1413069922
H   H128      1.0  0.65410  0.97050  0.89860  1.0000 0.1413069922
H   H129      1.0  0.59150  0.92390  0.89600  1.0000 0.1499769435
H   H130      1.0  0.58840  0.82670  0.79190  1.0000 0.1413069922
H   H131      1.0  0.54930  0.82030  0.77840  1.0000 0.1567888737
H   H132      1.0  0.61360  0.87770  0.78590  1.0000 0.1499769435
H   H133      1.0  0.47190  0.68990  0.76640  1.0000 0.1413069922
H   H134      1.0  0.50770  0.69060  0.76890  1.0000 0.1413069922
H   H135      1.0  0.44710  0.63940  0.74670  1.0000 0.1499769435
H   H136      1.0  0.39860  0.56120  0.85920  1.0000 0.1499769435
H   H137      1.0  0.34360  0.52800  0.83820  1.0000 0.1499769435
H   H138      1.0  0.36820  0.51870  0.82690  1.0000 0.1413069922
H   H139      1.0  0.39430  0.60760  0.92630  1.0000 0.1413069922
H   H140      1.0  0.41290  0.62320  0.96290  1.0000 0.1413069922
H   H141      1.0  0.36720  0.60730  0.94650  1.0000 0.1567888737
H   H142      1.0  0.57290  0.85190  0.96780  1.0000 0.1413069922
H   H143      1.0  0.52130  0.82970  0.96420  1.0000 0.1499769435
H   H144      1.0  0.54470  0.83300  0.99490  1.0000 0.1413069922
H   H145      1.0  0.53000  0.95070  0.74590  1.0000 0.1413069922
H   H146      1.0  0.49410  0.94920  0.73710  1.0000 0.1499769435
H   H147      1.0  0.50370  0.94560  0.77030  1.0000 0.1499769435
H   H148      1.0  0.69220  0.18740  0.80520  1.0000 0.1499769435
H   H149      1.0  0.63630  0.15770  0.79340  1.0000 0.1567888737
H   H150      1.0  0.67070  0.17640  0.77010  1.0000 0.1499769435
H   H151      1.0  0.82520  0.28160  0.82620  1.0000 0.1413069922
H   H152      1.0  0.86530  0.32770  0.85840  1.0000 0.1499769435
H   H153      1.0  0.80120  0.27380  0.85360  1.0000 0.1413069922
H   H154      1.0  0.85400  0.19880  0.90340  1.0000 0.1413069922
H   H155      1.0  0.89120  0.25470  0.92650  1.0000 0.1499769435
H   H156      1.0  0.91300  0.25520  0.90060  1.0000 0.1413069922
H   H157      1.0  0.77680  0.06100  0.86280  1.0000 0.1413069922
H   H158      1.0  0.73280  0.00670  0.87330  1.0000 0.1413069922
H   H159      1.0  0.74960  0.05350  0.88770  1.0000 0.1499769435
H   H160      1.0  0.55710  0.91900  0.78270  1.0000 0.1413069922
H   H161      1.0  0.54190  0.87810  0.79720  1.0000 0.1567888737
H   H162      1.0  0.56630  0.89440  0.76850  1.0000 0.1499769435
H   H163      1.0  0.37860  0.49780  0.51820  1.0000 0.1413069922
H   H164      1.0  0.35140  0.47830  0.54570  1.0000 0.1567888737
H   H165      1.0  0.32330  0.43450  0.51520  1.0000 0.1499769435
H   H166      1.0  0.44720  0.44100  0.58120  1.0000 0.1413069922
H   H167      1.0  0.40950  0.42480  0.60050  1.0000 0.1413069922
H   H168      1.0  0.47200  0.48640  0.60860  1.0000 0.1567888737
H   H169      1.0  0.58310  0.54370  0.59340  1.0000 0.1499769435
H   H170      1.0  0.63920  0.57320  0.60300  1.0000 0.1567888737
H   H171      1.0  0.58860  0.51630  0.57710  1.0000 0.1499769435
H   H172      1.0  0.69090  0.65860  0.49330  1.0000 0.1413069922
H   H173      1.0  0.73510  0.67610  0.51520  1.0000 0.1413069922
H   H174      1.0  0.73170  0.70770  0.52400  1.0000 0.1567888737
H   H175      1.0  0.64370  0.67940  0.45630  1.0000 0.1413069922
H   H176      1.0  0.64950  0.71720  0.44810  1.0000 0.1499769435
H   H177      1.0  0.61740  0.66630  0.42210  1.0000 0.1499769435
H   H178      1.0  0.42510  0.55060  0.46330  1.0000 0.1340587646
H   H179      1.0  0.44140  0.58470  0.44050  1.0000 0.1499769435
H   H180      1.0  0.46700  0.61230  0.47670  1.0000 0.1499769435
H   H181      1.0  0.99210  0.10480  0.57010  1.0000 0.1340587646
H   H182      1.0  0.98960  0.10090  0.60450  1.0000 0.1499769435
H   H183      1.0  0.93860  0.07010  0.57930  1.0000 0.1499769435
H   H184      1.0  0.87350  0.88690  0.55860  1.0000 0.1413069922
H   H185      1.0  0.83190  0.87460  0.56850  1.0000 0.1567888737
H   H186      1.0  0.88160  0.90390  0.59410  1.0000 0.1413069922
H   H187      1.0  0.32370  0.32350  0.95800  1.0000 0.1499769435
H   H188      1.0  0.27180  0.30090  0.95430  1.0000 0.1499769435
H   H189      1.0  0.30110  0.31330  0.98680  1.0000 0.1499769435
H   H190      1.0  0.42320  0.53020  0.99900  1.0000 0.1413069922
H   H191      1.0  0.36150  0.48470  0.98080  1.0000 0.1567888737
H   H192      1.0  0.40420  0.51090  0.96230  1.0000 0.1499769435
H   H193      1.0  0.02510  0.05740  0.40490  1.0000 0.1413069922
H   H194      1.0  0.05800  0.11180  0.39820  1.0000 0.1499769435
H   H195      1.0  0.99320  0.05860  0.38960  1.0000 0.1499769435
H   H196      1.0  0.03300  0.15020  0.51740  1.0000 0.1413069922
H   H197      1.0  0.04120  0.17910  0.49370  1.0000 0.1567888737
H   H198      1.0  0.09180  0.20390  0.51310  1.0000 0.1499769435
H   H199      1.0  0.78270  0.10610  0.01420  1.0000 0.1499769435
H   H200      1.0  0.73160  0.08480  0.00700  1.0000 0.1567888737
H   H201      1.0  0.72760  0.05090  0.02090  1.0000 0.1499769435
H   H202      1.0  0.78840  0.17130  0.14130  1.0000 0.1413069922
H   H203      1.0  0.74500  0.15430  0.11850  1.0000 0.1413069922
H   H204      1.0  0.80830  0.21430  0.12600  1.0000 0.1499769435
H   H205      1.0  0.79440  0.11150  0.37190  1.0000 0.1413069922
H   H206      1.0  0.85700  0.15620  0.38560  1.0000 0.1499769435
H   H207      1.0  0.81820  0.10140  0.36040  1.0000 0.1413069922
H   H208      1.0  0.89490  0.24170  0.27740  1.0000 0.1413069922
H   H209      1.0  0.92610  0.23720  0.28330  1.0000 0.1499769435
H   H210      1.0  0.94540  0.28170  0.30710  1.0000 0.1499769435
H   H211      1.0  0.09640  0.33790  0.09030  1.0000 0.1413069922
H   H212      1.0  0.10660  0.32980  0.06020  1.0000 0.1499769435
H   H213      1.0  0.09360  0.30040  0.08560  1.0000 0.1499769435
H   H214      1.0  0.86420  0.11810  0.00790  1.0000 0.1413069922
H   H215      1.0  0.90070  0.13560  0.98670  1.0000 0.1499769435
H   H216      1.0  0.88870  0.16010  0.98920  1.0000 0.1499769435
H   H217      1.0  0.93720  0.82640  0.82260  1.0000 0.1413069922
H   H218      1.0  0.94470  0.82760  0.85770  1.0000 0.1499769435
H   H219      1.0  0.98450  0.84510  0.84000  1.0000 0.1567888737
H   H220      1.0  0.81410  0.60810  0.81860  1.0000 0.1413069922
H   H221      1.0  0.85540  0.63310  0.79910  1.0000 0.1499769435
H   H222      1.0  0.87520  0.65090  0.83570  1.0000 0.1413069922
H   H223      1.0  0.01390  0.76520  0.79890  1.0000 0.1499769435
H   H224      1.0  0.96240  0.70860  0.80620  1.0000 0.1499769435
H   H225      1.0  0.95740  0.73490  0.79090  1.0000 0.1567888737
H   H226      1.0  0.00960  0.82450  0.92330  1.0000 0.1413069922
H   H227      1.0  0.01890  0.85910  0.90480  1.0000 0.1567888737
H   H228      1.0  0.95910  0.79640  0.89970  1.0000 0.1499769435
H   H229      1.0  0.66470  0.64100  0.69410  1.0000 0.1413069922
H   H230      1.0  0.66810  0.67850  0.70300  1.0000 0.1413069922
H   H231      1.0  0.70050  0.69120  0.68030  1.0000 0.1499769435
H   H232      1.0  0.87710  0.82890  0.79860  1.0000 0.1340587646
H   H233      1.0  0.89560  0.85770  0.77190  1.0000 0.1567888737
H   H234      1.0  0.86590  0.85330  0.79240  1.0000 0.1499769435
H   H235      1.0  0.41500  0.12480  0.90500  1.0000 0.1499769435
H   H236      1.0  0.44040  0.17520  0.92560  1.0000 0.1499769435
H   H237      1.0  0.38070  0.12590  0.90240  1.0000 0.1499769435
H   H238      1.0  0.50630  0.27330  0.82200  1.0000 0.1499769435
H   H239      1.0  0.45450  0.21370  0.79860  1.0000 0.1499769435
H   H240      1.0  0.44700  0.23680  0.81880  1.0000 0.1499769435
H   H241      1.0  0.30800  0.09940  0.78340  1.0000 0.1413069922
H   H242      1.0  0.36060  0.12460  0.79800  1.0000 0.1499769435
H   H243      1.0  0.30250  0.06620  0.80030  1.0000 0.1567888737
H   H244      1.0  0.38640  0.22300  0.91360  1.0000 0.1413069922
H   H245      1.0  0.38190  0.18670  0.92320  1.0000 0.1567888737
H   H246      1.0  0.43250  0.23800  0.91210  1.0000 0.1413069922
H   H247      1.0  0.65080  0.20160  0.88260  1.0000 0.1413069922
H   H248      1.0  0.68510  0.23640  0.91770  1.0000 0.1499769435
H   H249      1.0  0.64240  0.17400  0.90740  1.0000 0.1499769435
H   H250      1.0  0.49760  0.14500  0.94340  1.0000 0.1413069922
H   H251      1.0  0.45980  0.08840  0.92120  1.0000 0.1499769435
H   H252      1.0  0.49610  0.11160  0.95450  1.0000 0.1413069922
H   H253      1.0  0.18940  0.29890  0.46090  1.0000 0.1413069922
H   H254      1.0  0.15810  0.24970  0.47440  1.0000 0.1499769435
H   H255      1.0  0.15990  0.28520  0.48630  1.0000 0.1499769435
H   H256      1.0  0.95020  0.10860  0.38480  1.0000 0.1499769435
H   H257      1.0  0.95340  0.08050  0.39970  1.0000 0.1499769435
H   H258      1.0  0.97390  0.10010  0.37000  1.0000 0.1499769435
H   H259      1.0  0.92970  0.14550  0.33240  1.0000 0.1413069922
H   H260      1.0  0.88340  0.12970  0.31810  1.0000 0.1499769435
H   H261      1.0  0.88890  0.12340  0.35130  1.0000 0.1499769435
H   H262      1.0  0.03010  0.34930  0.39380  1.0000 0.1413069922
H   H263      1.0  0.97130  0.30900  0.37350  1.0000 0.1499769435
H   H264      1.0  0.01950  0.34330  0.35800  1.0000 0.1413069922
H   H265      1.0  0.14790  0.44860  0.45590  1.0000 0.1413069922
H   H266      1.0  0.20410  0.50340  0.48130  1.0000 0.1499769435
H   H267      1.0  0.15160  0.45160  0.49140  1.0000 0.1499769435
H   H268      1.0  0.23160  0.39490  0.48750  1.0000 0.1413069922
H   H269      1.0  0.24990  0.42820  0.52050  1.0000 0.1567888737
H   H270      1.0  0.28770  0.45970  0.49800  1.0000 0.1499769435
H   H271      1.0  0.03810  0.32860  0.89370  1.0000 0.1413069922
H   H272      1.0  0.07260  0.38420  0.88840  1.0000 0.1413069922
H   H273      1.0  0.08280  0.38200  0.92200  1.0000 0.1499769435
H   H274      1.0  0.25030  0.44840  0.88070  1.0000 0.1499769435
H   H275      1.0  0.25110  0.48080  0.86830  1.0000 0.1567888737
H   H276      1.0  0.21540  0.42480  0.84680  1.0000 0.1499769435
H   H277      1.0  0.26810  0.39020  0.88990  1.0000 0.1413069922
H   H278      1.0  0.31600  0.40900  0.90600  1.0000 0.1499769435
H   H279      1.0  0.31720  0.44400  0.91800  1.0000 0.1499769435
H   H280      1.0  0.19050  0.28980  0.99790  1.0000 0.1413069922
H   H281      1.0  0.25450  0.33850  0.01120  1.0000 0.1567888737
H   H282      1.0  0.21820  0.28390  0.98690  1.0000 0.1499769435
H   H283      1.0  0.09100  0.23610  0.01490  1.0000 0.1340587646
H   H284      1.0  0.03480  0.19290  0.02330  1.0000 0.1567888737
H   H285      1.0  0.08670  0.25520  0.04290  1.0000 0.1499769435
H   H286      1.0  0.00760  0.27990  0.95390  1.0000 0.1340587646
H   H287      1.0  0.99100  0.27060  0.98520  1.0000 0.1499769435
H   H288      1.0  0.95160  0.21980  0.95580  1.0000 0.1413069922
H   H289      1.0  0.22010  0.55070  0.92680  1.0000 0.1413069922
H   H290      1.0  0.15610  0.49320  0.92070  1.0000 0.1413069922
H   H291      1.0  0.19590  0.49950  0.93040  1.0000 0.1499769435
H   H292      1.0  0.13890  0.42660  0.79370  1.0000 0.1413069922
H   H293      1.0  0.19430  0.45630  0.80800  1.0000 0.1499769435
H   H294      1.0  0.13930  0.40010  0.81400  1.0000 0.1413069922
H   H295      1.0  0.21490  0.50800  0.75210  1.0000 0.1413069922
H   H296      1.0  0.17950  0.49290  0.72220  1.0000 0.1499769435
H   H297      1.0  0.23590  0.52450  0.72220  1.0000 0.1567888737
H   H298      1.0  0.31810  0.71710  0.76160  1.0000 0.1413069922
H   H299      1.0  0.36890  0.73810  0.76600  1.0000 0.1499769435
H   H300      1.0  0.33180  0.71210  0.73230  1.0000 0.1499769435
H   H301      1.0  0.38190  0.78940  0.84330  1.0000 0.1499769435
H   H302      1.0  0.35660  0.79940  0.85060  1.0000 0.1413069922
H   H303      1.0  0.41250  0.83580  0.87290  1.0000 0.1567888737
H   H304      1.0  0.25630  0.66100  0.93550  1.0000 0.1499769435
H   H305      1.0  0.31520  0.69810  0.95170  1.0000 0.1499769435
H   H306      1.0  0.30290  0.72220  0.95530  1.0000 0.1499769435
H   H307      1.0  0.50920  0.70720  0.58400  1.0000 0.1413069922
H   H308      1.0  0.57190  0.75550  0.60140  1.0000 0.1413069922
H   H309      1.0  0.52790  0.69550  0.60400  1.0000 0.1499769435
H   H310      1.0  0.53480  0.79650  0.70810  1.0000 0.1413069922
H   H311      1.0  0.54190  0.77090  0.72160  1.0000 0.1567888737
H   H312      1.0  0.59180  0.82770  0.71410  1.0000 0.1499769435
H   H313      1.0  0.42350  0.70550  0.73360  1.0000 0.1413069922
H   H314      1.0  0.42170  0.73880  0.73110  1.0000 0.1413069922
H   H315      1.0  0.39270  0.70040  0.75330  1.0000 0.1499769435
H   H316      1.0  0.20200  0.53940  0.64080  1.0000 0.1413069922
H   H317      1.0  0.18980  0.50540  0.66180  1.0000 0.1499769435
H   H318      1.0  0.19180  0.54130  0.67310  1.0000 0.1413069922
H   H319      1.0  0.18130  0.46800  0.57370  1.0000 0.1413069922
H   H320      1.0  0.16030  0.45000  0.53710  1.0000 0.1413069922
H   H321      1.0  0.16080  0.42070  0.55350  1.0000 0.1567888737
H   H322      1.0  0.38410  0.60510  0.53220  1.0000 0.1413069922
H   H323      1.0  0.36550  0.55710  0.53580  1.0000 0.1499769435
H   H324      1.0  0.33810  0.54980  0.50510  1.0000 0.1413069922
H   H325      1.0  0.70480  0.78410  0.75410  1.0000 0.1413069922
H   H326      1.0  0.71210  0.75700  0.76290  1.0000 0.1499769435
H   H327      1.0  0.67530  0.73340  0.72970  1.0000 0.1499769435
H   H328      1.0  0.88220  0.88700  0.69480  1.0000 0.1499769435
H   H329      1.0  0.86430  0.84290  0.70660  1.0000 0.1567888737
H   H330      1.0  0.90630  0.90060  0.72990  1.0000 0.1499769435
H   H331      1.0  0.95540  0.99900  0.67380  1.0000 0.1413069922
H   H332      1.0  0.96930  0.00690  0.64160  1.0000 0.1499769435
H   H333      1.0  0.92020  0.94760  0.64640  1.0000 0.1413069922
H   H334      1.0  0.79540  0.95060  0.59660  1.0000 0.1413069922
H   H335      1.0  0.82820  0.96470  0.57350  1.0000 0.1499769435
H   H336      1.0  0.85460  0.01240  0.59940  1.0000 0.1413069922
H   H337      1.0  0.69820  0.91400  0.63720  1.0000 0.1413069922
H   H338      1.0  0.63340  0.85950  0.62670  1.0000 0.1413069922
H   H339      1.0  0.66580  0.86190  0.61230  1.0000 0.1499769435
H   H340      1.0  0.63630  0.77440  0.71730  1.0000 0.1413069922
H   H341      1.0  0.58090  0.74470  0.70280  1.0000 0.1567888737
H   H342      1.0  0.62590  0.79780  0.73150  1.0000 0.1499769435
H   H343      1.0  0.47960  0.86040  0.98180  1.0000 0.1413069922
H   H344      1.0  0.43260  0.80570  0.95430  1.0000 0.1567888737
H   H345      1.0  0.41930  0.80810  0.98480  1.0000 0.1499769435
H   H346      1.0  0.35980  0.86600  0.91880  1.0000 0.1413069922
H   H347      1.0  0.32430  0.80900  0.89950  1.0000 0.1413069922
H   H348      1.0  0.37780  0.86340  0.89140  1.0000 0.1567888737
H   H349      1.0  0.45030  0.98970  0.90660  1.0000 0.1499769435
H   H350      1.0  0.47020  0.03620  0.89700  1.0000 0.1567888737
H   H351      1.0  0.43920  0.01150  0.92290  1.0000 0.1499769435
H   H352      1.0  0.66530  0.19760  0.00670  1.0000 0.1413069922
H   H353      1.0  0.66090  0.21990  0.98480  1.0000 0.1413069922
H   H354      1.0  0.68370  0.20770  0.97600  1.0000 0.1567888737
H   H355      1.0  0.72310  0.18740  0.04370  1.0000 0.1413069922
H   H356      1.0  0.76910  0.20140  0.05190  1.0000 0.1499769435
H   H357      1.0  0.74420  0.19530  0.07790  1.0000 0.1499769435
H   H358      1.0  0.58730  0.96180  0.03670  1.0000 0.1340587646
H   H359      1.0  0.64420  0.00090  0.05950  1.0000 0.1499769435
H   H360      1.0  0.63560  0.99030  0.02330  1.0000 0.1499769435
H   H361      1.0  0.92200  0.49210  0.38730  1.0000 0.1340587646
H   H362      1.0  0.88510  0.48960  0.38870  1.0000 0.1499769435
H   H363      1.0  0.85930  0.43860  0.36850  1.0000 0.1499769435
H   H364      1.0  0.81490  0.37350  0.48660  1.0000 0.1413069922
H   H365      1.0  0.76340  0.33190  0.45730  1.0000 0.1567888737
H   H366      1.0  0.78750  0.38160  0.47770  1.0000 0.1413069922
H   H367      1.0  0.86570  0.82370  0.50020  1.0000 0.1499769435
H   H368      1.0  0.81750  0.77180  0.47090  1.0000 0.1499769435
H   H369      1.0  0.81430  0.80110  0.48780  1.0000 0.1499769435
H   H370      1.0  0.92420  0.92320  0.39300  1.0000 0.1413069922
H   H371      1.0  0.88070  0.86150  0.37680  1.0000 0.1567888737
H   H372      1.0  0.94190  0.90420  0.39330  1.0000 0.1499769435
H   H373      1.0  0.12020  0.52510  0.46770  1.0000 0.1413069922
H   H374      1.0  0.15980  0.55800  0.44620  1.0000 0.1499769435
H   H375      1.0  0.10360  0.49320  0.43460  1.0000 0.1499769435
H   H376      1.0  0.01560  0.53300  0.38280  1.0000 0.1413069922
H   H377      1.0  0.04750  0.54120  0.36210  1.0000 0.1567888737
H   H378      1.0  0.07870  0.59180  0.38790  1.0000 0.1499769435
H   H379      1.0  0.26850  0.28270  0.17660  1.0000 0.1499769435
H   H380      1.0  0.22460  0.23160  0.14680  1.0000 0.1567888737
H   H381      1.0  0.20670  0.22760  0.17670  1.0000 0.1499769435
H   H382      1.0  0.14710  0.28840  0.11710  1.0000 0.1413069922
H   H383      1.0  0.12650  0.24500  0.09070  1.0000 0.1413069922
H   H384      1.0  0.18230  0.30830  0.09400  1.0000 0.1499769435
H   H385      1.0  0.92250  0.29440  0.18290  1.0000 0.1413069922
H   H386      1.0  0.97140  0.35700  0.20080  1.0000 0.1499769435
H   H387      1.0  0.95780  0.31820  0.21680  1.0000 0.1413069922
H   H388      1.0  0.11750  0.39490  0.15320  1.0000 0.1413069922
H   H389      1.0  0.14280  0.42610  0.18890  1.0000 0.1499769435
H   H390      1.0  0.13830  0.44540  0.16370  1.0000 0.1499769435
H   H391      1.0  0.50610  0.59640  0.25850  1.0000 0.1413069922
H   H392      1.0  0.54640  0.60660  0.27680  1.0000 0.1499769435
H   H393      1.0  0.50800  0.59360  0.29320  1.0000 0.1499769435
H   H394      1.0  0.35630  0.36420  0.24610  1.0000 0.1413069922
H   H395      1.0  0.41400  0.40070  0.26510  1.0000 0.1499769435
H   H396      1.0  0.39950  0.38870  0.22860  1.0000 0.1499769435
H   H397      1.0  0.61460  0.43720  0.61080  1.0000 0.1413069922
H   H398      1.0  0.58700  0.44470  0.61710  1.0000 0.1499769435
H   H399      1.0  0.64450  0.48450  0.63940  1.0000 0.1567888737
H   H400      1.0  0.49550  0.31410  0.70600  1.0000 0.1413069922
H   H401      1.0  0.55630  0.35540  0.72230  1.0000 0.1499769435
H   H402      1.0  0.53950  0.37520  0.72430  1.0000 0.1413069922
H   H403      1.0  0.71500  0.51390  0.74870  1.0000 0.1499769435
H   H404      1.0  0.65620  0.46240  0.75380  1.0000 0.1499769435
H   H405      1.0  0.66650  0.45740  0.72250  1.0000 0.1567888737
H   H406      1.0  0.58630  0.50960  0.68510  1.0000 0.1413069922
H   H407      1.0  0.61410  0.51890  0.65980  1.0000 0.1567888737
H   H408      1.0  0.55940  0.45910  0.66270  1.0000 0.1499769435
H   H409      1.0  0.47060  0.16470  0.52370  1.0000 0.1413069922
H   H410      1.0  0.46510  0.16810  0.48960  1.0000 0.1413069922
H   H411      1.0  0.52020  0.20050  0.50930  1.0000 0.1499769435
H   H412      1.0  0.57850  0.37710  0.54820  1.0000 0.1340587646
H   H413      1.0  0.62370  0.39560  0.53790  1.0000 0.1567888737
H   H414      1.0  0.57350  0.36590  0.51260  1.0000 0.1499769435
H   H415      1.0  0.01000  0.91500  0.79020  1.0000 0.1499769435
H   H416      1.0  0.01480  0.94040  0.76520  1.0000 0.1499769435
H   H417      1.0  0.97830  0.88070  0.75480  1.0000 0.1567888737
H   H418      1.0  0.18430  0.00630  0.73300  1.0000 0.1499769435
H   H419      1.0  0.15590  0.95450  0.74080  1.0000 0.1499769435
H   H420      1.0  0.12820  0.94700  0.71020  1.0000 0.1499769435
H   H421      1.0  0.02460  0.80800  0.70860  1.0000 0.1413069922
H   H422      1.0  0.06260  0.86060  0.73600  1.0000 0.1499769435
H   H423      1.0  0.00220  0.80250  0.73630  1.0000 0.1567888737
H   H424      1.0  0.97280  0.88640  0.66340  1.0000 0.1413069922
H   H425      1.0  0.95870  0.88190  0.69520  1.0000 0.1567888737
H   H426      1.0  0.02040  0.93250  0.69450  1.0000 0.1413069922
H   H427      1.0  0.26820  0.15080  0.94920  1.0000 0.1413069922
H   H428      1.0  0.26740  0.18510  0.94870  1.0000 0.1499769435
H   H429      1.0  0.23500  0.14240  0.96840  1.0000 0.1499769435
H   H430      1.0  0.05420  0.99760  0.85260  1.0000 0.1413069922
H   H431      1.0  0.03860  0.95980  0.87140  1.0000 0.1499769435
H   H432      1.0  0.04160  0.99610  0.88450  1.0000 0.1413069922
H   H433      1.0  0.22850  0.68940  0.39050  1.0000 0.1413069922
H   H434      1.0  0.18370  0.65810  0.40840  1.0000 0.1499769435
H   H435      1.0  0.17360  0.65990  0.37470  1.0000 0.1499769435
H   H436      1.0  0.06540  0.45020  0.34160  1.0000 0.1499769435
H   H437      1.0  0.05370  0.45340  0.37290  1.0000 0.1499769435
H   H438      1.0  0.10390  0.47390  0.37380  1.0000 0.1499769435
H   H439      1.0  0.09730  0.42970  0.28420  1.0000 0.1413069922
H   H440      1.0  0.06530  0.38340  0.25370  1.0000 0.1499769435
H   H441      1.0  0.03760  0.38890  0.26550  1.0000 0.1499769435
H   H442      1.0  0.13630  0.53010  0.18080  1.0000 0.1413069922
H   H443      1.0  0.09780  0.47130  0.16230  1.0000 0.1499769435
H   H444      1.0  0.16150  0.51950  0.17620  1.0000 0.1413069922
H   H445      1.0  0.19200  0.64790  0.19930  1.0000 0.1413069922
H   H446      1.0  0.22280  0.70410  0.20070  1.0000 0.1499769435
H   H447      1.0  0.16020  0.65160  0.20000  1.0000 0.1499769435
H   H448      1.0  0.24410  0.73160  0.33670  1.0000 0.1413069922
H   H449      1.0  0.22940  0.74990  0.32170  1.0000 0.1567888737
H   H450      1.0  0.28970  0.78770  0.32800  1.0000 0.1499769435
H   H451      1.0  0.64440  0.53810  0.20950  1.0000 0.1413069922
H   H452      1.0  0.68420  0.57260  0.18840  1.0000 0.1413069922
H   H453      1.0  0.66080  0.58280  0.20080  1.0000 0.1499769435
H   H454      1.0  0.86960  0.75030  0.30190  1.0000 0.1499769435
H   H455      1.0  0.88280  0.75110  0.27030  1.0000 0.1567888737
H   H456      1.0  0.86860  0.71540  0.29060  1.0000 0.1499769435
H   H457      1.0  0.87820  0.76810  0.37790  1.0000 0.1413069922
H   H458      1.0  0.91000  0.81600  0.40700  1.0000 0.1499769435
H   H459      1.0  0.89920  0.81720  0.37320  1.0000 0.1499769435
H   H460      1.0  0.69260  0.69050  0.40070  1.0000 0.1413069922
H   H461      1.0  0.74330  0.75450  0.41600  1.0000 0.1567888737
H   H462      1.0  0.73130  0.71820  0.43430  1.0000 0.1499769435
H   H463      1.0  0.57610  0.59100  0.35490  1.0000 0.1340587646
H   H464      1.0  0.51150  0.53480  0.34190  1.0000 0.1499769435
H   H465      1.0  0.54380  0.58670  0.33150  1.0000 0.1499769435
H   H466      1.0  0.55370  0.50760  0.22770  1.0000 0.1340587646
H   H467      1.0  0.50580  0.49100  0.22040  1.0000 0.1499769435
H   H468      1.0  0.49580  0.45160  0.23180  1.0000 0.1413069922
H   H469      1.0  0.79330  0.72010  0.16940  1.0000 0.1413069922
H   H470      1.0  0.73540  0.65610  0.16290  1.0000 0.1413069922
H   H471      1.0  0.76550  0.69590  0.19640  1.0000 0.1499769435
H   H472      1.0  0.84520  0.63890  0.21230  1.0000 0.1413069922
H   H473      1.0  0.88630  0.69430  0.23800  1.0000 0.1499769435
H   H474      1.0  0.82530  0.63930  0.23920  1.0000 0.1413069922
H   H475      1.0  0.96280  0.71490  0.20690  1.0000 0.1413069922
H   H476      1.0  0.95730  0.67950  0.18660  1.0000 0.1499769435
H   H477      1.0  0.01370  0.73590  0.21140  1.0000 0.1567888737
H   H478      1.0  0.05650  0.81810  0.10100  1.0000 0.1413069922
H   H479      1.0  0.10290  0.86890  0.13080  1.0000 0.1499769435
H   H480      1.0  0.09950  0.83180  0.11970  1.0000 0.1499769435
H   H481      1.0  0.03860  0.88190  0.09250  1.0000 0.1499769435
H   H482      1.0  0.00600  0.85660  0.05720  1.0000 0.1413069922
H   H483      1.0  0.03960  0.91250  0.07670  1.0000 0.1567888737
H   H484      1.0  0.82080  0.75630  0.09530  1.0000 0.1499769435
H   H485      1.0  0.86350  0.81520  0.11710  1.0000 0.1499769435
H   H486      1.0  0.84760  0.80290  0.08070  1.0000 0.1499769435
H   H487      1.0  0.42520  0.00920  0.30200  1.0000 0.1413069922
H   H488      1.0  0.47050  0.07190  0.31640  1.0000 0.1413069922
H   H489      1.0  0.42390  0.02790  0.33240  1.0000 0.1499769435
H   H490      1.0  0.32670  0.03480  0.23830  1.0000 0.1413069922
H   H491      1.0  0.32030  0.04190  0.27100  1.0000 0.1567888737
H   H492      1.0  0.37770  0.09180  0.26410  1.0000 0.1499769435
H   H493      1.0  0.18990  0.92350  0.21800  1.0000 0.1413069922
H   H494      1.0  0.19060  0.92170  0.18290  1.0000 0.1413069922
H   H495      1.0  0.13940  0.89270  0.19230  1.0000 0.1499769435
H   H496      1.0  0.06120  0.70200  0.16260  1.0000 0.1499769435
H   H497      1.0  0.02800  0.68980  0.18440  1.0000 0.1499769435
H   H498      1.0  0.01870  0.69180  0.15050  1.0000 0.1413069922
H   H499      1.0  0.10760  0.68130  0.21330  1.0000 0.1413069922
H   H500      1.0  0.12320  0.66030  0.21030  1.0000 0.1413069922
H   H501      1.0  0.10730  0.66080  0.24010  1.0000 0.1567888737
H   H502      1.0  0.35190  0.88410  0.27900  1.0000 0.1413069922
H   H503      1.0  0.32970  0.86550  0.30840  1.0000 0.1499769435
H   H504      1.0  0.33300  0.83810  0.28830  1.0000 0.1413069922
H   H505      1.0  0.45070  0.20480  0.42070  1.0000 0.1413069922
H   H506      1.0  0.44920  0.21210  0.45510  1.0000 0.1499769435
H   H507      1.0  0.44560  0.17530  0.44190  1.0000 0.1499769435
H   H508      1.0  0.68740  0.38220  0.49520  1.0000 0.1499769435
H   H509      1.0  0.65770  0.36430  0.52140  1.0000 0.1567888737
H   H510      1.0  0.67640  0.40630  0.50570  1.0000 0.1499769435
H   H511      1.0  0.78160  0.45540  0.45640  1.0000 0.1413069922
H   H512      1.0  0.82770  0.46930  0.46240  1.0000 0.1499769435
H   H513      1.0  0.77380  0.42020  0.47260  1.0000 0.1413069922
H   H514      1.0  0.69880  0.29540  0.34480  1.0000 0.1413069922
H   H515      1.0  0.75470  0.32820  0.36350  1.0000 0.1499769435
H   H516      1.0  0.75520  0.35460  0.34220  1.0000 0.1413069922
H   H517      1.0  0.56100  0.19820  0.28420  1.0000 0.1413069922
H   H518      1.0  0.50670  0.13340  0.27390  1.0000 0.1413069922
H   H519      1.0  0.55350  0.16580  0.30390  1.0000 0.1499769435
H   H520      1.0  0.41900  0.13630  0.36190  1.0000 0.1413069922
H   H521      1.0  0.37810  0.08090  0.33620  1.0000 0.1567888737
H   H522      1.0  0.39440  0.12590  0.32810  1.0000 0.1499769435
H   H523      1.0  0.99780  0.97960  0.11920  1.0000 0.1413069922
H   H524      1.0  0.97830  0.93260  0.12690  1.0000 0.1567888737
H   H525      1.0  0.93450  0.91930  0.11120  1.0000 0.1499769435
H   H526      1.0  0.94100  0.85980  0.99380  1.0000 0.1413069922
H   H527      1.0  0.92480  0.82430  0.01530  1.0000 0.1413069922
H   H528      1.0  0.98640  0.87780  0.01440  1.0000 0.1567888737
H   H529      1.0  0.04370  0.95030  0.96060  1.0000 0.1499769435
H   H530      1.0  0.07320  0.97020  0.93400  1.0000 0.1567888737
H   H531      1.0  0.01630  0.93920  0.92770  1.0000 0.1499769435
H   H532      1.0  0.15860  0.16530  0.96770  1.0000 0.1413069922
H   H533      1.0  0.17610  0.16090  0.94100  1.0000 0.1413069922
H   H534      1.0  0.20770  0.18370  0.97600  1.0000 0.1567888737
H   H535      1.0  0.17940  0.22310  0.03570  1.0000 0.1413069922
H   H536      1.0  0.21720  0.26910  0.06770  1.0000 0.1499769435
H   H537      1.0  0.16630  0.24420  0.04890  1.0000 0.1499769435
H   H538      1.0  0.05060  0.08730  0.12550  1.0000 0.1340587646
H   H539      1.0  0.08470  0.14420  0.14330  1.0000 0.1499769435
H   H540      1.0  0.11230  0.13560  0.14530  1.0000 0.1499769435
H   H541      1.0  0.60480  0.53470  0.11270  1.0000 0.1340587646
H   H542      1.0  0.60090  0.49640  0.11130  1.0000 0.1499769435
H   H543      1.0  0.57010  0.49080  0.13150  1.0000 0.1499769435
H   H544      1.0  0.38690  0.32830  0.01340  1.0000 0.1413069922
H   H545      1.0  0.37460  0.30610  0.04270  1.0000 0.1567888737
H   H546      1.0  0.40390  0.30980  0.02230  1.0000 0.1413069922
H   H547      1.0  0.82350  0.36550  0.99980  1.0000 0.1499769435
H   H548      1.0  0.80090  0.34660  0.02910  1.0000 0.1499769435
H   H549      1.0  0.81330  0.32650  0.01220  1.0000 0.1499769435
H   H550      1.0  0.03020  0.53120  0.10700  1.0000 0.1413069922
H   H551      1.0  0.98470  0.50390  0.12320  1.0000 0.1567888737
H   H552      1.0  0.01090  0.54860  0.10670  1.0000 0.1499769435
H   H553      1.0  0.55740  0.65250  0.03230  1.0000 0.1413069922
H   H554      1.0  0.61180  0.71360  0.05380  1.0000 0.1499769435
H   H555      1.0  0.55860  0.66900  0.06540  1.0000 0.1499769435
H   H556      1.0  0.65020  0.63280  0.11720  1.0000 0.1413069922
H   H557      1.0  0.67910  0.68540  0.13790  1.0000 0.1567888737
H   H558      1.0  0.70390  0.69080  0.11210  1.0000 0.1499769435
H   H559      1.0  0.60610  0.09190  0.32340  1.0000 0.1499769435
H   H560      1.0  0.58480  0.07780  0.35320  1.0000 0.1567888737
H   H561      1.0  0.55090  0.03000  0.32330  1.0000 0.1413069922
H   H562      1.0  0.67130  0.03000  0.38290  1.0000 0.1413069922
H   H563      1.0  0.65430  0.03580  0.40930  1.0000 0.1413069922
H   H564      1.0  0.71430  0.08830  0.40600  1.0000 0.1499769435
H   H565      1.0  0.61150  0.73960  0.31710  1.0000 0.1413069922
H   H566      1.0  0.65620  0.77060  0.29920  1.0000 0.1499769435
H   H567      1.0  0.60140  0.74100  0.28320  1.0000 0.1413069922
H   H568      1.0  0.74170  0.96430  0.34680  1.0000 0.1413069922
H   H569      1.0  0.73720  0.95390  0.31110  1.0000 0.1499769435
H   H570      1.0  0.78170  0.97460  0.33630  1.0000 0.1499769435
H   H571      1.0  0.83790  0.24760  0.24150  1.0000 0.1413069922
H   H572      1.0  0.82980  0.26960  0.22320  1.0000 0.1499769435
H   H573      1.0  0.80040  0.21480  0.20680  1.0000 0.1499769435
H   H574      1.0  0.61810  0.11020  0.25390  1.0000 0.1413069922
H   H575      1.0  0.63560  0.14890  0.23490  1.0000 0.1499769435
H   H576      1.0  0.66010  0.17090  0.27140  1.0000 0.1499769435
H   H577      1.0  0.32640  0.00380  0.88920  1.0000 0.1413069922
H   H578      1.0  0.32760  0.96990  0.88290  1.0000 0.1499769435
H   H579      1.0  0.34510  0.00510  0.86060  1.0000 0.1567888737
H   H580      1.0  0.10810  0.78950  0.79400  1.0000 0.1413069922
H   H581      1.0  0.13310  0.83400  0.77770  1.0000 0.1499769435
H   H582      1.0  0.15090  0.81520  0.77570  1.0000 0.1413069922
H   H583      1.0  0.26520  0.96630  0.75130  1.0000 0.1499769435
H   H584      1.0  0.20860  0.90240  0.74620  1.0000 0.1499769435
H   H585      1.0  0.23490  0.94400  0.77750  1.0000 0.1567888737
H   H586      1.0  0.32450  0.90120  0.81490  1.0000 0.1413069922
H   H587      1.0  0.35910  0.95430  0.84020  1.0000 0.1567888737
H   H588      1.0  0.29640  0.89670  0.83730  1.0000 0.1499769435
H   H589      1.0  0.14100  0.94690  0.97630  1.0000 0.1413069922
H   H590      1.0  0.17850  0.97550  0.01040  1.0000 0.1413069922
H   H591      1.0  0.19120  0.01090  0.99070  1.0000 0.1499769435
H   H592      1.0  0.32890  0.03030  0.95180  1.0000 0.1340587646
H   H593      1.0  0.35770  0.08580  0.96210  1.0000 0.1567888737
H   H594      1.0  0.35330  0.06090  0.98740  1.0000 0.1499769435
H   H595      1.0  0.62480  0.21980  0.70980  1.0000 0.1499769435
H   H596      1.0  0.67520  0.24960  0.73480  1.0000 0.1499769435
H   H597      1.0  0.62590  0.22350  0.74520  1.0000 0.1499769435
H   H598      1.0  0.77330  0.45130  0.76700  1.0000 0.1499769435
H   H599      1.0  0.71370  0.41510  0.75920  1.0000 0.1499769435
H   H600      1.0  0.73680  0.41800  0.78980  1.0000 0.1499769435
H   H601      1.0  0.59940  0.31600  0.79140  1.0000 0.1413069922
H   H602      1.0  0.62460  0.32660  0.76400  1.0000 0.1499769435
H   H603      1.0  0.56620  0.26590  0.76370  1.0000 0.1567888737
H   H604      1.0  0.72300  0.30940  0.83660  1.0000 0.1413069922
H   H605      1.0  0.68670  0.26350  0.80480  1.0000 0.1567888737
H   H606      1.0  0.73800  0.32590  0.80550  1.0000 0.1413069922
H   H607      1.0  0.70160  0.31900  0.55080  1.0000 0.1413069922
H   H608      1.0  0.73640  0.31870  0.55130  1.0000 0.1499769435
H   H609      1.0  0.67400  0.26660  0.53160  1.0000 0.1499769435
H   H610      1.0  0.64500  0.20160  0.64740  1.0000 0.1413069922
H   H611      1.0  0.58840  0.16720  0.62860  1.0000 0.1499769435
H   H612      1.0  0.61160  0.15710  0.61550  1.0000 0.1413069922
H   H613      1.0  0.79890  0.83800  0.10950  1.0000 0.1413069922
H   H614      1.0  0.74970  0.77530  0.09160  1.0000 0.1499769435
H   H615      1.0  0.78520  0.79890  0.12530  1.0000 0.1499769435
H   H616      1.0  0.60860  0.72380  0.15840  1.0000 0.1499769435
H   H617      1.0  0.58050  0.68080  0.12710  1.0000 0.1499769435
H   H618      1.0  0.60010  0.73010  0.12620  1.0000 0.1499769435
H   H619      1.0  0.64550  0.81310  0.21580  1.0000 0.1413069922
H   H620      1.0  0.62970  0.81160  0.24630  1.0000 0.1499769435
H   H621      1.0  0.62340  0.77210  0.23450  1.0000 0.1499769435
H   H622      1.0  0.84930  0.95550  0.31920  1.0000 0.1413069922
H   H623      1.0  0.80900  0.93550  0.33770  1.0000 0.1499769435
H   H624      1.0  0.84330  0.98530  0.32380  1.0000 0.1413069922
H   H625      1.0  0.94860  0.99270  0.30070  1.0000 0.1413069922
H   H626      1.0  0.00340  0.02210  0.29930  1.0000 0.1499769435
H   H627      1.0  0.95160  0.96020  0.30000  1.0000 0.1499769435
H   H628      1.0  0.89490  0.90740  0.16330  1.0000 0.1413069922
H   H629      1.0  0.92820  0.90770  0.17830  1.0000 0.1567888737
H   H630      1.0  0.95970  0.96170  0.17200  1.0000 0.1499769435
H   H631      1.0  0.82860  0.43490  0.29050  1.0000 0.1413069922
H   H632      1.0  0.88420  0.49580  0.31160  1.0000 0.1413069922
H   H633      1.0  0.88200  0.46000  0.29920  1.0000 0.1499769435
H   H634      1.0  0.94840  0.56770  0.19810  1.0000 0.1499769435
H   H635      1.0  0.98080  0.61250  0.22970  1.0000 0.1567888737
H   H636      1.0  0.92480  0.57800  0.20940  1.0000 0.1499769435
H   H637      1.0  0.89020  0.50030  0.12210  1.0000 0.1413069922
H   H638      1.0  0.90900  0.50300  0.09300  1.0000 0.1499769435
H   H639      1.0  0.94400  0.52600  0.12680  1.0000 0.1499769435
H   H640      1.0  0.78980  0.29190  0.09930  1.0000 0.1413069922
H   H641      1.0  0.83850  0.32730  0.08400  1.0000 0.1567888737
H   H642      1.0  0.78390  0.29700  0.06570  1.0000 0.1499769435
H   H643      1.0  0.73610  0.22120  0.14510  1.0000 0.1340587646
H   H644      1.0  0.69290  0.16960  0.15810  1.0000 0.1567888737
H   H645      1.0  0.75520  0.21230  0.16850  1.0000 0.1499769435
H   H646      1.0  0.77990  0.32600  0.27230  1.0000 0.1413069922
H   H647      1.0  0.77060  0.28540  0.27960  1.0000 0.1499769435
H   H648      1.0  0.71980  0.26400  0.26820  1.0000 0.1413069922
H   H649      1.0  0.05070  0.62390  0.33060  1.0000 0.1413069922
H   H650      1.0  0.99320  0.57250  0.33710  1.0000 0.1499769435
H   H651      1.0  0.99950  0.56910  0.30360  1.0000 0.1499769435
H   H652      1.0  0.92660  0.63290  0.28770  1.0000 0.1413069922
H   H653      1.0  0.95630  0.64830  0.26200  1.0000 0.1499769435
H   H654      1.0  0.90010  0.58610  0.26080  1.0000 0.1413069922
H   H655      1.0  0.00800  0.75590  0.29310  1.0000 0.1413069922
H   H656      1.0  0.99290  0.77070  0.31340  1.0000 0.1499769435
H   H657      1.0  0.02450  0.80230  0.28860  1.0000 0.1567888737
H   H658      1.0  0.21710  0.95550  0.39900  1.0000 0.1413069922
H   H659      1.0  0.23810  0.97210  0.36920  1.0000 0.1499769435
H   H660      1.0  0.21210  0.97980  0.38030  1.0000 0.1499769435
H   H661      1.0  0.28940  0.94610  0.40750  1.0000 0.1499769435
H   H662      1.0  0.29940  0.94880  0.44280  1.0000 0.1413069922
H   H663      1.0  0.33580  0.96290  0.42330  1.0000 0.1567888737
H   H664      1.0  0.16100  0.72550  0.40470  1.0000 0.1499769435
H   H665      1.0  0.19810  0.74640  0.38290  1.0000 0.1499769435
H   H666      1.0  0.22220  0.76690  0.41930  1.0000 0.1499769435
H   H667      1.0  0.20720  0.12320  0.19800  1.0000 0.1413069922
H   H668      1.0  0.25550  0.15410  0.18360  1.0000 0.1413069922
H   H669      1.0  0.19550  0.09150  0.16760  1.0000 0.1499769435
H   H670      1.0  0.29650  0.08840  0.26170  1.0000 0.1413069922
H   H671      1.0  0.27090  0.04930  0.22900  1.0000 0.1567888737
H   H672      1.0  0.32770  0.11360  0.23590  1.0000 0.1499769435
H   H673      1.0  0.20550  0.97190  0.28200  1.0000 0.1413069922
H   H674      1.0  0.23880  0.00770  0.31710  1.0000 0.1413069922
H   H675      1.0  0.20040  0.94710  0.30770  1.0000 0.1499769435
H   H676      1.0  0.03940  0.89860  0.33740  1.0000 0.1499769435
H   H677      1.0  0.00540  0.84360  0.31560  1.0000 0.1499769435
H   H678      1.0  0.04130  0.86820  0.34950  1.0000 0.1499769435
H   H679      1.0  0.96800  0.89430  0.28670  1.0000 0.1413069922
H   H680      1.0  0.95000  0.91290  0.28970  1.0000 0.1413069922
H   H681      1.0  0.92070  0.86720  0.25990  1.0000 0.1567888737
H   H682      1.0  0.10510  0.07290  0.22100  1.0000 0.1413069922
H   H683      1.0  0.05710  0.02130  0.19160  1.0000 0.1499769435
H   H684      1.0  0.04980  0.04470  0.21170  1.0000 0.1413069922
H   H685      1.0  0.28410  0.03000  0.07930  1.0000 0.1413069922
H   H686      1.0  0.25700  0.99410  0.04490  1.0000 0.1499769435
H   H687      1.0  0.23340  0.00370  0.05810  1.0000 0.1499769435
H   H688      1.0  0.38700  0.19220  0.00480  1.0000 0.1499769435
H   H689      1.0  0.34290  0.13630  0.97860  1.0000 0.1567888737
H   H690      1.0  0.40060  0.17070  0.99430  1.0000 0.1499769435
H   H691      1.0  0.49900  0.32520  0.04360  1.0000 0.1413069922
H   H692      1.0  0.50690  0.36530  0.03760  1.0000 0.1499769435
H   H693      1.0  0.44760  0.30120  0.02740  1.0000 0.1413069922
H   H694      1.0  0.45060  0.35400  0.15520  1.0000 0.1413069922
H   H695      1.0  0.46470  0.39120  0.13650  1.0000 0.1499769435
H   H696      1.0  0.51240  0.41300  0.15780  1.0000 0.1413069922
H   H697      1.0  0.41400  0.27680  0.21580  1.0000 0.1413069922
H   H698      1.0  0.35950  0.23280  0.22610  1.0000 0.1413069922
H   H699      1.0  0.36190  0.24960  0.19610  1.0000 0.1499769435
H   H700      1.0  0.27440  0.05710  0.13810  1.0000 0.1413069922
H   H701      1.0  0.24470  0.04190  0.16380  1.0000 0.1567888737
H   H702      1.0  0.29780  0.06630  0.17190  1.0000 0.1499769435
H   H703      1.0  0.36040  0.87860  0.38080  1.0000 0.1413069922
H   H704      1.0  0.30570  0.85140  0.37310  1.0000 0.1567888737
H   H705      1.0  0.30810  0.82330  0.38880  1.0000 0.1499769435
H   H706      1.0  0.36600  0.94720  0.50620  1.0000 0.1413069922
H   H707      1.0  0.30900  0.90950  0.48470  1.0000 0.1413069922
H   H708      1.0  0.36340  0.97200  0.48560  1.0000 0.1567888737
H   H709      1.0  0.48970  0.08310  0.53940  1.0000 0.1499769435
H   H710      1.0  0.53620  0.13920  0.56600  1.0000 0.1567888737
H   H711      1.0  0.51150  0.08860  0.57230  1.0000 0.1499769435
H   H712      1.0  0.69760  0.19090  0.53230  1.0000 0.1413069922
H   H713      1.0  0.71990  0.23510  0.55900  1.0000 0.1413069922
H   H714      1.0  0.70770  0.23170  0.52400  1.0000 0.1567888737
H   H715      1.0  0.68740  0.14370  0.46430  1.0000 0.1413069922
H   H716      1.0  0.70140  0.14950  0.43230  1.0000 0.1499769435
H   H717      1.0  0.69530  0.11740  0.45110  1.0000 0.1499769435
H   H718      1.0  0.46180  0.92510  0.37450  1.0000 0.1340587646
H   H719      1.0  0.50090  0.94140  0.35670  1.0000 0.1499769435
H   H720      1.0  0.49030  0.96700  0.35470  1.0000 0.1499769435
H   H721      1.0  0.96530  0.57800  0.07010  1.0000 0.1340587646
H   H722      1.0  0.00360  0.61490  0.10450  1.0000 0.1499769435
H   H723      1.0  0.00920  0.64070  0.07930  1.0000 0.1499769435
H   H724      1.0  0.17170  0.68510  0.05860  1.0000 0.1413069922
H   H725      1.0  0.19390  0.73660  0.06850  1.0000 0.1567888737
H   H726      1.0  0.19020  0.71250  0.09410  1.0000 0.1413069922
H   H727      1.0  0.13450  0.63430  0.45800  1.0000 0.1499769435
H   H728      1.0  0.15340  0.68250  0.45430  1.0000 0.1499769435
H   H729      1.0  0.17350  0.68570  0.48680  1.0000 0.1499769435
H   H730      1.0  0.96880  0.57580  0.49900  1.0000 0.1413069922
H   H731      1.0  0.99610  0.61930  0.48080  1.0000 0.1499769435
H   H732      1.0  0.95140  0.55810  0.46230  1.0000 0.1499769435
H   H733      1.0  0.84750  0.37980  0.90490  1.0000 0.1413069922
H   H734      1.0  0.78640  0.34020  0.89820  1.0000 0.1499769435
H   H735      1.0  0.83100  0.39640  0.88960  1.0000 0.1499769435
H   H736      1.0  0.86720  0.48440  0.01740  1.0000 0.1413069922
H   H737      1.0  0.81460  0.45250  0.99370  1.0000 0.1567888737
H   H738      1.0  0.80920  0.42130  0.01310  1.0000 0.1499769435
H   H739      1.0  0.40810  0.23150  0.51420  1.0000 0.1499769435
H   H740      1.0  0.42220  0.27540  0.50700  1.0000 0.1567888737
H   H741      1.0  0.47000  0.29330  0.52090  1.0000 0.1499769435
H   H742      1.0  0.47000  0.35290  0.64130  1.0000 0.1413069922
H   H743      1.0  0.46420  0.37350  0.61850  1.0000 0.1413069922
H   H744      1.0  0.41170  0.31770  0.62600  1.0000 0.1499769435
H   H745      1.0  0.76040  0.57750  0.87190  1.0000 0.1413069922
H   H746      1.0  0.72940  0.52860  0.88560  1.0000 0.1499769435
H   H747      1.0  0.75900  0.54220  0.86040  1.0000 0.1413069922
H   H748      1.0  0.53570  0.38250  0.77740  1.0000 0.1413069922
H   H749      1.0  0.54610  0.35720  0.78330  1.0000 0.1499769435
H   H750      1.0  0.52540  0.36170  0.80710  1.0000 0.1499769435
H   H751      1.0  0.25240  0.99390  0.59030  1.0000 0.1413069922
H   H752      1.0  0.23040  0.95360  0.56020  1.0000 0.1499769435
H   H753      1.0  0.28520  0.99200  0.58560  1.0000 0.1499769435
H   H754      1.0  0.38980  0.14370  0.50790  1.0000 0.1413069922
H   H755      1.0  0.35110  0.08600  0.48670  1.0000 0.1499769435
H   H756      1.0  0.32910  0.10050  0.48920  1.0000 0.1499769435
H   H757      1.0  0.49620  0.88540  0.32260  1.0000 0.1413069922
H   H758      1.0  0.53010  0.91300  0.35770  1.0000 0.1499769435
H   H759      1.0  0.49490  0.85550  0.34000  1.0000 0.1567888737
H   H760      1.0  0.71050  0.00450  0.31860  1.0000 0.1413069922
H   H761      1.0  0.66600  0.94370  0.29910  1.0000 0.1499769435
H   H762      1.0  0.68480  0.96050  0.33570  1.0000 0.1413069922
H   H763      1.0  0.53370  0.78500  0.29890  1.0000 0.1499769435
H   H764      1.0  0.59760  0.84380  0.30620  1.0000 0.1499769435
H   H765      1.0  0.55600  0.83350  0.29090  1.0000 0.1567888737
H   H766      1.0  0.59880  0.91370  0.42330  1.0000 0.1413069922
H   H767      1.0  0.54570  0.88590  0.40480  1.0000 0.1567888737
H   H768      1.0  0.60330  0.94060  0.39970  1.0000 0.1499769435
H   H769      1.0  0.55310  0.02940  0.19410  1.0000 0.1413069922
H   H770      1.0  0.52450  0.03490  0.20300  1.0000 0.1413069922
H   H771      1.0  0.48910  0.97980  0.18030  1.0000 0.1499769435
H   H772      1.0  0.46970  0.92150  0.29860  1.0000 0.1340587646
H   H773      1.0  0.41420  0.87630  0.27190  1.0000 0.1567888737
H   H774      1.0  0.43910  0.92650  0.29240  1.0000 0.1499769435
H   H775      1.0  0.28020  0.49000  0.40500  1.0000 0.1499769435
H   H776      1.0  0.25040  0.48520  0.42560  1.0000 0.1499769435
H   H777      1.0  0.27650  0.52170  0.40240  1.0000 0.1499769435
H   H778      1.0  0.04870  0.31570  0.32200  1.0000 0.1499769435
H   H779      1.0  0.08490  0.34410  0.29860  1.0000 0.1499769435
H   H780      1.0  0.08200  0.37180  0.31880  1.0000 0.1499769435
H   H781      1.0  0.18400  0.47540  0.28340  1.0000 0.1413069922
H   H782      1.0  0.17340  0.43740  0.29800  1.0000 0.1499769435
H   H783      1.0  0.23410  0.49780  0.30030  1.0000 0.1567888737
H   H784      1.0  0.19060  0.52720  0.41360  1.0000 0.1413069922
H   H785      1.0  0.23650  0.54130  0.42320  1.0000 0.1567888737
H   H786      1.0  0.17410  0.47960  0.41210  1.0000 0.1413069922
H   H787      1.0  0.18100  0.23180  0.38260  1.0000 0.1413069922
H   H788      1.0  0.18130  0.23260  0.41770  1.0000 0.1499769435
H   H789      1.0  0.23340  0.26500  0.40740  1.0000 0.1499769435
H   H790      1.0  0.29840  0.44580  0.44340  1.0000 0.1413069922
H   H791      1.0  0.33280  0.46140  0.42120  1.0000 0.1499769435
H   H792      1.0  0.34290  0.45840  0.45450  1.0000 0.1413069922
H   H793      1.0  0.66200  0.27150  0.96090  1.0000 0.1413069922
H   H794      1.0  0.72470  0.31630  0.97440  1.0000 0.1499769435
H   H795      1.0  0.70110  0.32640  0.98630  1.0000 0.1499769435
H   H796      1.0  0.77620  0.43460  0.88480  1.0000 0.1499769435
H   H797      1.0  0.81920  0.44630  0.89970  1.0000 0.1499769435
H   H798      1.0  0.76990  0.39610  0.87000  1.0000 0.1499769435
H   H799      1.0  0.68690  0.40270  0.83240  1.0000 0.1413069922
H   H800      1.0  0.68840  0.43470  0.81810  1.0000 0.1499769435
H   H801      1.0  0.72790  0.46240  0.85130  1.0000 0.1499769435
H   H802      1.0  0.54450  0.36370  0.89380  1.0000 0.1413069922
H   H803      1.0  0.56450  0.40220  0.87350  1.0000 0.1499769435
H   H804      1.0  0.51470  0.33850  0.85800  1.0000 0.1413069922
H   H805      1.0  0.50730  0.30800  0.95590  1.0000 0.1413069922
H   H806      1.0  0.47790  0.27720  0.98130  1.0000 0.1499769435
H   H807      1.0  0.53980  0.33980  0.99140  1.0000 0.1499769435
H   H808      1.0  0.59260  0.25590  0.98750  1.0000 0.1413069922
H   H809      1.0  0.59230  0.27060  0.02050  1.0000 0.1567888737
H   H810      1.0  0.53830  0.21030  0.99800  1.0000 0.1499769435
H   H811      1.0  0.06510  0.85560  0.39370  1.0000 0.1413069922
H   H812      1.0  0.00420  0.81580  0.38840  1.0000 0.1413069922
H   H813      1.0  0.04000  0.83920  0.42200  1.0000 0.1499769435
H   H814      1.0  0.93230  0.63040  0.38070  1.0000 0.1499769435
H   H815      1.0  0.88750  0.61720  0.36830  1.0000 0.1567888737
H   H816      1.0  0.92200  0.63140  0.34680  1.0000 0.1499769435
H   H817      1.0  0.99970  0.62180  0.38990  1.0000 0.1413069922
H   H818      1.0  0.99700  0.59000  0.40600  1.0000 0.1499769435
H   H819      1.0  0.97400  0.60080  0.41800  1.0000 0.1499769435
H   H820      1.0  0.20810  0.80740  0.49790  1.0000 0.1413069922
H   H821      1.0  0.17270  0.75670  0.51120  1.0000 0.1567888737
H   H822      1.0  0.20300  0.76870  0.48690  1.0000 0.1499769435
H   H823      1.0  0.27880  0.92390  0.51490  1.0000 0.1340587646
H   H824      1.0  0.33040  0.98850  0.52330  1.0000 0.1567888737
H   H825      1.0  0.28770  0.95620  0.54290  1.0000 0.1499769435
H   H826      1.0  0.17400  0.94630  0.45390  1.0000 0.1413069922
H   H827      1.0  0.21460  0.99420  0.48520  1.0000 0.1499769435
H   H828      1.0  0.23600  0.00420  0.45580  1.0000 0.1413069922
H   H829      1.0  0.87610  0.70670  0.42680  1.0000 0.1413069922
H   H830      1.0  0.92750  0.76460  0.42070  1.0000 0.1413069922
H   H831      1.0  0.93090  0.73450  0.43040  1.0000 0.1499769435
H   H832      1.0  0.86710  0.65480  0.29370  1.0000 0.1413069922
H   H833      1.0  0.85170  0.61370  0.30800  1.0000 0.1499769435
H   H834      1.0  0.91390  0.67470  0.31400  1.0000 0.1413069922
H   H835      1.0  0.74410  0.53720  0.25210  1.0000 0.1413069922
H   H836      1.0  0.72930  0.54270  0.22220  1.0000 0.1499769435
H   H837      1.0  0.69770  0.48630  0.22220  1.0000 0.1567888737
H   H838      1.0  0.54450  0.44350  0.26160  1.0000 0.1413069922
H   H839      1.0  0.52790  0.39710  0.26600  1.0000 0.1499769435
H   H840      1.0  0.52020  0.40050  0.23230  1.0000 0.1499769435
H   H841      1.0  0.55390  0.46140  0.34330  1.0000 0.1499769435
H   H842      1.0  0.55120  0.49400  0.35060  1.0000 0.1413069922
H   H843      1.0  0.53710  0.46040  0.37290  1.0000 0.1567888737
H   H844      1.0  0.77450  0.67920  0.43550  1.0000 0.1499769435
H   H845      1.0  0.75360  0.63650  0.45170  1.0000 0.1499769435
H   H846      1.0  0.73310  0.65240  0.45530  1.0000 0.1499769435
H   H847      1.0  0.37680  0.07480  0.08400  1.0000 0.1413069922
H   H848      1.0  0.34590  0.02950  0.10140  1.0000 0.1413069922
H   H849      1.0  0.40850  0.07610  0.10400  1.0000 0.1499769435
H   H850      1.0  0.41160  0.17330  0.20810  1.0000 0.1413069922
H   H851      1.0  0.45070  0.17970  0.22160  1.0000 0.1567888737
H   H852      1.0  0.38640  0.12230  0.21410  1.0000 0.1499769435
H   H853      1.0  0.52810  0.31010  0.23360  1.0000 0.1413069922
H   H854      1.0  0.49230  0.30940  0.23110  1.0000 0.1413069922
H   H855      1.0  0.55290  0.36060  0.25330  1.0000 0.1499769435
H   H856      1.0  0.60140  0.43880  0.14080  1.0000 0.1413069922
H   H857      1.0  0.65640  0.47200  0.16180  1.0000 0.1499769435
H   H858      1.0  0.63180  0.48130  0.17310  1.0000 0.1413069922
H   H859      1.0  0.60570  0.39240  0.07370  1.0000 0.1413069922
H   H860      1.0  0.58710  0.37680  0.03710  1.0000 0.1413069922
H   H861      1.0  0.63280  0.39270  0.05350  1.0000 0.1567888737
H   H862      1.0  0.42710  0.14810  0.03220  1.0000 0.1413069922
H   H863      1.0  0.47870  0.17030  0.03580  1.0000 0.1499769435
H   H864      1.0  0.45530  0.16700  0.00510  1.0000 0.1413069922
H   H865      1.0  0.47000  0.04930  0.25410  1.0000 0.1413069922
H   H866      1.0  0.50590  0.05080  0.26290  1.0000 0.1499769435
H   H867      1.0  0.49630  0.05440  0.22970  1.0000 0.1499769435
H   H868      1.0  0.30780  0.81260  0.19480  1.0000 0.1499769435
H   H869      1.0  0.36370  0.84230  0.20660  1.0000 0.1567888737
H   H870      1.0  0.32930  0.82360  0.22990  1.0000 0.1499769435
H   H871      1.0  0.17480  0.71840  0.17380  1.0000 0.1413069922
H   H872      1.0  0.13470  0.67230  0.14160  1.0000 0.1499769435
H   H873      1.0  0.19880  0.72620  0.14640  1.0000 0.1413069922
H   H874      1.0  0.14600  0.80120  0.09660  1.0000 0.1413069922
H   H875      1.0  0.10880  0.74530  0.07350  1.0000 0.1499769435
H   H876      1.0  0.08700  0.74480  0.09940  1.0000 0.1413069922
H   H877      1.0  0.22320  0.93900  0.13720  1.0000 0.1413069922
H   H878      1.0  0.26720  0.99330  0.12670  1.0000 0.1413069922
H   H879      1.0  0.25040  0.94650  0.11230  1.0000 0.1499769435
H   H880      1.0  0.44290  0.08100  0.21730  1.0000 0.1413069922
H   H881      1.0  0.45810  0.12190  0.20280  1.0000 0.1567888737
H   H882      1.0  0.43370  0.10560  0.23150  1.0000 0.1499769435
H   H883      1.0  0.62140  0.50220  0.48180  1.0000 0.1413069922
H   H884      1.0  0.64860  0.52170  0.45430  1.0000 0.1567888737
H   H885      1.0  0.67670  0.56550  0.48480  1.0000 0.1499769435
H   H886      1.0  0.55280  0.55900  0.41880  1.0000 0.1413069922
H   H887      1.0  0.59050  0.57520  0.39950  1.0000 0.1413069922
H   H888      1.0  0.52800  0.51360  0.39140  1.0000 0.1567888737
H   H889      1.0  0.41690  0.45630  0.40660  1.0000 0.1499769435
H   H890      1.0  0.36080  0.42680  0.39700  1.0000 0.1567888737
H   H891      1.0  0.41140  0.48370  0.42290  1.0000 0.1499769435
H   H892      1.0  0.30910  0.34140  0.50670  1.0000 0.1413069922
H   H893      1.0  0.26490  0.32390  0.48480  1.0000 0.1413069922
H   H894      1.0  0.26830  0.29230  0.47600  1.0000 0.1567888737
H   H895      1.0  0.35630  0.32060  0.54370  1.0000 0.1413069922
H   H896      1.0  0.35050  0.28280  0.55190  1.0000 0.1499769435
H   H897      1.0  0.38260  0.33370  0.57790  1.0000 0.1499769435
H   H898      1.0  0.57490  0.44940  0.53670  1.0000 0.1340587646
H   H899      1.0  0.55860  0.41530  0.55950  1.0000 0.1499769435
H   H900      1.0  0.53300  0.38770  0.52330  1.0000 0.1499769435
H   H901      1.0  0.00790  0.89520  0.42990  1.0000 0.1340587646
H   H902      1.0  0.01040  0.89910  0.39550  1.0000 0.1499769435
H   H903      1.0  0.06140  0.92990  0.42070  1.0000 0.1499769435
H   H904      1.0  0.12650  0.11310  0.44140  1.0000 0.1413069922
H   H905      1.0  0.16810  0.12540  0.43150  1.0000 0.1567888737
H   H906      1.0  0.11840  0.09610  0.40590  1.0000 0.1413069922
H   H907      1.0  0.67630  0.67650  0.04200  1.0000 0.1499769435
H   H908      1.0  0.72820  0.69910  0.04570  1.0000 0.1499769435
H   H909      1.0  0.69890  0.68670  0.01320  1.0000 0.1499769435
H   H910      1.0  0.57680  0.46980  0.00100  1.0000 0.1413069922
H   H911      1.0  0.63850  0.51530  0.01920  1.0000 0.1567888737
H   H912      1.0  0.59580  0.48910  0.03770  1.0000 0.1499769435
H   H913      1.0  0.97490  0.94260  0.59510  1.0000 0.1413069922
H   H914      1.0  0.94200  0.88820  0.60180  1.0000 0.1499769435
H   H915      1.0  0.00680  0.94140  0.61040  1.0000 0.1499769435
H   H916      1.0  0.96700  0.84980  0.48260  1.0000 0.1413069922
H   H917      1.0  0.95880  0.82090  0.50630  1.0000 0.1567888737
H   H918      1.0  0.90820  0.79610  0.48690  1.0000 0.1499769435
H   H919      1.0  0.21730  0.89390  0.98580  1.0000 0.1499769435
H   H920      1.0  0.26840  0.91520  0.99300  1.0000 0.1567888737
H   H921      1.0  0.27240  0.94910  0.97910  1.0000 0.1413069922
H   H922      1.0  0.21160  0.82870  0.85870  1.0000 0.1413069922
H   H923      1.0  0.25500  0.84570  0.88150  1.0000 0.1413069922
H   H924      1.0  0.19170  0.78570  0.87400  1.0000 0.1499769435
H   H925      1.0  0.20560  0.88850  0.62810  1.0000 0.1413069922
H   H926      1.0  0.14300  0.84380  0.61440  1.0000 0.1499769435
H   H927      1.0  0.18180  0.89860  0.63960  1.0000 0.1413069922
H   H928      1.0  0.10510  0.75830  0.72260  1.0000 0.1413069922
H   H929      1.0  0.07390  0.76280  0.71670  1.0000 0.1499769435
H   H930      1.0  0.05460  0.71830  0.69290  1.0000 0.1499769435
H   H931      1.0  0.90360  0.66210  0.90970  1.0000 0.1413069922
H   H932      1.0  0.89340  0.67020  0.93980  1.0000 0.1499769435
H   H933      1.0  0.90640  0.69960  0.91440  1.0000 0.1499769435
H   H934      1.0  0.13580  0.88190  0.99210  1.0000 0.1413069922
H   H935      1.0  0.09930  0.86440  0.01330  1.0000 0.1499769435
H   H936      1.0  0.11130  0.83990  0.01080  1.0000 0.1499769435
H   H937      1.0  0.06280  0.17360  0.17740  1.0000 0.1413069922
H   H938      1.0  0.05530  0.17240  0.14230  1.0000 0.1499769435
H   H939      1.0  0.01550  0.15490  0.16000  1.0000 0.1567888737
H   H940      1.0  0.18590  0.39190  0.18140  1.0000 0.1413069922
H   H941      1.0  0.14460  0.36690  0.20090  1.0000 0.1499769435
H   H942      1.0  0.12480  0.34910  0.16430  1.0000 0.1413069922
H   H943      1.0  0.98610  0.23480  0.20110  1.0000 0.1499769435
H   H944      1.0  0.03760  0.29140  0.19380  1.0000 0.1499769435
H   H945      1.0  0.04260  0.26510  0.20910  1.0000 0.1567888737
H   H946      1.0  0.99040  0.17550  0.07670  1.0000 0.1413069922
H   H947      1.0  0.98110  0.14090  0.09520  1.0000 0.1567888737
H   H948      1.0  0.04090  0.20360  0.10030  1.0000 0.1499769435
H   H949      1.0  0.33530  0.35900  0.30590  1.0000 0.1413069922
H   H950      1.0  0.33190  0.32150  0.29700  1.0000 0.1413069922
H   H951      1.0  0.29950  0.30880  0.31970  1.0000 0.1499769435
H   H952      1.0  0.12290  0.17110  0.20140  1.0000 0.1340587646
H   H953      1.0  0.10440  0.14230  0.22810  1.0000 0.1567888737
H   H954      1.0  0.13410  0.14670  0.20760  1.0000 0.1499769435
H   H955      1.0  0.58500  0.87520  0.09500  1.0000 0.1499769435
H   H956      1.0  0.55960  0.82480  0.07440  1.0000 0.1499769435
H   H957      1.0  0.61930  0.87410  0.09760  1.0000 0.1499769435
H   H958      1.0  0.49370  0.72670  0.17800  1.0000 0.1499769435
H   H959      1.0  0.54550  0.78630  0.20140  1.0000 0.1499769435
H   H960      1.0  0.55300  0.76320  0.18120  1.0000 0.1499769435
H   H961      1.0  0.69200  0.90060  0.21660  1.0000 0.1413069922
H   H962      1.0  0.63940  0.87540  0.20200  1.0000 0.1499769435
H   H963      1.0  0.69750  0.93380  0.19970  1.0000 0.1567888737
H   H964      1.0  0.61360  0.77700  0.08640  1.0000 0.1413069922
H   H965      1.0  0.61810  0.81330  0.07680  1.0000 0.1567888737
H   H966      1.0  0.56750  0.76200  0.08790  1.0000 0.1413069922
H   H967      1.0  0.34920  0.79840  0.11740  1.0000 0.1413069922
H   H968      1.0  0.31490  0.76360  0.08230  1.0000 0.1499769435
H   H969      1.0  0.35760  0.82600  0.09260  1.0000 0.1499769435
H   H970      1.0  0.50240  0.85500  0.05660  1.0000 0.1413069922
H   H971      1.0  0.54020  0.91160  0.07880  1.0000 0.1499769435
H   H972      1.0  0.50390  0.88840  0.04550  1.0000 0.1413069922
H   H973      1.0  0.81060  0.70110  0.53910  1.0000 0.1413069922
H   H974      1.0  0.84190  0.75030  0.52560  1.0000 0.1499769435
H   H975      1.0  0.84010  0.71480  0.51370  1.0000 0.1499769435
H   H976      1.0  0.04980  0.89140  0.61520  1.0000 0.1499769435
H   H977      1.0  0.04660  0.91950  0.60030  1.0000 0.1499769435
H   H978      1.0  0.02610  0.89990  0.63000  1.0000 0.1499769435
H   H979      1.0  0.07030  0.85450  0.66760  1.0000 0.1413069922
H   H980      1.0  0.11660  0.87030  0.68190  1.0000 0.1499769435
H   H981      1.0  0.11110  0.87660  0.64870  1.0000 0.1499769435
H   H982      1.0  0.96990  0.65070  0.60620  1.0000 0.1413069922
H   H983      1.0  0.02870  0.69100  0.62650  1.0000 0.1499769435
H   H984      1.0  0.98050  0.65670  0.64200  1.0000 0.1413069922
H   H985      1.0  0.85210  0.55140  0.54410  1.0000 0.1413069922
H   H986      1.0  0.79590  0.49660  0.51870  1.0000 0.1499769435
H   H987      1.0  0.84840  0.54840  0.50860  1.0000 0.1499769435
H   H988      1.0  0.76840  0.60510  0.51250  1.0000 0.1413069922
H   H989      1.0  0.75010  0.57180  0.47950  1.0000 0.1567888737
H   H990      1.0  0.71230  0.54030  0.50200  1.0000 0.1499769435
H   H991      1.0  0.96190  0.67140  0.10630  1.0000 0.1413069922
H   H992      1.0  0.92740  0.61580  0.11160  1.0000 0.1413069922
H   H993      1.0  0.91720  0.61800  0.07800  1.0000 0.1499769435
H   H994      1.0  0.74970  0.55160  0.11930  1.0000 0.1499769435
H   H995      1.0  0.74890  0.51920  0.13170  1.0000 0.1567888737
H   H996      1.0  0.78460  0.57520  0.15320  1.0000 0.1499769435
H   H997      1.0  0.73190  0.60980  0.11010  1.0000 0.1413069922
H   H998      1.0  0.68400  0.59100  0.09400  1.0000 0.1499769435
H   H999      1.0  0.68280  0.55600  0.08200  1.0000 0.1499769435
H   H1000     1.0  0.80950  0.71020  0.00210  1.0000 0.1413069922
H   H1001     1.0  0.74550  0.66150  0.98880  1.0000 0.1567888737
H   H1002     1.0  0.78180  0.71610  0.01310  1.0000 0.1499769435
H   H1003     1.0  0.90900  0.76390  0.98510  1.0000 0.1340587646
H   H1004     1.0  0.96520  0.80710  0.97670  1.0000 0.1499769435
H   H1005     1.0  0.91330  0.74480  0.95710  1.0000 0.1499769435
H   H1006     1.0  0.99240  0.72010  0.04610  1.0000 0.1413069922
H   H1007     1.0  0.00900  0.72940  0.01480  1.0000 0.1499769435
H   H1008     1.0  0.04840  0.78020  0.04420  1.0000 0.1413069922
H   H1009     1.0  0.77990  0.44930  0.07320  1.0000 0.1413069922
H   H1010     1.0  0.84390  0.50680  0.07930  1.0000 0.1413069922
H   H1011     1.0  0.80410  0.50050  0.06960  1.0000 0.1499769435
H   H1012     1.0  0.86110  0.57340  0.20630  1.0000 0.1413069922
H   H1013     1.0  0.80570  0.54370  0.19200  1.0000 0.1499769435
H   H1014     1.0  0.86070  0.59990  0.18600  1.0000 0.1413069922
H   H1015     1.0  0.78510  0.49200  0.24790  1.0000 0.1413069922
H   H1016     1.0  0.82050  0.50710  0.27780  1.0000 0.1499769435
H   H1017     1.0  0.76410  0.47550  0.27780  1.0000 0.1567888737
H   H1018     1.0  0.68190  0.28290  0.23840  1.0000 0.1413069922
H   H1019     1.0  0.63110  0.26190  0.23400  1.0000 0.1499769435
H   H1020     1.0  0.66820  0.28790  0.26770  1.0000 0.1499769435
H   H1021     1.0  0.61810  0.21060  0.15670  1.0000 0.1499769435
H   H1022     1.0  0.64340  0.20060  0.14940  1.0000 0.1413069922
H   H1023     1.0  0.58750  0.16420  0.12710  1.0000 0.1567888737
H   H1024     1.0  0.74370  0.33900  0.06450  1.0000 0.1413069922
H   H1025     1.0  0.68480  0.30190  0.04830  1.0000 0.1499769435
H   H1026     1.0  0.69710  0.27780  0.04470  1.0000 0.1499769435
H   H1027     1.0  0.49080  0.29280  0.41600  1.0000 0.1413069922
H   H1028     1.0  0.42810  0.24450  0.39860  1.0000 0.1413069922
H   H1029     1.0  0.47210  0.30450  0.39600  1.0000 0.1499769435
H   H1030     1.0  0.46520  0.20350  0.29190  1.0000 0.1413069922
H   H1031     1.0  0.45810  0.22910  0.27840  1.0000 0.1567888737
H   H1032     1.0  0.40820  0.17230  0.28590  1.0000 0.1499769435
H   H1033     1.0  0.57650  0.29450  0.26640  1.0000 0.1413069922
H   H1034     1.0  0.57830  0.26120  0.26890  1.0000 0.1413069922
H   H1035     1.0  0.60730  0.29960  0.24670  1.0000 0.1499769435
H   H1036     1.0  0.79800  0.46060  0.35920  1.0000 0.1413069922
H   H1037     1.0  0.81020  0.49460  0.33820  1.0000 0.1499769435
H   H1038     1.0  0.80820  0.45870  0.32690  1.0000 0.1413069922
H   H1039     1.0  0.81870  0.53200  0.42630  1.0000 0.1413069922
H   H1040     1.0  0.83970  0.55000  0.46290  1.0000 0.1413069922
H   H1041     1.0  0.83920  0.57930  0.44650  1.0000 0.1567888737
H   H1042     1.0  0.61590  0.39490  0.46780  1.0000 0.1413069922
H   H1043     1.0  0.63450  0.44290  0.46420  1.0000 0.1499769435
H   H1044     1.0  0.66190  0.45020  0.49490  1.0000 0.1413069922
H   H1045     1.0  0.29520  0.21590  0.24590  1.0000 0.1413069922
H   H1046     1.0  0.28790  0.24300  0.23710  1.0000 0.1499769435
H   H1047     1.0  0.32470  0.26660  0.27030  1.0000 0.1499769435
H   H1048     1.0  0.11780  0.11300  0.30520  1.0000 0.1499769435
H   H1049     1.0  0.13570  0.15710  0.29340  1.0000 0.1567888737
H   H1050     1.0  0.09370  0.09940  0.27010  1.0000 0.1499769435
H   H1051     1.0  0.04460  0.00100  0.32620  1.0000 0.1413069922
H   H1052     1.0  0.03070  0.99310  0.35840  1.0000 0.1499769435
H   H1053     1.0  0.07980  0.05240  0.35360  1.0000 0.1413069922
H   H1054     1.0  0.20460  0.04940  0.40340  1.0000 0.1413069922
H   H1055     1.0  0.17180  0.03530  0.42650  1.0000 0.1499769435
H   H1056     1.0  0.14540  0.98760  0.40060  1.0000 0.1413069922
H   H1057     1.0  0.30180  0.08600  0.36280  1.0000 0.1413069922
H   H1058     1.0  0.36660  0.14050  0.37330  1.0000 0.1413069922
H   H1059     1.0  0.33420  0.13810  0.38770  1.0000 0.1499769435
H   H1060     1.0  0.36370  0.22560  0.28270  1.0000 0.1413069922
H   H1061     1.0  0.41910  0.25530  0.29720  1.0000 0.1567888737
H   H1062     1.0  0.37410  0.20220  0.26850  1.0000 0.1499769435
H   H1063     1.0  0.52040  0.13960  0.01820  1.0000 0.1413069922
H   H1064     1.0  0.56740  0.19430  0.04570  1.0000 0.1567888737
H   H1065     1.0  0.58070  0.19190  0.01520  1.0000 0.1499769435
H   H1066     1.0  0.64020  0.13400  0.08120  1.0000 0.1413069922
H   H1067     1.0  0.67570  0.19100  0.10050  1.0000 0.1413069922
H   H1068     1.0  0.62220  0.13660  0.10860  1.0000 0.1567888737
H   H1069     1.0  0.54970  0.01030  0.09340  1.0000 0.1499769435
H   H1070     1.0  0.52980  0.96380  0.10300  1.0000 0.1567888737
H   H1071     1.0  0.56080  0.98850  0.07710  1.0000 0.1499769435
H   H1072     1.0  0.33470  0.80240  0.99330  1.0000 0.1413069922
H   H1073     1.0  0.33910  0.78010  0.01520  1.0000 0.1413069922
H   H1074     1.0  0.31630  0.79230  0.02400  1.0000 0.1567888737
H   H1075     1.0  0.27690  0.81260  0.95630  1.0000 0.1413069922
H   H1076     1.0  0.23090  0.79860  0.94810  1.0000 0.1499769435
H   H1077     1.0  0.25580  0.80470  0.92210  1.0000 0.1499769435
H   H1078     1.0  0.41270  0.03820  0.96330  1.0000 0.1340587646
H   H1079     1.0  0.35580  0.99910  0.94050  1.0000 0.1499769435
H   H1080     1.0  0.36440  0.00970  0.97670  1.0000 0.1499769435
H   H1081     1.0  0.07800  0.50790  0.61270  1.0000 0.1340587646
H   H1082     1.0  0.11490  0.51040  0.61130  1.0000 0.1499769435
H   H1083     1.0  0.14070  0.56140  0.63150  1.0000 0.1499769435
H   H1084     1.0  0.18510  0.62650  0.51340  1.0000 0.1413069922
H   H1085     1.0  0.23660  0.66810  0.54270  1.0000 0.1567888737
H   H1086     1.0  0.21250  0.61840  0.52230  1.0000 0.1413069922
H   H1087     1.0  0.13430  0.17630  0.49980  1.0000 0.1499769435
H   H1088     1.0  0.18250  0.22820  0.52910  1.0000 0.1499769435
H   H1089     1.0  0.18570  0.19890  0.51220  1.0000 0.1499769435
H   H1090     1.0  0.07580  0.07680  0.60700  1.0000 0.1413069922
H   H1091     1.0  0.11930  0.13850  0.62320  1.0000 0.1567888737
H   H1092     1.0  0.05810  0.09580  0.60670  1.0000 0.1499769435
H   H1093     1.0  0.87980  0.47490  0.53230  1.0000 0.1413069922
H   H1094     1.0  0.84020  0.44200  0.55380  1.0000 0.1499769435
H   H1095     1.0  0.89640  0.50680  0.56540  1.0000 0.1499769435
H   H1096     1.0  0.98440  0.46700  0.61720  1.0000 0.1413069922
H   H1097     1.0  0.95250  0.45880  0.63790  1.0000 0.1567888737
H   H1098     1.0  0.92130  0.40820  0.61210  1.0000 0.1499769435
H   H1099     1.0  0.73150  0.71730  0.82340  1.0000 0.1499769435
H   H1100     1.0  0.77540  0.76840  0.85320  1.0000 0.1567888737
H   H1101     1.0  0.79330  0.77240  0.82330  1.0000 0.1413069922
H   H1102     1.0  0.85290  0.71160  0.88290  1.0000 0.1413069922
H   H1103     1.0  0.87350  0.75500  0.90930  1.0000 0.1413069922
H   H1104     1.0  0.81770  0.69170  0.90600  1.0000 0.1499769435
H   H1105     1.0  0.07750  0.70560  0.81710  1.0000 0.1413069922
H   H1106     1.0  0.02860  0.64300  0.79920  1.0000 0.1499769435
H   H1107     1.0  0.04220  0.68180  0.78320  1.0000 0.1413069922
H   H1108     1.0  0.88250  0.60510  0.84680  1.0000 0.1413069922
H   H1109     1.0  0.85720  0.57390  0.81110  1.0000 0.1499769435
H   H1110     1.0  0.86170  0.55460  0.83630  1.0000 0.1499769435
H   H1111     1.0  0.49390  0.40360  0.74150  1.0000 0.1413069922
H   H1112     1.0  0.45360  0.39340  0.72320  1.0000 0.1499769435
H   H1113     1.0  0.49200  0.40640  0.70680  1.0000 0.1499769435
H   H1114     1.0  0.64370  0.63580  0.75390  1.0000 0.1413069922
H   H1115     1.0  0.58600  0.59930  0.73490  1.0000 0.1499769435
H   H1116     1.0  0.60050  0.61130  0.77140  1.0000 0.1499769435
H   H1117     1.0  0.38540  0.56280  0.38920  1.0000 0.1413069922
H   H1118     1.0  0.41300  0.55530  0.38290  1.0000 0.1499769435
H   H1119     1.0  0.35550  0.51550  0.36060  1.0000 0.1567888737
H   H1120     1.0  0.50450  0.68590  0.29400  1.0000 0.1413069922
H   H1121     1.0  0.44370  0.64460  0.27770  1.0000 0.1499769435
H   H1122     1.0  0.46050  0.62480  0.27570  1.0000 0.1413069922
H   H1123     1.0  0.28500  0.48610  0.25130  1.0000 0.1499769435
H   H1124     1.0  0.34380  0.53760  0.24620  1.0000 0.1499769435
H   H1125     1.0  0.33350  0.54260  0.27750  1.0000 0.1567888737
H   H1126     1.0  0.41370  0.49040  0.31490  1.0000 0.1413069922
H   H1127     1.0  0.38590  0.48110  0.34020  1.0000 0.1567888737
H   H1128     1.0  0.44060  0.54090  0.33730  1.0000 0.1499769435
H   H1129     1.0  0.52940  0.83530  0.47630  1.0000 0.1413069922
H   H1130     1.0  0.53490  0.83190  0.51040  1.0000 0.1413069922
H   H1131     1.0  0.47980  0.79950  0.49070  1.0000 0.1499769435
H   H1132     1.0  0.42150  0.62290  0.45180  1.0000 0.1340587646
H   H1133     1.0  0.37630  0.60440  0.46210  1.0000 0.1567888737
H   H1134     1.0  0.42650  0.63410  0.48740  1.0000 0.1499769435
H   H1135     1.0  0.99000  0.08500  0.20980  1.0000 0.1499769435
H   H1136     1.0  0.98520  0.05960  0.23480  1.0000 0.1499769435
H   H1137     1.0  0.02170  0.11930  0.24520  1.0000 0.1567888737
H   H1138     1.0  0.81570  0.99370  0.26700  1.0000 0.1499769435
H   H1139     1.0  0.84410  0.04550  0.25920  1.0000 0.1499769435
H   H1140     1.0  0.87180  0.05300  0.28980  1.0000 0.1499769435
H   H1141     1.0  0.97540  0.19200  0.29140  1.0000 0.1413069922
H   H1142     1.0  0.93740  0.13940  0.26400  1.0000 0.1499769435
H   H1143     1.0  0.99780  0.19750  0.26370  1.0000 0.1567888737
H   H1144     1.0  0.02720  0.11360  0.33660  1.0000 0.1413069922
H   H1145     1.0  0.04130  0.11810  0.30480  1.0000 0.1567888737
H   H1146     1.0  0.97960  0.06750  0.30550  1.0000 0.1413069922
H   H1147     1.0  0.73180  0.84920  0.05080  1.0000 0.1413069922
H   H1148     1.0  0.73260  0.81490  0.05130  1.0000 0.1499769435
H   H1149     1.0  0.76500  0.85760  0.03160  1.0000 0.1499769435
H   H1150     1.0  0.94580  0.00240  0.14740  1.0000 0.1413069922
H   H1151     1.0  0.96140  0.04020  0.12860  1.0000 0.1499769435
H   H1152     1.0  0.95840  0.00390  0.11550  1.0000 0.1413069922
H   H1153     1.0  0.77150  0.31060  0.60950  1.0000 0.1413069922
H   H1154     1.0  0.81630  0.34190  0.59160  1.0000 0.1499769435
H   H1155     1.0  0.82640  0.34010  0.62530  1.0000 0.1499769435
H   H1156     1.0  0.93460  0.54980  0.65840  1.0000 0.1499769435
H   H1157     1.0  0.94630  0.54660  0.62710  1.0000 0.1499769435
H   H1158     1.0  0.89610  0.52610  0.62620  1.0000 0.1499769435
H   H1159     1.0  0.90270  0.57030  0.71580  1.0000 0.1413069922
H   H1160     1.0  0.93470  0.61660  0.74630  1.0000 0.1499769435
H   H1161     1.0  0.96240  0.61110  0.73450  1.0000 0.1499769435
H   H1162     1.0  0.86370  0.46990  0.81920  1.0000 0.1413069922
H   H1163     1.0  0.90220  0.52870  0.83770  1.0000 0.1499769435
H   H1164     1.0  0.83850  0.48050  0.82380  1.0000 0.1413069922
H   H1165     1.0  0.80800  0.35210  0.80070  1.0000 0.1413069922
H   H1166     1.0  0.77720  0.29590  0.79930  1.0000 0.1499769435
H   H1167     1.0  0.83980  0.34840  0.80000  1.0000 0.1499769435
H   H1168     1.0  0.75590  0.26840  0.66330  1.0000 0.1413069922
H   H1169     1.0  0.77060  0.25010  0.67830  1.0000 0.1567888737
H   H1170     1.0  0.71030  0.21230  0.67200  1.0000 0.1499769435
H   H1171     1.0  0.35560  0.46190  0.79050  1.0000 0.1413069922
H   H1172     1.0  0.31580  0.42740  0.81160  1.0000 0.1413069922
H   H1173     1.0  0.33920  0.41720  0.79920  1.0000 0.1499769435
H   H1174     1.0  0.13040  0.24970  0.69810  1.0000 0.1499769435
H   H1175     1.0  0.11720  0.24890  0.72970  1.0000 0.1567888737
H   H1176     1.0  0.13140  0.28460  0.70940  1.0000 0.1499769435
H   H1177     1.0  0.12180  0.23190  0.62210  1.0000 0.1413069922
H   H1178     1.0  0.09000  0.18400  0.59300  1.0000 0.1499769435
H   H1179     1.0  0.10080  0.18280  0.62680  1.0000 0.1499769435
H   H1180     1.0  0.30740  0.30950  0.59930  1.0000 0.1413069922
H   H1181     1.0  0.25670  0.24550  0.58400  1.0000 0.1567888737
H   H1182     1.0  0.26870  0.28180  0.56570  1.0000 0.1499769435
H   H1183     1.0  0.42390  0.40900  0.64510  1.0000 0.1340587646
H   H1184     1.0  0.48850  0.46520  0.65810  1.0000 0.1567888737
H   H1185     1.0  0.45620  0.41330  0.66850  1.0000 0.1499769435
H   H1186     1.0  0.44630  0.49240  0.77230  1.0000 0.1413069922
H   H1187     1.0  0.49420  0.50900  0.77960  1.0000 0.1499769435
H   H1188     1.0  0.50420  0.54840  0.76820  1.0000 0.1413069922
H   H1189     1.0  0.20670  0.27990  0.83060  1.0000 0.1413069922
H   H1190     1.0  0.26460  0.34390  0.83710  1.0000 0.1413069922
H   H1191     1.0  0.23450  0.30410  0.80360  1.0000 0.1499769435
H   H1192     1.0  0.15480  0.36110  0.78770  1.0000 0.1413069922
H   H1193     1.0  0.11370  0.30570  0.76200  1.0000 0.1499769435
H   H1194     1.0  0.17470  0.36070  0.76080  1.0000 0.1413069922
H   H1195     1.0  0.03720  0.28510  0.79310  1.0000 0.1413069922
H   H1196     1.0  0.04270  0.32050  0.81340  1.0000 0.1499769435
H   H1197     1.0  0.98630  0.26410  0.78860  1.0000 0.1567888737
H   H1198     1.0  0.94350  0.18190  0.89900  1.0000 0.1413069922
H   H1199     1.0  0.89710  0.13110  0.86920  1.0000 0.1499769435
H   H1200     1.0  0.90050  0.16820  0.88030  1.0000 0.1499769435
H   H1201     1.0  0.96140  0.11810  0.90750  1.0000 0.1499769435
H   H1202     1.0  0.99400  0.14340  0.94280  1.0000 0.1413069922
H   H1203     1.0  0.96040  0.08750  0.92330  1.0000 0.1567888737
H   H1204     1.0  0.17920  0.24370  0.90470  1.0000 0.1499769435
H   H1205     1.0  0.13650  0.18480  0.88290  1.0000 0.1499769435
H   H1206     1.0  0.15240  0.19710  0.91930  1.0000 0.1499769435
H   H1207     1.0  0.57480  0.99080  0.69800  1.0000 0.1413069922
H   H1208     1.0  0.52950  0.92810  0.68360  1.0000 0.1413069922
H   H1209     1.0  0.57610  0.97210  0.66760  1.0000 0.1499769435
H   H1210     1.0  0.67330  0.96520  0.76170  1.0000 0.1413069922
H   H1211     1.0  0.67970  0.95810  0.72900  1.0000 0.1567888737
H   H1212     1.0  0.62230  0.90820  0.73590  1.0000 0.1499769435
H   H1213     1.0  0.81010  0.07650  0.78200  1.0000 0.1413069922
H   H1214     1.0  0.80940  0.07830  0.81710  1.0000 0.1413069922
H   H1215     1.0  0.86060  0.10730  0.80770  1.0000 0.1499769435
H   H1216     1.0  0.93880  0.29800  0.83740  1.0000 0.1499769435
H   H1217     1.0  0.97200  0.31020  0.81560  1.0000 0.1499769435
H   H1218     1.0  0.98130  0.30820  0.84950  1.0000 0.1413069922
H   H1219     1.0  0.89240  0.31870  0.78670  1.0000 0.1413069922
H   H1220     1.0  0.87680  0.33970  0.78970  1.0000 0.1413069922
H   H1221     1.0  0.89270  0.33920  0.75990  1.0000 0.1567888737
H   H1222     1.0  0.64810  0.11590  0.72100  1.0000 0.1413069922
H   H1223     1.0  0.67030  0.13450  0.69160  1.0000 0.1499769435
H   H1224     1.0  0.66700  0.16190  0.71170  1.0000 0.1413069922
H   H1225     1.0  0.54930  0.79520  0.57930  1.0000 0.1413069922
H   H1226     1.0  0.55080  0.78790  0.54490  1.0000 0.1499769435
H   H1227     1.0  0.55440  0.82470  0.55810  1.0000 0.1499769435
H   H1228     1.0  0.31260  0.61780  0.50480  1.0000 0.1499769435
H   H1229     1.0  0.34230  0.63570  0.47860  1.0000 0.1567888737
H   H1230     1.0  0.32360  0.59370  0.49430  1.0000 0.1499769435
H   H1231     1.0  0.21840  0.54460  0.54360  1.0000 0.1413069922
H   H1232     1.0  0.17230  0.53070  0.53760  1.0000 0.1499769435
H   H1233     1.0  0.22620  0.57980  0.52740  1.0000 0.1413069922
H   H1234     1.0  0.30120  0.70460  0.65520  1.0000 0.1413069922
H   H1235     1.0  0.24530  0.67180  0.63650  1.0000 0.1499769435
H   H1236     1.0  0.24480  0.64540  0.65780  1.0000 0.1413069922
H   H1237     1.0  0.43900  0.80180  0.71580  1.0000 0.1413069922
H   H1238     1.0  0.49330  0.86660  0.72610  1.0000 0.1413069922
H   H1239     1.0  0.44650  0.83420  0.69610  1.0000 0.1499769435
H   H1240     1.0  0.58100  0.86370  0.63810  1.0000 0.1413069922
H   H1241     1.0  0.62190  0.91910  0.66380  1.0000 0.1567888737
H   H1242     1.0  0.60560  0.87410  0.67190  1.0000 0.1499769435
H   H1243     1.0  0.00220  0.02040  0.88080  1.0000 0.1413069922
H   H1244     1.0  0.02170  0.06740  0.87310  1.0000 0.1567888737
H   H1245     1.0  0.06550  0.08070  0.88880  1.0000 0.1499769435
H   H1246     1.0  0.05900  0.14020  0.00620  1.0000 0.1413069922
H   H1247     1.0  0.07520  0.17570  0.98470  1.0000 0.1413069922
H   H1248     1.0  0.01360  0.12220  0.98560  1.0000 0.1567888737
H   H1249     1.0  0.95630  0.04970  0.03940  1.0000 0.1499769435
H   H1250     1.0  0.92680  0.02980  0.06600  1.0000 0.1567888737
H   H1251     1.0  0.98370  0.06080  0.07230  1.0000 0.1499769435
H   H1252     1.0  0.84140  0.83470  0.03230  1.0000 0.1413069922
H   H1253     1.0  0.82390  0.83910  0.05900  1.0000 0.1499769435
H   H1254     1.0  0.79230  0.81630  0.02400  1.0000 0.1567888737
H   H1255     1.0  0.82060  0.77690  0.96430  1.0000 0.1413069922
H   H1256     1.0  0.78280  0.73090  0.93230  1.0000 0.1499769435
H   H1257     1.0  0.83370  0.75580  0.95110  1.0000 0.1499769435
H   H1258     1.0  0.94940  0.91270  0.87450  1.0000 0.1340587646
H   H1259     1.0  0.91530  0.85580  0.85670  1.0000 0.1499769435
H   H1260     1.0  0.88770  0.86440  0.85470  1.0000 0.1499769435
H   H1261     1.0  0.39520  0.46530  0.88730  1.0000 0.1340587646
H   H1262     1.0  0.39910  0.50360  0.88870  1.0000 0.1499769435
H   H1263     1.0  0.42990  0.50920  0.86850  1.0000 0.1499769435
H   H1264     1.0  0.61310  0.67170  0.98660  1.0000 0.1413069922
H   H1265     1.0  0.62540  0.69390  0.95730  1.0000 0.1567888737
H   H1266     1.0  0.59610  0.69020  0.97770  1.0000 0.1413069922
H   H1267     1.0  0.17650  0.63450  0.00020  1.0000 0.1499769435
H   H1268     1.0  0.19910  0.65340  0.97090  1.0000 0.1499769435
H   H1269     1.0  0.18670  0.67350  0.98780  1.0000 0.1499769435
H   H1270     1.0  0.96980  0.46880  0.89300  1.0000 0.1413069922
H   H1271     1.0  0.01530  0.49610  0.87680  1.0000 0.1567888737
H   H1272     1.0  0.98910  0.45140  0.89330  1.0000 0.1499769435
H   H1273     1.0  0.44260  0.34750  0.96770  1.0000 0.1413069922
H   H1274     1.0  0.38820  0.28640  0.94620  1.0000 0.1499769435
H   H1275     1.0  0.44140  0.33100  0.93460  1.0000 0.1499769435
H   H1276     1.0  0.34980  0.36720  0.88280  1.0000 0.1413069922
H   H1277     1.0  0.32090  0.31460  0.86210  1.0000 0.1567888737
H   H1278     1.0  0.29610  0.30920  0.88790  1.0000 0.1499769435
H   H1279     1.0  0.39390  0.90810  0.67660  1.0000 0.1499769435
H   H1280     1.0  0.41520  0.92220  0.64680  1.0000 0.1567888737
H   H1281     1.0  0.44910  0.97000  0.67670  1.0000 0.1413069922
H   H1282     1.0  0.32870  0.97000  0.61710  1.0000 0.1413069922
H   H1283     1.0  0.34570  0.96420  0.59070  1.0000 0.1413069922
H   H1284     1.0  0.28570  0.91170  0.59400  1.0000 0.1499769435
H   H1285     1.0  0.38850  0.26040  0.68290  1.0000 0.1413069922
H   H1286     1.0  0.34380  0.22940  0.70080  1.0000 0.1499769435
H   H1287     1.0  0.39860  0.25900  0.71680  1.0000 0.1413069922
H   H1288     1.0  0.25830  0.03570  0.65320  1.0000 0.1413069922
H   H1289     1.0  0.26280  0.04610  0.68890  1.0000 0.1499769435
H   H1290     1.0  0.21830  0.02540  0.66370  1.0000 0.1499769435
H   H1291     1.0  0.16210  0.75240  0.75850  1.0000 0.1413069922
H   H1292     1.0  0.17020  0.73040  0.77680  1.0000 0.1499769435
H   H1293     1.0  0.19960  0.78520  0.79320  1.0000 0.1499769435
H   H1294     1.0  0.38190  0.88980  0.74610  1.0000 0.1413069922
H   H1295     1.0  0.36440  0.85110  0.76510  1.0000 0.1499769435
H   H1296     1.0  0.33990  0.82910  0.72860  1.0000 0.1499769435
H   H1297     1.0  0.67360  0.99620  0.11080  1.0000 0.1413069922
H   H1298     1.0  0.67240  0.03010  0.11710  1.0000 0.1499769435
H   H1299     1.0  0.65490  0.99490  0.13940  1.0000 0.1567888737
H   H1300     1.0  0.89190  0.21050  0.20600  1.0000 0.1413069922
H   H1301     1.0  0.86690  0.16600  0.22230  1.0000 0.1499769435
H   H1302     1.0  0.84910  0.18480  0.22430  1.0000 0.1413069922
H   H1303     1.0  0.73480  0.03370  0.24870  1.0000 0.1499769435
H   H1304     1.0  0.79140  0.09760  0.25380  1.0000 0.1499769435
H   H1305     1.0  0.76510  0.05600  0.22250  1.0000 0.1567888737
H   H1306     1.0  0.67550  0.09880  0.18510  1.0000 0.1413069922
H   H1307     1.0  0.64090  0.04570  0.15980  1.0000 0.1567888737
H   H1308     1.0  0.70360  0.10330  0.16270  1.0000 0.1499769435
H   H1309     1.0  0.85900  0.05310  0.02370  1.0000 0.1413069922
H   H1310     1.0  0.82150  0.02450  0.98960  1.0000 0.1413069922
H   H1311     1.0  0.80880  0.98910  0.00930  1.0000 0.1499769435
H   H1312     1.0  0.67110  0.96970  0.04820  1.0000 0.1340587646
H   H1313     1.0  0.64230  0.91420  0.03790  1.0000 0.1567888737
H   H1314     1.0  0.64670  0.93910  0.01260  1.0000 0.1499769435
H   H1315     1.0  0.37520  0.78020  0.29020  1.0000 0.1499769435
H   H1316     1.0  0.32480  0.75040  0.26520  1.0000 0.1499769435
H   H1317     1.0  0.37410  0.77650  0.25480  1.0000 0.1499769435
H   H1318     1.0  0.22670  0.54870  0.23300  1.0000 0.1499769435
H   H1319     1.0  0.28630  0.58490  0.24080  1.0000 0.1499769435
H   H1320     1.0  0.26320  0.58200  0.21020  1.0000 0.1499769435
H   H1321     1.0  0.40060  0.68400  0.20860  1.0000 0.1413069922
H   H1322     1.0  0.37540  0.67340  0.23600  1.0000 0.1499769435
H   H1323     1.0  0.43380  0.73410  0.23630  1.0000 0.1567888737
H   H1324     1.0  0.27700  0.69060  0.16340  1.0000 0.1413069922
H   H1325     1.0  0.31330  0.73650  0.19520  1.0000 0.1567888737
H   H1326     1.0  0.26200  0.67410  0.19450  1.0000 0.1413069922
H   H1327     1.0  0.29840  0.68100  0.44920  1.0000 0.1413069922
H   H1328     1.0  0.26360  0.68130  0.44870  1.0000 0.1499769435
H   H1329     1.0  0.32600  0.73340  0.46840  1.0000 0.1499769435
H   H1330     1.0  0.35500  0.79840  0.35260  1.0000 0.1413069922
H   H1331     1.0  0.41160  0.83280  0.37140  1.0000 0.1499769435
H   H1332     1.0  0.38840  0.84290  0.38450  1.0000 0.1413069922
H   H1333     1.0  0.20110  0.16200  0.89050  1.0000 0.1413069922
H   H1334     1.0  0.25030  0.22470  0.90840  1.0000 0.1499769435
H   H1335     1.0  0.21480  0.20110  0.87470  1.0000 0.1499769435
H   H1336     1.0  0.39140  0.27620  0.84160  1.0000 0.1499769435
H   H1337     1.0  0.41950  0.31920  0.87290  1.0000 0.1499769435
H   H1338     1.0  0.39990  0.26990  0.87380  1.0000 0.1499769435
H   H1339     1.0  0.35450  0.18690  0.78420  1.0000 0.1413069922
H   H1340     1.0  0.37030  0.18840  0.75370  1.0000 0.1499769435
H   H1341     1.0  0.37660  0.22790  0.76550  1.0000 0.1499769435
H   H1342     1.0  0.15070  0.04450  0.68080  1.0000 0.1413069922
H   H1343     1.0  0.19100  0.06450  0.66230  1.0000 0.1499769435
H   H1344     1.0  0.15670  0.01470  0.67620  1.0000 0.1413069922
H   H1345     1.0  0.05140  0.00730  0.69930  1.0000 0.1413069922
H   H1346     1.0  0.99660  0.97790  0.70070  1.0000 0.1499769435
H   H1347     1.0  0.04840  0.03980  0.70000  1.0000 0.1499769435
H   H1348     1.0  0.10510  0.09260  0.83670  1.0000 0.1413069922
H   H1349     1.0  0.07180  0.09230  0.82170  1.0000 0.1567888737
H   H1350     1.0  0.04030  0.03830  0.82800  1.0000 0.1499769435
H   H1351     1.0  0.17140  0.56510  0.70950  1.0000 0.1413069922
H   H1352     1.0  0.11580  0.50420  0.68840  1.0000 0.1413069922
H   H1353     1.0  0.11800  0.54000  0.70080  1.0000 0.1499769435
H   H1354     1.0  0.05160  0.43230  0.80190  1.0000 0.1499769435
H   H1355     1.0  0.01920  0.38750  0.77030  1.0000 0.1567888737
H   H1356     1.0  0.07520  0.42200  0.79060  1.0000 0.1499769435
H   H1357     1.0  0.10980  0.49970  0.87790  1.0000 0.1413069922
H   H1358     1.0  0.09100  0.49700  0.90700  1.0000 0.1499769435
H   H1359     1.0  0.05600  0.47400  0.87320  1.0000 0.1499769435
H   H1360     1.0  0.21020  0.70810  0.90070  1.0000 0.1413069922
H   H1361     1.0  0.16150  0.67270  0.91600  1.0000 0.1567888737
H   H1362     1.0  0.21610  0.70300  0.93430  1.0000 0.1499769435
H   H1363     1.0  0.26390  0.77880  0.85490  1.0000 0.1340587646
H   H1364     1.0  0.30710  0.83040  0.84190  1.0000 0.1567888737
H   H1365     1.0  0.24480  0.78770  0.83150  1.0000 0.1499769435
H   H1366     1.0  0.22010  0.67400  0.72770  1.0000 0.1413069922
H   H1367     1.0  0.22940  0.71460  0.72040  1.0000 0.1499769435
H   H1368     1.0  0.28020  0.73600  0.73180  1.0000 0.1413069922
H   H1369     1.0  0.94930  0.37610  0.66940  1.0000 0.1413069922
H   H1370     1.0  0.00680  0.42750  0.66290  1.0000 0.1413069922
H   H1371     1.0  0.00050  0.43090  0.69640  1.0000 0.1499769435
H   H1372     1.0  0.07340  0.36710  0.71230  1.0000 0.1413069922
H   H1373     1.0  0.04370  0.35170  0.73800  1.0000 0.1499769435
H   H1374     1.0  0.09990  0.41390  0.73920  1.0000 0.1413069922
H   H1375     1.0  0.99200  0.24410  0.70690  1.0000 0.1413069922
H   H1376     1.0  0.00710  0.22930  0.68660  1.0000 0.1499769435
H   H1377     1.0  0.97550  0.19770  0.71140  1.0000 0.1567888737
H   H1378     1.0  0.78290  0.04450  0.60100  1.0000 0.1413069922
H   H1379     1.0  0.76190  0.02790  0.63080  1.0000 0.1499769435
H   H1380     1.0  0.78790  0.02020  0.61970  1.0000 0.1499769435
H   H1381     1.0  0.71060  0.05390  0.59250  1.0000 0.1499769435
H   H1382     1.0  0.70060  0.05120  0.55720  1.0000 0.1413069922
H   H1383     1.0  0.66420  0.03710  0.57670  1.0000 0.1567888737
H   H1384     1.0  0.83900  0.27450  0.59530  1.0000 0.1413069922
H   H1385     1.0  0.80190  0.25360  0.61710  1.0000 0.1499769435
H   H1386     1.0  0.77780  0.23310  0.58070  1.0000 0.1499769435
H   H1387     1.0  0.79280  0.87680  0.80200  1.0000 0.1413069922
H   H1388     1.0  0.74450  0.84590  0.81640  1.0000 0.1413069922
H   H1389     1.0  0.80450  0.90850  0.83240  1.0000 0.1499769435
H   H1390     1.0  0.70350  0.91160  0.73830  1.0000 0.1413069922
H   H1391     1.0  0.72910  0.95070  0.77100  1.0000 0.1567888737
H   H1392     1.0  0.67230  0.88640  0.76410  1.0000 0.1499769435
H   H1393     1.0  0.79450  0.02810  0.71800  1.0000 0.1413069922
H   H1394     1.0  0.76120  0.99230  0.68290  1.0000 0.1413069922
H   H1395     1.0  0.79960  0.05290  0.69230  1.0000 0.1499769435
H   H1396     1.0  0.96060  0.10140  0.66260  1.0000 0.1413069922
H   H1397     1.0  0.99460  0.15640  0.68440  1.0000 0.1499769435
H   H1398     1.0  0.95870  0.13180  0.65050  1.0000 0.1413069922
H   H1399     1.0  0.03200  0.10570  0.71330  1.0000 0.1413069922
H   H1400     1.0  0.05000  0.08710  0.71030  1.0000 0.1413069922
H   H1401     1.0  0.07930  0.13280  0.74010  1.0000 0.1567888737
H   H1402     1.0  0.89490  0.92710  0.77900  1.0000 0.1413069922
H   H1403     1.0  0.94290  0.97870  0.80840  1.0000 0.1499769435
H   H1404     1.0  0.95020  0.95530  0.78830  1.0000 0.1413069922
H   H1405     1.0  0.71590  0.97000  0.92070  1.0000 0.1413069922
H   H1406     1.0  0.74300  0.00590  0.95510  1.0000 0.1499769435
H   H1407     1.0  0.76660  0.99630  0.94190  1.0000 0.1499769435
H   H1408     1.0  0.61300  0.80780  0.99520  1.0000 0.1499769435
H   H1409     1.0  0.65710  0.86370  0.02140  1.0000 0.1567888737
H   H1410     1.0  0.59940  0.82930  0.00570  1.0000 0.1499769435
H   H1411     1.0  0.50100  0.67480  0.95640  1.0000 0.1413069922
H   H1412     1.0  0.49310  0.63470  0.96240  1.0000 0.1499769435
H   H1413     1.0  0.55240  0.69880  0.97260  1.0000 0.1413069922
H   H1414     1.0  0.54940  0.64600  0.84480  1.0000 0.1413069922
H   H1415     1.0  0.53530  0.60880  0.86350  1.0000 0.1499769435
H   H1416     1.0  0.48760  0.58700  0.84220  1.0000 0.1413069922
H   H1417     1.0  0.58600  0.72320  0.78420  1.0000 0.1413069922
H   H1418     1.0  0.64050  0.76720  0.77390  1.0000 0.1413069922
H   H1419     1.0  0.63810  0.75040  0.80390  1.0000 0.1499769435
H   H1420     1.0  0.72560  0.94290  0.86190  1.0000 0.1413069922
H   H1421     1.0  0.75530  0.95810  0.83620  1.0000 0.1567888737
H   H1422     1.0  0.70220  0.93370  0.82810  1.0000 0.1499769435
H   H1423     1.0  0.63960  0.12140  0.61920  1.0000 0.1413069922
H   H1424     1.0  0.69430  0.14860  0.62690  1.0000 0.1567888737
H   H1425     1.0  0.69190  0.17670  0.61120  1.0000 0.1499769435
H   H1426     1.0  0.63400  0.05280  0.49380  1.0000 0.1413069922
H   H1427     1.0  0.69100  0.09050  0.51530  1.0000 0.1413069922
H   H1428     1.0  0.63660  0.02800  0.51440  1.0000 0.1567888737
H   H1429     1.0  0.51030  0.91690  0.46060  1.0000 0.1499769435
H   H1430     1.0  0.46380  0.86080  0.43400  1.0000 0.1567888737
H   H1431     1.0  0.48850  0.91140  0.42770  1.0000 0.1499769435
H   H1432     1.0  0.30240  0.80910  0.46770  1.0000 0.1413069922
H   H1433     1.0  0.28010  0.76490  0.44100  1.0000 0.1413069922
H   H1434     1.0  0.29230  0.76830  0.47600  1.0000 0.1567888737
H   H1435     1.0  0.31260  0.85630  0.53570  1.0000 0.1413069922
H   H1436     1.0  0.29860  0.85050  0.56770  1.0000 0.1499769435
H   H1437     1.0  0.30470  0.88260  0.54890  1.0000 0.1499769435
H   H1438     1.0  0.53820  0.07490  0.62550  1.0000 0.1340587646
H   H1439     1.0  0.49910  0.05860  0.64330  1.0000 0.1499769435
H   H1440     1.0  0.50970  0.03300  0.64530  1.0000 0.1499769435
C   C1        1.0  0.99839  0.38575  0.91714  1.0000 -0.4982655271
C   C2        1.0  0.95709  0.37168  0.92537  1.0000 0.1906561914
C   C3        1.0  0.90107  0.32512  0.91239  1.0000 -0.1111949565
C   C4        1.0  0.88317  0.33319  0.92916  1.0000 0.1906561914
C   C5        1.0  0.82703  0.29659  0.92682  1.0000 -0.4710125925
C   C6        1.0  0.85679  0.33861  0.53180  1.0000 -0.4982655271
C   C7        1.0  0.90503  0.36641  0.52344  1.0000 0.1989325671
C   C8        1.0  0.93086  0.36077  0.53043  1.0000 -0.1111949565
C   C9        1.0  0.97566  0.39859  0.51865  1.0000 0.1989325671
C   C10       1.0  0.01844  0.41253  0.51917  1.0000 -0.4788335699
C   C11       1.0  0.17538  0.62184  0.09562  1.0000 -0.4898954831
C   C12       1.0  0.16169  0.59416  0.06445  1.0000 0.1906561914
C   C13       1.0  0.19045  0.59737  0.05202  1.0000 -0.120567544
C   C14       1.0  0.15868  0.56395  0.02203  1.0000 0.1989325671
C   C15       1.0  0.16770  0.55030  0.99740  1.0000 -0.4898954831
C   C16       1.0  0.56644  0.73061  0.47905  1.0000 -0.4788335699
C   C17       1.0  0.56580  0.71829  0.44709  1.0000 0.1906561914
C   C18       1.0  0.55517  0.68124  0.43301  1.0000 -0.120567544
C   C19       1.0  0.56153  0.68823  0.40376  1.0000 0.1989325671
C   C20       1.0  0.55315  0.65843  0.37718  1.0000 -0.4898954831
C   C21       1.0  0.26152  0.45883  0.13275  1.0000 -0.4788335699
C   C22       1.0  0.31199  0.49640  0.15719  1.0000 0.1906561914
C   C23       1.0  0.36204  0.55254  0.16518  1.0000 -0.120567544
C   C24       1.0  0.39455  0.56601  0.18936  1.0000 0.1906561914
C   C25       1.0  0.45169  0.62080  0.20689  1.0000 -0.4982655271
C   C26       1.0  0.73702  0.01076  0.42478  1.0000 -0.4898954831
C   C27       1.0  0.70511  0.96778  0.44069  1.0000 0.1989325671
C   C28       1.0  0.70355  0.96972  0.47107  1.0000 -0.103561947
C   C29       1.0  0.66667  0.91769  0.47321  1.0000 0.1834393429
C   C30       1.0  0.64761  0.89498  0.49959  1.0000 -0.4788335699
C   C31       1.0  0.48254  0.10931  0.66205  1.0000 -0.4982655271
C   C32       1.0  0.43463  0.08114  0.67177  1.0000 0.2073849098
C   C33       1.0  0.40671  0.08359  0.66590  1.0000 -0.120567544
C   C34       1.0  0.36620  0.04904  0.68044  1.0000 0.1906561914
C   C35       1.0  0.32249  0.03375  0.68184  1.0000 -0.4898954831
C   C36       1.0  0.43723  0.17592  0.69455  1.0000 -0.4788335699
C   C37       1.0  0.43583  0.16087  0.66350  1.0000 0.1989325671
C   C38       1.0  0.42111  0.11996  0.65047  1.0000 -0.120567544
C   C39       1.0  0.42967  0.12648  0.62155  1.0000 0.2073849098
C   C40       1.0  0.41956  0.09368  0.59624  1.0000 -0.4982655271
C   C41       1.0  0.47975  0.98991  0.80166  1.0000 -0.4710125925
C   C42       1.0  0.48893  0.01107  0.77500  1.0000 0.1989325671
C   C43       1.0  0.53041  0.04131  0.76132  1.0000 -0.1275929956
C   C44       1.0  0.52134  0.05360  0.73914  1.0000 0.1906561914
C   C45       1.0  0.55223  0.08497  0.71720  1.0000 -0.4982655271
C   C46       1.0  0.74245  0.51155  0.59440  1.0000 -0.4898954831
C   C47       1.0  0.79519  0.55980  0.61919  1.0000 0.1989325671
C   C48       1.0  0.82495  0.56475  0.63910  1.0000 -0.1111949565
C   C49       1.0  0.87049  0.61923  0.65692  1.0000 0.1906561914
C   C50       1.0  0.91775  0.64952  0.68147  1.0000 -0.4898954831
C   C51       1.0  0.80202  0.52521  0.69963  1.0000 -0.4898954831
C   C52       1.0  0.79848  0.50481  0.67029  1.0000 0.1989325671
C   C53       1.0  0.80887  0.52193  0.64360  1.0000 -0.120567544
C   C54       1.0  0.79596  0.48615  0.62291  1.0000 0.1989325671
C   C55       1.0  0.79896  0.48439  0.59075  1.0000 -0.4982655271
C   C56       1.0  0.79662  0.74616  0.59618  1.0000 -0.4788335699
C   C57       1.0  0.77445  0.69679  0.59044  1.0000 0.2073849098
C   C58       1.0  0.72397  0.64421  0.57278  1.0000 -0.120567544
C   C59       1.0  0.72657  0.61622  0.57619  1.0000 0.1906561914
C   C60       1.0  0.68453  0.55761  0.56314  1.0000 -0.4982655271
C   C61       1.0  0.30119  0.68952  0.03151  1.0000 -0.4982655271
C   C62       1.0  0.28819  0.66333  0.05592  1.0000 0.1906561914
C   C63       1.0  0.24242  0.62662  0.06644  1.0000 -0.1111949565
C   C64       1.0  0.25316  0.61756  0.09072  1.0000 0.1989325671
C   C65       1.0  0.21906  0.58214  0.11080  1.0000 -0.4788335699
C   C66       1.0  0.30821  0.57191  0.16292  1.0000 -0.4898954831
C   C67       1.0  0.35054  0.59539  0.14833  1.0000 0.1906561914
C   C68       1.0  0.37498  0.58820  0.14998  1.0000 -0.103561947
C   C69       1.0  0.41180  0.62070  0.13290  1.0000 0.1989325671
C   C70       1.0  0.45041  0.62991  0.12632  1.0000 -0.4788335699
C   C71       1.0  0.48766  0.69511  0.02397  1.0000 -0.4982655271
C   C72       1.0  0.46989  0.71083  0.02492  1.0000 0.1906561914
C   C73       1.0  0.46220  0.72450  0.00210  1.0000 -0.120567544
C   C74       1.0  0.44532  0.73586  0.01458  1.0000 0.1834393429
C   C75       1.0  0.42909  0.75105  0.00094  1.0000 -0.4898954831
C   C76       1.0  0.96794  0.17356  0.59990  1.0000 -0.4982655271
C   C77       1.0  0.98752  0.22071  0.60563  1.0000 0.1906561914
C   C78       1.0  0.03956  0.27543  0.61979  1.0000 -0.1111949565
C   C79       1.0  0.03481  0.30183  0.62044  1.0000 0.1906561914
C   C80       1.0  0.07692  0.36086  0.63218  1.0000 -0.4788335699
C   C81       1.0  0.99785  0.38434  0.59059  1.0000 -0.4898954831
C   C82       1.0  0.94267  0.33120  0.56847  1.0000 0.1906561914
C   C83       1.0  0.91349  0.32165  0.54414  1.0000 -0.120567544
C   C84       1.0  0.86490  0.26506  0.53256  1.0000 0.2073849098
C   C85       1.0  0.81609  0.23006  0.50695  1.0000 -0.4788335699
C   C86       1.0  0.70802  0.04504  0.47766  1.0000 -0.4982655271
C   C87       1.0  0.73947  0.05050  0.49877  1.0000 0.1906561914
C   C88       1.0  0.73676  0.01766  0.49642  1.0000 -0.120567544
C   C89       1.0  0.77390  0.04027  0.52277  1.0000 0.1906561914
C   C90       1.0  0.78866  0.02239  0.53285  1.0000 -0.4710125925
C   C91       1.0  0.09261  0.27061  0.58122  1.0000 -0.4710125925
C   C92       1.0  0.11160  0.29764  0.61404  1.0000 0.1906561914
C   C93       1.0  0.08996  0.30062  0.63118  1.0000 -0.120567544
C   C94       1.0  0.12491  0.33121  0.66032  1.0000 0.1906561914
C   C95       1.0  0.12289  0.34853  0.68862  1.0000 -0.4982655271
C   C96       1.0  0.28535  0.48175  0.76530  1.0000 -0.4982655271
C   C97       1.0  0.32675  0.49929  0.75384  1.0000 0.1989325671
C   C98       1.0  0.38290  0.54499  0.76629  1.0000 -0.120567544
C   C99       1.0  0.40092  0.54182  0.74534  1.0000 0.1834393429
C   C100      1.0  0.45692  0.57833  0.74645  1.0000 -0.4898954831
C   C101      1.0  0.43988  0.51733  0.64041  1.0000 -0.4644512039
C   C102      1.0  0.38170  0.46835  0.62205  1.0000 0.1906561914
C   C103      1.0  0.35814  0.44045  0.59099  1.0000 -0.120567544
C   C104      1.0  0.30260  0.39859  0.58639  1.0000 0.1906561914
C   C105      1.0  0.25644  0.35380  0.55864  1.0000 -0.4982655271
C   C106      1.0  0.61944  0.93224  0.89748  1.0000 -0.4710125925
C   C107      1.0  0.60352  0.89735  0.86987  1.0000 0.1989325671
C   C108      1.0  0.61505  0.90649  0.84174  1.0000 -0.1275929956
C   C109      1.0  0.58703  0.85921  0.82404  1.0000 0.1989325671
C   C110      1.0  0.58439  0.84480  0.79239  1.0000 -0.4982655271
C   C111      1.0  0.47099  0.66769  0.76628  1.0000 -0.4788335699
C   C112      1.0  0.45003  0.64186  0.79209  1.0000 0.1906561914
C   C113      1.0  0.41394  0.58978  0.79312  1.0000 -0.1111949565
C   C114      1.0  0.40890  0.58928  0.82278  1.0000 0.1989325671
C   C115      1.0  0.37710  0.54557  0.83807  1.0000 -0.4982655271
C   C116      1.0  0.40083  0.62541  0.94564  1.0000 -0.4710125925
C   C117      1.0  0.44416  0.68431  0.94747  1.0000 0.1989325671
C   C118      1.0  0.47016  0.72638  0.97114  1.0000 -0.1275929956
C   C119      1.0  0.50137  0.76921  0.95858  1.0000 0.1989325671
C   C120      1.0  0.53831  0.82590  0.97261  1.0000 -0.4982655271
C   C121      1.0  0.52014  0.96174  0.75368  1.0000 -0.4898954831
C   C122      1.0  0.56943  0.02173  0.76556  1.0000 0.1906561914
C   C123      1.0  0.57441  0.05681  0.76862  1.0000 -0.103561947
C   C124      1.0  0.62994  0.10841  0.78015  1.0000 0.2073849098
C   C125      1.0  0.65980  0.16208  0.78788  1.0000 -0.4982655271
C   C126      1.0  0.83139  0.28850  0.84849  1.0000 -0.4898954831
C   C127      1.0  0.83533  0.26183  0.85956  1.0000 0.1906561914
C   C128      1.0  0.86745  0.27854  0.88639  1.0000 -0.1111949565
C   C129      1.0  0.85670  0.23954  0.88344  1.0000 0.2073849098
C   C130      1.0  0.88084  0.23677  0.90541  1.0000 -0.4788335699
C   C131      1.0  0.74332  0.03480  0.86912  1.0000 -0.4898954831
C   C132      1.0  0.69933  0.00962  0.84415  1.0000 0.1906561914
C   C133      1.0  0.64553  0.95473  0.83206  1.0000 -0.1111949565
C   C134      1.0  0.62299  0.95390  0.80869  1.0000 0.1989325671
C   C135      1.0  0.56731  0.90735  0.78746  1.0000 -0.4982655271
C   C136      1.0  0.35799  0.47032  0.52931  1.0000 -0.4982655271
C   C137      1.0  0.38926  0.47115  0.54261  1.0000 0.1989325671
C   C138      1.0  0.38809  0.45628  0.56837  1.0000 -0.120567544
C   C139      1.0  0.42502  0.46395  0.57017  1.0000 0.1906561914
C   C140      1.0  0.43965  0.45312  0.59197  1.0000 -0.4898954831
C   C141      1.0  0.60760  0.55073  0.58593  1.0000 -0.4898954831
C   C142      1.0  0.62599  0.57984  0.56183  1.0000 0.1989325671
C   C143      1.0  0.67660  0.62098  0.55618  1.0000 -0.120567544
C   C144      1.0  0.67108  0.63348  0.53196  1.0000 0.1906561914
C   C145      1.0  0.71056  0.67229  0.51465  1.0000 -0.4898954831
C   C146      1.0  0.62566  0.68003  0.44389  1.0000 -0.4788335699
C   C147      1.0  0.57414  0.64501  0.45155  1.0000 0.1989325671
C   C148      1.0  0.54339  0.64504  0.44623  1.0000 -0.120567544
C   C149      1.0  0.50033  0.60491  0.45844  1.0000 0.1906561914
C   C150      1.0  0.45453  0.58651  0.45984  1.0000 -0.4982655271
C   C151      1.0  0.96861  0.08125  0.58286  1.0000 -0.4982655271
C   C152      1.0  0.94631  0.03172  0.57463  1.0000 0.1906561914
C   C153      1.0  0.91273  0.98868  0.58761  1.0000 -0.1111949565
C   C154      1.0  0.90403  0.95401  0.57084  1.0000 0.1906561914
C   C155      1.0  0.86977  0.90021  0.57318  1.0000 -0.4710125925
C   C156      1.0  0.30681  0.32499  0.96820  1.0000 -0.4982655271
C   C157      1.0  0.34297  0.38159  0.97656  1.0000 0.1989325671
C   C158      1.0  0.33034  0.40043  0.96957  1.0000 -0.1111949565
C   C159      1.0  0.37994  0.45701  0.98135  1.0000 0.1989325671
C   C160      1.0  0.39336  0.49927  0.98083  1.0000 -0.4788335699
C   C161      1.0  0.02622  0.07976  0.40438  1.0000 -0.4898954831
C   C162      1.0  0.02971  0.09724  0.43555  1.0000 0.1906561914
C   C163      1.0  0.04535  0.13843  0.44798  1.0000 -0.120567544
C   C164      1.0  0.04192  0.13665  0.47797  1.0000 0.1989325671
C   C165      1.0  0.05290  0.17030  0.50260  1.0000 -0.4898954831
C   C166      1.0  0.75156  0.08739  0.02095  1.0000 -0.4788335699
C   C167      1.0  0.77120  0.11871  0.05291  1.0000 0.1906561914
C   C168      1.0  0.74823  0.12216  0.06699  1.0000 -0.120567544
C   C169      1.0  0.78447  0.15777  0.09624  1.0000 0.1989325671
C   C170      1.0  0.78125  0.17597  0.12282  1.0000 -0.4898954831
C   C171      1.0  0.82608  0.12877  0.36725  1.0000 -0.4710125925
C   C172      1.0  0.83921  0.15480  0.34281  1.0000 0.1906561914
C   C173      1.0  0.88736  0.19686  0.33482  1.0000 -0.120567544
C   C174      1.0  0.87665  0.20519  0.31064  1.0000 0.1834393429
C   C175      1.0  0.91391  0.24480  0.29311  1.0000 -0.4982655271
C   C176      1.0  0.08598  0.31224  0.07522  1.0000 -0.4898954831
C   C177      1.0  0.02709  0.26442  0.05931  1.0000 0.1989325671
C   C178      1.0  0.99865  0.23248  0.02893  1.0000 -0.103561947
C   C179      1.0  0.94448  0.19351  0.02679  1.0000 0.1834393429
C   C180      1.0  0.89539  0.14802  0.00041  1.0000 -0.4788335699
C   C181      1.0  0.94726  0.82049  0.83795  1.0000 -0.4982655271
C   C182      1.0  0.90937  0.76286  0.82823  1.0000 0.2073849098
C   C183      1.0  0.91769  0.74081  0.83410  1.0000 -0.120567544
C   C184      1.0  0.86860  0.68576  0.81956  1.0000 0.1906561914
C   C185      1.0  0.85191  0.64065  0.81816  1.0000 -0.4898954831
C   C186      1.0  0.98137  0.74268  0.80545  1.0000 -0.4788335699
C   C187      1.0  0.99737  0.77233  0.83650  1.0000 0.1989325671
C   C188      1.0  0.96949  0.77064  0.84953  1.0000 -0.120567544
C   C189      1.0  0.00493  0.80812  0.87845  1.0000 0.2073849098
C   C190      1.0  0.99744  0.82332  0.90376  1.0000 -0.4982655271
C   C191      1.0  0.68825  0.67809  0.69834  1.0000 -0.4710125925
C   C192      1.0  0.73607  0.71393  0.72500  1.0000 0.1989325671
C   C193      1.0  0.77999  0.76909  0.73868  1.0000 -0.1275929956
C   C194      1.0  0.81446  0.78220  0.76086  1.0000 0.1906561914
C   C195      1.0  0.86777  0.83503  0.78280  1.0000 -0.4982655271
C   C196      1.0  0.41715  0.14805  0.90560  1.0000 -0.4788335699
C   C197      1.0  0.44061  0.17600  0.88081  1.0000 0.1989325671
C   C198      1.0  0.42565  0.18585  0.86090  1.0000 -0.1111949565
C   C199      1.0  0.46231  0.21357  0.84308  1.0000 0.1906561914
C   C200      1.0  0.46805  0.23628  0.81853  1.0000 -0.4898954831
C   C201      1.0  0.32558  0.10239  0.80037  1.0000 -0.4898954831
C   C202      1.0  0.33452  0.12819  0.82971  1.0000 0.1989325671
C   C203      1.0  0.37833  0.16527  0.85640  1.0000 -0.120567544
C   C204      1.0  0.36324  0.17305  0.87709  1.0000 0.1989325671
C   C205      1.0  0.39364  0.20821  0.90925  1.0000 -0.4898954831
C   C206      1.0  0.64998  0.20044  0.90382  1.0000 -0.4788335699
C   C207      1.0  0.60635  0.18401  0.90956  1.0000 0.2073849098
C   C208      1.0  0.57143  0.15119  0.92722  1.0000 -0.120567544
C   C209      1.0  0.54003  0.15038  0.92381  1.0000 0.1906561914
C   C210      1.0  0.49447  0.12139  0.93686  1.0000 -0.4898954831
C   C211      1.0  0.15801  0.26968  0.46849  1.0000 -0.4982655271
C   C212      1.0  0.10741  0.23227  0.44408  1.0000 0.1906561914
C   C213      1.0  0.06018  0.17598  0.43356  1.0000 -0.1111949565
C   C214      1.0  0.02684  0.16244  0.40928  1.0000 0.1989325671
C   C215      1.0  0.97134  0.10826  0.38920  1.0000 -0.4788335699
C   C216      1.0  0.90899  0.14529  0.33708  1.0000 -0.4898954831
C   C217      1.0  0.94706  0.20221  0.35167  1.0000 0.1906561914
C   C218      1.0  0.93822  0.22500  0.35002  1.0000 -0.103561947
C   C219      1.0  0.98780  0.27890  0.36710  1.0000 0.1989325671
C   C220      1.0  0.00359  0.32409  0.37368  1.0000 -0.4788335699
C   C221      1.0  0.17114  0.46369  0.47603  1.0000 -0.4982655271
C   C222      1.0  0.18591  0.44497  0.47508  1.0000 0.1906561914
C   C223      1.0  0.22240  0.46010  0.49790  1.0000 -0.120567544
C   C224      1.0  0.22128  0.43074  0.48542  1.0000 0.1834393429
C   C225      1.0  0.25011  0.42815  0.49906  1.0000 -0.4898954831
C   C226      1.0  0.07366  0.36804  0.90010  1.0000 -0.4982655271
C   C227      1.0  0.11508  0.38189  0.89437  1.0000 0.1906561914
C   C228      1.0  0.15564  0.41977  0.88021  1.0000 -0.1111949565
C   C229      1.0  0.18139  0.41437  0.87956  1.0000 0.1906561914
C   C230      1.0  0.22868  0.44474  0.86782  1.0000 -0.4788335699
C   C231      1.0  0.29375  0.40726  0.90941  1.0000 -0.4898954831
C   C232      1.0  0.26273  0.37420  0.93153  1.0000 0.1906561914
C   C233      1.0  0.27751  0.36935  0.95586  1.0000 -0.120567544
C   C234      1.0  0.23250  0.33234  0.96744  1.0000 0.2073849098
C   C235      1.0  0.22311  0.30914  0.99305  1.0000 -0.4788335699
C   C236      1.0  0.06738  0.23036  0.02234  1.0000 -0.4982655271
C   C237      1.0  0.05173  0.24070  0.00123  1.0000 0.1906561914
C   C238      1.0  0.02124  0.24034  0.00358  1.0000 -0.120567544
C   C239      1.0  0.01750  0.25113  0.97723  1.0000 0.1906561914
C   C240      1.0  0.98954  0.25581  0.96715  1.0000 -0.4710125925
C   C241      1.0  0.18939  0.51139  0.91878  1.0000 -0.4710125925
C   C242      1.0  0.18360  0.49756  0.88596  1.0000 0.1906561914
C   C243      1.0  0.16944  0.45878  0.86882  1.0000 -0.120567544
C   C244      1.0  0.17089  0.46459  0.83968  1.0000 0.1906561914
C   C245      1.0  0.15991  0.43427  0.81138  1.0000 -0.4982655271
C   C246      1.0  0.21645  0.52005  0.73470  1.0000 -0.4982655271
C   C247      1.0  0.24545  0.57291  0.74616  1.0000 0.1989325671
C   C248      1.0  0.27870  0.61661  0.73371  1.0000 -0.120567544
C   C249      1.0  0.29648  0.65558  0.75466  1.0000 0.1834393429
C   C250      1.0  0.33188  0.71047  0.75355  1.0000 -0.4898954831
C   C251      1.0  0.37692  0.79947  0.85959  1.0000 -0.4644512039
C   C252      1.0  0.34630  0.75965  0.87795  1.0000 0.1906561914
C   C253      1.0  0.34946  0.76715  0.90901  1.0000 -0.120567544
C   C254      1.0  0.31220  0.71621  0.91361  1.0000 0.1906561914
C   C255      1.0  0.29516  0.69780  0.94136  1.0000 -0.4982655271
C   C256      1.0  0.53476  0.72196  0.60252  1.0000 -0.4710125925
C   C257      1.0  0.52748  0.73365  0.63013  1.0000 0.1989325671
C   C258      1.0  0.56475  0.77331  0.65826  1.0000 -0.1275929956
C   C259      1.0  0.53517  0.76299  0.67596  1.0000 0.1989325671
C   C260      1.0  0.55241  0.79200  0.70761  1.0000 -0.4982655271
C   C261      1.0  0.40141  0.70471  0.73372  1.0000 -0.4788335699
C   C262      1.0  0.34977  0.65794  0.70791  1.0000 0.1906561914
C   C263      1.0  0.29666  0.62082  0.70688  1.0000 -0.1111949565
C   C264      1.0  0.26650  0.58612  0.67722  1.0000 0.1989325671
C   C265      1.0  0.20750  0.53903  0.66193  1.0000 -0.4982655271
C   C266      1.0  0.17977  0.45519  0.55436  1.0000 -0.4710125925
C   C267      1.0  0.23684  0.49669  0.55253  1.0000 0.1989325671
C   C268      1.0  0.25524  0.49902  0.52886  1.0000 -0.1275929956
C   C269      1.0  0.31063  0.54279  0.54142  1.0000 0.1989325671
C   C270      1.0  0.35329  0.56570  0.52739  1.0000 -0.5054906012
C   C271      1.0  0.70806  0.76646  0.74632  1.0000 -0.4898954831
C   C272      1.0  0.75617  0.80387  0.73444  1.0000 0.1906561914
C   C273      1.0  0.78819  0.80579  0.73138  1.0000 -0.103561947
C   C274      1.0  0.82826  0.84979  0.71985  1.0000 0.1989325671
C   C275      1.0  0.87420  0.87192  0.71212  1.0000 -0.4982655271
C   C276      1.0  0.94001  0.98290  0.65151  1.0000 -0.4898954831
C   C277      1.0  0.90227  0.97577  0.64044  1.0000 0.1906561914
C   C278      1.0  0.89215  0.98106  0.61361  1.0000 -0.1111949565
C   C279      1.0  0.85610  0.97326  0.61656  1.0000 0.2073849098
C   C280      1.0  0.83136  0.97543  0.59459  1.0000 -0.4788335699
C   C281      1.0  0.66568  0.87420  0.63088  1.0000 -0.4898954831
C   C282      1.0  0.66547  0.85518  0.65585  1.0000 0.1906561914
C   C283      1.0  0.62267  0.81347  0.66794  1.0000 -0.1111949565
C   C284      1.0  0.64521  0.81430  0.69131  1.0000 0.1989325671
C   C285      1.0  0.61989  0.77985  0.71254  1.0000 -0.4898954831
C   C286      1.0  0.44101  0.82868  0.97069  1.0000 -0.4982655271
C   C287      1.0  0.42854  0.84665  0.95739  1.0000 0.1989325671
C   C288      1.0  0.38791  0.81972  0.93163  1.0000 -0.120567544
C   C289      1.0  0.39378  0.85485  0.92983  1.0000 0.1906561914
C   C290      1.0  0.36115  0.84768  0.90803  1.0000 -0.4898954831
C   C291      1.0  0.46480  0.02167  0.91407  1.0000 -0.4898954831
C   C292      1.0  0.51801  0.06416  0.93817  1.0000 0.1989325671
C   C293      1.0  0.56480  0.12042  0.94382  1.0000 -0.120567544
C   C294      1.0  0.60152  0.13912  0.96804  1.0000 0.1906561914
C   C295      1.0  0.65764  0.19591  0.98535  1.0000 -0.4898954831
C   C296      1.0  0.73614  0.18177  0.05611  1.0000 -0.4788335699
C   C297      1.0  0.69346  0.12259  0.04845  1.0000 0.1989325671
C   C298      1.0  0.69881  0.09716  0.05377  1.0000 -0.120567544
C   C299      1.0  0.64647  0.04189  0.04156  1.0000 0.1906561914
C   C300      1.0  0.62667  0.99469  0.04016  1.0000 -0.4982655271
C   C301      1.0  0.88575  0.46861  0.38736  1.0000 -0.4982655271
C   C302      1.0  0.87168  0.44631  0.41459  1.0000 0.1906561914
C   C303      1.0  0.82512  0.41273  0.42405  1.0000 -0.1111949565
C   C304      1.0  0.83319  0.40403  0.45002  1.0000 0.1906561914
C   C305      1.0  0.79659  0.36977  0.46956  1.0000 -0.4710125925
C   C306      1.0  0.83861  0.80681  0.48182  1.0000 -0.4982655271
C   C307      1.0  0.86641  0.84297  0.46138  1.0000 0.1989325671
C   C308      1.0  0.86077  0.83034  0.42991  1.0000 -0.1111949565
C   C309      1.0  0.89859  0.87994  0.42293  1.0000 0.1989325671
C   C310      1.0  0.91253  0.89336  0.39409  1.0000 -0.4788335699
C   C311      1.0  0.12184  0.52622  0.44646  1.0000 -0.4898954831
C   C312      1.0  0.09416  0.52971  0.43247  1.0000 0.1906561914
C   C313      1.0  0.09737  0.54535  0.40692  1.0000 -0.120567544
C   C314      1.0  0.06395  0.54192  0.40527  1.0000 0.1989325671
C   C315      1.0  0.05030  0.55290  0.38260  1.0000 -0.4898954831
C   C316      1.0  0.23061  0.25156  0.16417  1.0000 -0.4788335699
C   C317      1.0  0.21829  0.27120  0.15249  1.0000 0.1906561914
C   C318      1.0  0.18124  0.24823  0.12607  1.0000 -0.1111949565
C   C319      1.0  0.18823  0.28447  0.12670  1.0000 0.1989325671
C   C320      1.0  0.15843  0.28125  0.10528  1.0000 -0.4898954831
C   C321      1.0  0.95883  0.32608  0.19731  1.0000 -0.4710125925
C   C322      1.0  0.99640  0.33921  0.18441  1.0000 0.1906561914
C   C323      1.0  0.05254  0.38736  0.19050  1.0000 -0.120567544
C   C324      1.0  0.06601  0.37665  0.17146  1.0000 0.1906561914
C   C325      1.0  0.12080  0.41391  0.16911  1.0000 -0.4982655271
C   C326      1.0  0.51076  0.58598  0.27374  1.0000 -0.4898954831
C   C327      1.0  0.46778  0.52709  0.26267  1.0000 0.1989325671
C   C328      1.0  0.46972  0.49865  0.26617  1.0000 -0.103561947
C   C329      1.0  0.41769  0.44448  0.25097  1.0000 0.1834393429
C   C330      1.0  0.39498  0.39539  0.24737  1.0000 -0.4788335699
C   C331      1.0  0.60931  0.44726  0.62677  1.0000 -0.4982655271
C   C332      1.0  0.58114  0.40937  0.64651  1.0000 0.2073849098
C   C333      1.0  0.58359  0.41769  0.67688  1.0000 -0.120567544
C   C334      1.0  0.54904  0.36860  0.68284  1.0000 0.1906561914
C   C335      1.0  0.53375  0.35191  0.71126  1.0000 -0.4898954831
C   C336      1.0  0.67592  0.48137  0.73869  1.0000 -0.4788335699
C   C337      1.0  0.66087  0.49737  0.72504  1.0000 0.1989325671
C   C338      1.0  0.61996  0.46949  0.69885  1.0000 -0.120567544
C   C339      1.0  0.62648  0.50493  0.69681  1.0000 0.2073849098
C   C340      1.0  0.59368  0.49744  0.67412  1.0000 -0.4982655271
C   C341      1.0  0.48991  0.18825  0.51016  1.0000 -0.4710125925
C   C342      1.0  0.51107  0.23607  0.52214  1.0000 0.1989325671
C   C343      1.0  0.54131  0.27999  0.51090  1.0000 -0.1275929956
C   C344      1.0  0.55360  0.31446  0.53226  1.0000 0.1906561914
C   C345      1.0  0.58497  0.36777  0.53274  1.0000 -0.4982655271
C   C346      1.0  0.01155  0.91715  0.76910  1.0000 -0.4788335699
C   C347      1.0  0.05980  0.94061  0.76461  1.0000 0.1989325671
C   C348      1.0  0.06475  0.92565  0.73980  1.0000 -0.1111949565
C   C349      1.0  0.11923  0.96231  0.74874  1.0000 0.1906561914
C   C350      1.0  0.14952  0.96805  0.73177  1.0000 -0.4898954831
C   C351      1.0  0.02521  0.82558  0.72319  1.0000 -0.4898954831
C   C352      1.0  0.00481  0.83452  0.70633  1.0000 0.1989325671
C   C353      1.0  0.02193  0.87833  0.71306  1.0000 -0.120567544
C   C354      1.0  0.98615  0.86324  0.69019  1.0000 0.1989325671
C   C355      1.0  0.98439  0.89364  0.68543  1.0000 -0.4982655271
C   C356      1.0  0.24616  0.14998  0.94954  1.0000 -0.4788335699
C   C357      1.0  0.19679  0.10635  0.92234  1.0000 0.2073849098
C   C358      1.0  0.14421  0.07143  0.92024  1.0000 -0.120567544
C   C359      1.0  0.11622  0.04003  0.88965  1.0000 0.1906561914
C   C360      1.0  0.05761  0.99447  0.87308  1.0000 -0.4898954831
C   C361      1.0  0.18952  0.65801  0.38833  1.0000 -0.4982655271
C   C362      1.0  0.16333  0.60741  0.37514  1.0000 0.1906561914
C   C363      1.0  0.12662  0.56018  0.38420  1.0000 -0.1111949565
C   C364      1.0  0.11756  0.52684  0.36440  1.0000 0.1989325671
C   C365      1.0  0.08214  0.47134  0.36308  1.0000 -0.4788335699
C   C366      1.0  0.07191  0.40899  0.26370  1.0000 -0.4898954831
C   C367      1.0  0.09539  0.44706  0.24485  1.0000 0.1906561914
C   C368      1.0  0.08820  0.43822  0.21322  1.0000 -0.103561947
C   C369      1.0  0.12070  0.48780  0.20890  1.0000 0.1989325671
C   C370      1.0  0.12991  0.50359  0.17950  1.0000 -0.4788335699
C   C371      1.0  0.19511  0.67114  0.20745  1.0000 -0.4982655271
C   C372      1.0  0.21083  0.68591  0.24094  1.0000 0.1906561914
C   C373      1.0  0.22450  0.72240  0.26230  1.0000 -0.120567544
C   C374      1.0  0.23586  0.72128  0.29054  1.0000 0.1834393429
C   C375      1.0  0.25105  0.75011  0.32196  1.0000 -0.4898954831
C   C376      1.0  0.67356  0.57366  0.20562  1.0000 -0.4982655271
C   C377      1.0  0.72071  0.61508  0.23319  1.0000 0.1906561914
C   C378      1.0  0.77543  0.65564  0.23587  1.0000 -0.1111949565
C   C379      1.0  0.80183  0.68139  0.26702  1.0000 0.1906561914
C   C380      1.0  0.86086  0.72868  0.28394  1.0000 -0.4788335699
C   C381      1.0  0.88434  0.79375  0.38649  1.0000 -0.4898954831
C   C382      1.0  0.83120  0.76273  0.38853  1.0000 0.1906561914
C   C383      1.0  0.82165  0.77751  0.40816  1.0000 -0.120567544
C   C384      1.0  0.76506  0.73250  0.40016  1.0000 0.2073849098
C   C385      1.0  0.73006  0.72311  0.41397  1.0000 -0.4788335699
C   C386      1.0  0.54504  0.56738  0.33702  1.0000 -0.4982655271
C   C387      1.0  0.55050  0.55173  0.31103  1.0000 0.1906561914
C   C388      1.0  0.51766  0.52124  0.28090  1.0000 -0.120567544
C   C389      1.0  0.54027  0.51750  0.26637  1.0000 0.1906561914
C   C390      1.0  0.52239  0.48954  0.23373  1.0000 -0.4710125925
C   C391      1.0  0.77061  0.68939  0.17800  1.0000 -0.4710125925
C   C392      1.0  0.79764  0.68360  0.18604  1.0000 0.1906561914
C   C393      1.0  0.80062  0.66944  0.21066  1.0000 -0.120567544
C   C394      1.0  0.83121  0.67089  0.20630  1.0000 0.1906561914
C   C395      1.0  0.84853  0.65991  0.22564  1.0000 -0.4982655271
C   C396      1.0  0.98175  0.71645  0.19640  1.0000 -0.4982655271
C   C397      1.0  0.99929  0.74545  0.17254  1.0000 0.1989325671
C   C398      1.0  0.04499  0.77870  0.16209  1.0000 -0.120567544
C   C399      1.0  0.04182  0.79648  0.14090  1.0000 0.1834393429
C   C400      1.0  0.07833  0.83188  0.12141  1.0000 -0.4898954831
C   C401      1.0  0.01733  0.87692  0.07745  1.0000 -0.4710125925
C   C402      1.0  0.96835  0.84630  0.08665  1.0000 0.1906561914
C   C403      1.0  0.94045  0.84946  0.08231  1.0000 -0.120567544
C   C404      1.0  0.89859  0.81220  0.09599  1.0000 0.1906561914
C   C405      1.0  0.85380  0.79516  0.09736  1.0000 -0.4982655271
C   C406      1.0  0.43224  0.03476  0.31280  1.0000 -0.4710125925
C   C407      1.0  0.39735  0.02748  0.29383  1.0000 0.1989325671
C   C408      1.0  0.40649  0.06475  0.29144  1.0000 -0.1275929956
C   C409      1.0  0.35921  0.03517  0.27218  1.0000 0.1989325671
C   C410      1.0  0.34480  0.05241  0.26041  1.0000 -0.4982655271
C   C411      1.0  0.16769  0.90141  0.19670  1.0000 -0.4788335699
C   C412      1.0  0.14186  0.84977  0.19183  1.0000 0.1906561914
C   C413      1.0  0.08978  0.79666  0.17584  1.0000 -0.1111949565
C   C414      1.0  0.08928  0.76650  0.18038  1.0000 0.1989325671
C   C415      1.0  0.04557  0.70750  0.16847  1.0000 -0.4982655271
C   C416      1.0  0.12541  0.67977  0.22458  1.0000 -0.4710125925
C   C417      1.0  0.18431  0.73684  0.24015  1.0000 0.1989325671
C   C418      1.0  0.22638  0.75524  0.25622  1.0000 -0.1275929956
C   C419      1.0  0.26921  0.81063  0.26784  1.0000 0.1989325671
C   C420      1.0  0.32590  0.85329  0.28759  1.0000 -0.5054906012
C   C421      1.0  0.46174  0.20806  0.44160  1.0000 -0.4898954831
C   C422      1.0  0.52173  0.25617  0.45230  1.0000 0.1906561914
C   C423      1.0  0.55681  0.28819  0.48240  1.0000 -0.103561947
C   C424      1.0  0.60841  0.32826  0.47847  1.0000 0.1989325671
C   C425      1.0  0.66208  0.37420  0.50228  1.0000 -0.4982655271
C   C426      1.0  0.78850  0.44001  0.45711  1.0000 -0.4898954831
C   C427      1.0  0.76183  0.40227  0.42650  1.0000 0.1906561914
C   C428      1.0  0.77854  0.39215  0.41109  1.0000 -0.1111949565
C   C429      1.0  0.73954  0.35610  0.38284  1.0000 0.2073849098
C   C430      1.0  0.73677  0.33136  0.35593  1.0000 -0.4788335699
C   C431      1.0  0.53480  0.16568  0.29148  1.0000 -0.4898954831
C   C432      1.0  0.50962  0.16547  0.31029  1.0000 0.1906561914
C   C433      1.0  0.45473  0.12267  0.30920  1.0000 -0.1111949565
C   C434      1.0  0.45390  0.14521  0.33091  1.0000 0.1989325671
C   C435      1.0  0.40735  0.11989  0.34004  1.0000 -0.4982655271
C   C436      1.0  0.97032  0.94101  0.11233  1.0000 -0.4982655271
C   C437      1.0  0.97115  0.92854  0.08189  1.0000 0.1989325671
C   C438      1.0  0.95628  0.88791  0.06819  1.0000 -0.120567544
C   C439      1.0  0.96395  0.89378  0.03893  1.0000 0.1989325671
C   C440      1.0  0.95312  0.86115  0.01347  1.0000 -0.4898954831
C   C441      1.0  0.05073  0.96480  0.94313  1.0000 -0.4898954831
C   C442      1.0  0.07984  0.01801  0.95385  1.0000 0.1989325671
C   C443      1.0  0.12098  0.06480  0.94438  1.0000 -0.1275929956
C   C444      1.0  0.13348  0.10152  0.96240  1.0000 0.1906561914
C   C445      1.0  0.17229  0.15764  0.96173  1.0000 -0.4898954831
C   C446      1.0  0.18003  0.23614  0.05437  1.0000 -0.4788335699
C   C447      1.0  0.14501  0.19346  0.07087  1.0000 0.1989325671
C   C448      1.0  0.14504  0.19881  0.10165  1.0000 -0.120567544
C   C449      1.0  0.10491  0.14647  0.10458  1.0000 0.1906561914
C   C450      1.0  0.08651  0.12667  0.13198  1.0000 -0.4982655271
C   C451      1.0  0.58125  0.49839  0.11264  1.0000 -0.4982655271
C   C452      1.0  0.53172  0.45709  0.08541  1.0000 0.1906561914
C   C453      1.0  0.48868  0.40107  0.07595  1.0000 -0.1111949565
C   C454      1.0  0.45401  0.38317  0.04998  1.0000 0.1906561914
C   C455      1.0  0.40021  0.32703  0.03044  1.0000 -0.4710125925
C   C456      1.0  0.82499  0.35679  0.01818  1.0000 -0.4982655271
C   C457      1.0  0.88159  0.40503  0.03862  1.0000 0.1989325671
C   C458      1.0  0.90043  0.43086  0.07009  1.0000 -0.1111949565
C   C459      1.0  0.95701  0.47566  0.07707  1.0000 0.1989325671
C   C460      1.0  0.99927  0.51844  0.10591  1.0000 -0.4788335699
C   C461      1.0  0.57976  0.67538  0.05354  1.0000 -0.4898954831
C   C462      1.0  0.59724  0.66169  0.06753  1.0000 0.1906561914
C   C463      1.0  0.63843  0.69045  0.09308  1.0000 -0.120567544
C   C464      1.0  0.63665  0.65868  0.09473  1.0000 0.1989325671
C   C465      1.0  0.67030  0.66770  0.11740  1.0000 -0.4898954831
C   C466      1.0  0.58739  0.06644  0.33583  1.0000 -0.4788335699
C   C467      1.0  0.61871  0.06580  0.34751  1.0000 0.1906561914
C   C468      1.0  0.62216  0.05517  0.37393  1.0000 -0.1111949565
C   C469      1.0  0.65777  0.06153  0.37330  1.0000 0.1989325671
C   C470      1.0  0.67597  0.05315  0.39472  1.0000 -0.4898954831
C   C471      1.0  0.62877  0.76152  0.30269  1.0000 -0.4788335699
C   C472      1.0  0.65480  0.81199  0.31559  1.0000 0.1906561914
C   C473      1.0  0.69686  0.86204  0.30950  1.0000 -0.120567544
C   C474      1.0  0.70519  0.89455  0.32854  1.0000 0.1906561914
C   C475      1.0  0.74480  0.95169  0.33089  1.0000 -0.4982655271
C   C476      1.0  0.81224  0.23702  0.22626  1.0000 -0.4898954831
C   C477      1.0  0.76442  0.20511  0.23733  1.0000 0.1989325671
C   C478      1.0  0.73248  0.20355  0.23383  1.0000 -0.103561947
C   C479      1.0  0.69351  0.16672  0.24903  1.0000 0.1834393429
C   C480      1.0  0.64802  0.14761  0.25263  1.0000 -0.4788335699
C   C481      1.0  0.32049  0.98254  0.87323  1.0000 -0.4898954831
C   C482      1.0  0.26286  0.93463  0.85349  1.0000 0.1989325671
C   C483      1.0  0.24081  0.90671  0.82312  1.0000 -0.120567544
C   C484      1.0  0.18576  0.86620  0.81716  1.0000 0.1906561914
C   C485      1.0  0.14065  0.82249  0.78874  1.0000 -0.4898954831
C   C486      1.0  0.24268  0.93723  0.76131  1.0000 -0.4788335699
C   C487      1.0  0.27233  0.93583  0.77496  1.0000 0.1989325671
C   C488      1.0  0.27064  0.92111  0.80115  1.0000 -0.120567544
C   C489      1.0  0.30812  0.92967  0.80319  1.0000 0.2073849098
C   C490      1.0  0.32332  0.91956  0.82588  1.0000 -0.4982655271
C   C491      1.0  0.17809  0.97975  0.98984  1.0000 -0.4710125925
C   C492      1.0  0.21393  0.98893  0.97786  1.0000 0.1989325671
C   C493      1.0  0.26909  0.03041  0.98910  1.0000 -0.1275929956
C   C494      1.0  0.28220  0.02134  0.96774  1.0000 0.1906561914
C   C495      1.0  0.33503  0.05223  0.96726  1.0000 -0.4982655271
C   C496      1.0  0.64805  0.24245  0.73090  1.0000 -0.4898954831
C   C497      1.0  0.67600  0.29519  0.73539  1.0000 0.1989325671
C   C498      1.0  0.68585  0.32495  0.76020  1.0000 -0.1111949565
C   C499      1.0  0.71357  0.37049  0.75126  1.0000 0.1906561914
C   C500      1.0  0.73628  0.41775  0.76823  1.0000 -0.4898954831
C   C501      1.0  0.60239  0.30202  0.77681  1.0000 -0.4898954831
C   C502      1.0  0.62819  0.29848  0.79367  1.0000 0.1989325671
C   C503      1.0  0.66527  0.30887  0.78694  1.0000 -0.120567544
C   C504      1.0  0.67305  0.29596  0.80981  1.0000 0.1989325671
C   C505      1.0  0.70821  0.29896  0.81457  1.0000 -0.4982655271
C   C506      1.0  0.70044  0.29662  0.55046  1.0000 -0.4788335699
C   C507      1.0  0.68401  0.27445  0.57766  1.0000 0.2073849098
C   C508      1.0  0.65119  0.22397  0.57976  1.0000 -0.120567544
C   C509      1.0  0.65038  0.22657  0.61035  1.0000 0.1906561914
C   C510      1.0  0.62139  0.18453  0.62692  1.0000 -0.4898954831
C   C511      1.0  0.76968  0.80119  0.11167  1.0000 -0.4982655271
C   C512      1.0  0.73227  0.78819  0.12486  1.0000 0.1906561914
C   C513      1.0  0.67598  0.74242  0.11580  1.0000 -0.1111949565
C   C514      1.0  0.66244  0.75316  0.13560  1.0000 0.1989325671
C   C515      1.0  0.60826  0.71906  0.13692  1.0000 -0.4788335699
C   C516      1.0  0.64529  0.80821  0.23630  1.0000 -0.4898954831
C   C517      1.0  0.70221  0.85054  0.25515  1.0000 0.1906561914
C   C518      1.0  0.72500  0.87498  0.28678  1.0000 -0.103561947
C   C519      1.0  0.77890  0.91180  0.29110  1.0000 0.1989325671
C   C520      1.0  0.82409  0.95041  0.32050  1.0000 -0.4788335699
C   C521      1.0  0.96369  0.98766  0.29255  1.0000 -0.4982655271
C   C522      1.0  0.94497  0.96989  0.25906  1.0000 0.1906561914
C   C523      1.0  0.96010  0.96220  0.23770  1.0000 -0.120567544
C   C524      1.0  0.93074  0.94532  0.20946  1.0000 0.1834393429
C   C525      1.0  0.92815  0.92909  0.17804  1.0000 -0.4898954831
C   C526      1.0  0.86804  0.46794  0.29438  1.0000 -0.4982655271
C   C527      1.0  0.88189  0.48752  0.26681  1.0000 0.1906561914
C   C528      1.0  0.91977  0.53956  0.26413  1.0000 -0.1111949565
C   C529      1.0  0.91437  0.53481  0.23298  1.0000 0.1906561914
C   C530      1.0  0.94474  0.57692  0.21606  1.0000 -0.4788335699
C   C531      1.0  0.90726  0.49785  0.11351  1.0000 -0.4898954831
C   C532      1.0  0.87420  0.44267  0.11147  1.0000 0.1906561914
C   C533      1.0  0.86935  0.41349  0.09184  1.0000 -0.120567544
C   C534      1.0  0.83234  0.36490  0.09984  1.0000 0.2073849098
C   C535      1.0  0.80914  0.31609  0.08603  1.0000 -0.4788335699
C   C536      1.0  0.73036  0.20802  0.16298  1.0000 -0.4982655271
C   C537      1.0  0.74070  0.23947  0.18897  1.0000 0.1906561914
C   C538      1.0  0.74034  0.23676  0.21910  1.0000 -0.120567544
C   C539      1.0  0.75113  0.27390  0.23363  1.0000 0.1906561914
C   C540      1.0  0.75581  0.28866  0.26627  1.0000 -0.4710125925
C   C541      1.0  0.01139  0.59261  0.32200  1.0000 -0.4710125925
C   C542      1.0  0.99756  0.61160  0.31396  1.0000 0.1906561914
C   C543      1.0  0.95878  0.58996  0.28934  1.0000 -0.120567544
C   C544      1.0  0.96459  0.62491  0.29370  1.0000 0.1906561914
C   C545      1.0  0.93427  0.62289  0.27436  1.0000 -0.4982655271
C   C546      1.0  0.02005  0.78535  0.30360  1.0000 -0.4982655271
C   C547      1.0  0.07291  0.82675  0.32746  1.0000 0.1989325671
C   C548      1.0  0.11661  0.88290  0.33791  1.0000 -0.120567544
C   C549      1.0  0.15558  0.90092  0.35910  1.0000 0.1834393429
C   C550      1.0  0.21047  0.95692  0.37859  1.0000 -0.4898954831
C   C551      1.0  0.29947  0.93988  0.42255  1.0000 -0.4644512039
C   C552      1.0  0.25965  0.88170  0.41335  1.0000 0.1906561914
C   C553      1.0  0.26715  0.85814  0.41769  1.0000 -0.120567544
C   C554      1.0  0.21621  0.80260  0.40401  1.0000 0.1906561914
C   C555      1.0  0.19780  0.75644  0.40264  1.0000 -0.4982655271
C   C556      1.0  0.22196  0.11944  0.18720  1.0000 -0.4710125925
C   C557      1.0  0.23365  0.10352  0.20617  1.0000 0.1989325671
C   C558      1.0  0.27331  0.11505  0.20856  1.0000 -0.1275929956
C   C559      1.0  0.26299  0.08703  0.22782  1.0000 0.1989325671
C   C560      1.0  0.29200  0.08439  0.23959  1.0000 -0.4982655271
C   C561      1.0  0.20471  0.97099  0.30330  1.0000 -0.4788335699
C   C562      1.0  0.15794  0.95003  0.30817  1.0000 0.1906561914
C   C563      1.0  0.12082  0.91394  0.32416  1.0000 -0.1111949565
C   C564      1.0  0.08612  0.90890  0.31962  1.0000 0.1989325671
C   C565      1.0  0.03903  0.87710  0.33153  1.0000 -0.4982655271
C   C566      1.0  0.95519  0.90083  0.27542  1.0000 -0.4710125925
C   C567      1.0  0.99669  0.94416  0.25985  1.0000 0.1989325671
C   C568      1.0  0.99902  0.97016  0.24378  1.0000 -0.1275929956
C   C569      1.0  0.04279  0.00137  0.23216  1.0000 0.1989325671
C   C570      1.0  0.06570  0.03831  0.21241  1.0000 -0.5054906012
C   C571      1.0  0.26646  0.02014  0.05840  1.0000 -0.4898954831
C   C572      1.0  0.30387  0.06943  0.04770  1.0000 0.1906561914
C   C573      1.0  0.30579  0.07441  0.01760  1.0000 -0.103561947
C   C574      1.0  0.34979  0.12994  0.02153  1.0000 0.2073849098
C   C575      1.0  0.37192  0.15980  0.99772  1.0000 -0.4982655271
C   C576      1.0  0.48290  0.33139  0.04289  1.0000 -0.4898954831
C   C577      1.0  0.47577  0.33533  0.07350  1.0000 0.1906561914
C   C578      1.0  0.48106  0.36745  0.08891  1.0000 -0.1111949565
C   C579      1.0  0.47326  0.35670  0.11716  1.0000 0.2073849098
C   C580      1.0  0.47543  0.38084  0.14407  1.0000 -0.4788335699
C   C581      1.0  0.37420  0.24332  0.20852  1.0000 -0.4898954831
C   C582      1.0  0.35518  0.19933  0.18971  1.0000 0.1906561914
C   C583      1.0  0.31347  0.14553  0.19080  1.0000 -0.1111949565
C   C584      1.0  0.31430  0.12299  0.16909  1.0000 0.1989325671
C   C585      1.0  0.27985  0.06731  0.15996  1.0000 -0.4898954831
C   C586      1.0  0.32868  0.85799  0.38767  1.0000 -0.4982655271
C   C587      1.0  0.34665  0.88926  0.41811  1.0000 0.1989325671
C   C588      1.0  0.31972  0.88809  0.43181  1.0000 -0.120567544
C   C589      1.0  0.35485  0.92502  0.46107  1.0000 0.1906561914
C   C590      1.0  0.34768  0.93965  0.48653  1.0000 -0.4898954831
C   C591      1.0  0.52167  0.10760  0.55687  1.0000 -0.4898954831
C   C592      1.0  0.56416  0.12599  0.54615  1.0000 0.1989325671
C   C593      1.0  0.62042  0.17660  0.55562  1.0000 -0.1275929956
C   C594      1.0  0.63912  0.17108  0.53760  1.0000 0.1906561914
C   C595      1.0  0.69591  0.21056  0.53827  1.0000 -0.4898954831
C   C596      1.0  0.68177  0.12566  0.44563  1.0000 -0.4788335699
C   C597      1.0  0.62259  0.07414  0.42913  1.0000 0.1989325671
C   C598      1.0  0.59716  0.04339  0.39835  1.0000 -0.120567544
C   C599      1.0  0.54189  0.00033  0.39542  1.0000 0.1906561914
C   C600      1.0  0.49469  0.95453  0.36802  1.0000 -0.4982655271
C   C601      1.0  0.00161  0.61425  0.08286  1.0000 -0.4982655271
C   C602      1.0  0.04291  0.62832  0.07463  1.0000 0.1906561914
C   C603      1.0  0.09893  0.67488  0.08761  1.0000 -0.1111949565
C   C604      1.0  0.11683  0.66681  0.07084  1.0000 0.1906561914
C   C605      1.0  0.17297  0.70341  0.07318  1.0000 -0.4710125925
C   C606      1.0  0.14321  0.66139  0.46820  1.0000 -0.4982655271
C   C607      1.0  0.09497  0.63359  0.47656  1.0000 0.1989325671
C   C608      1.0  0.06914  0.63923  0.46957  1.0000 -0.1111949565
C   C609      1.0  0.02434  0.60141  0.48135  1.0000 0.1989325671
C   C610      1.0  0.98156  0.58747  0.48083  1.0000 -0.4788335699
C   C611      1.0  0.82462  0.37816  0.90438  1.0000 -0.4898954831
C   C612      1.0  0.83831  0.40584  0.93555  1.0000 0.1906561914
C   C613      1.0  0.80955  0.40263  0.94798  1.0000 -0.120567544
C   C614      1.0  0.84132  0.43605  0.97797  1.0000 0.1989325671
C   C615      1.0  0.83230  0.44970  0.00260  1.0000 -0.4898954831
C   C616      1.0  0.43356  0.26939  0.52095  1.0000 -0.4788335699
C   C617      1.0  0.43420  0.28171  0.55291  1.0000 0.1906561914
C   C618      1.0  0.44483  0.31876  0.56699  1.0000 -0.120567544
C   C619      1.0  0.43847  0.31177  0.59624  1.0000 0.1989325671
C   C620      1.0  0.44685  0.34157  0.62282  1.0000 -0.4898954831
C   C621      1.0  0.73848  0.54117  0.86725  1.0000 -0.4710125925
C   C622      1.0  0.68801  0.50360  0.84281  1.0000 0.1906561914
C   C623      1.0  0.63796  0.44746  0.83482  1.0000 -0.120567544
C   C624      1.0  0.60545  0.43399  0.81064  1.0000 0.1906561914
C   C625      1.0  0.54831  0.37920  0.79311  1.0000 -0.4982655271
C   C626      1.0  0.26298  0.98924  0.57522  1.0000 -0.4898954831
C   C627      1.0  0.29489  0.03222  0.55931  1.0000 0.1989325671
C   C628      1.0  0.29645  0.03028  0.52893  1.0000 -0.103561947
C   C629      1.0  0.33328  0.08231  0.52679  1.0000 0.1834393429
C   C630      1.0  0.35239  0.10502  0.50041  1.0000 -0.4788335699
C   C631      1.0  0.51746  0.89069  0.33795  1.0000 -0.4982655271
C   C632      1.0  0.56537  0.91886  0.32823  1.0000 0.2073849098
C   C633      1.0  0.59329  0.91641  0.33410  1.0000 -0.120567544
C   C634      1.0  0.63380  0.95096  0.31956  1.0000 0.1906561914
C   C635      1.0  0.67751  0.96625  0.31816  1.0000 -0.4898954831
C   C636      1.0  0.56277  0.82408  0.30545  1.0000 -0.4788335699
C   C637      1.0  0.56417  0.83913  0.33650  1.0000 0.1989325671
C   C638      1.0  0.57889  0.88004  0.34953  1.0000 -0.120567544
C   C639      1.0  0.57033  0.87352  0.37845  1.0000 0.2073849098
C   C640      1.0  0.58044  0.90632  0.40376  1.0000 -0.4982655271
C   C641      1.0  0.52025  0.01009  0.19834  1.0000 -0.4710125925
C   C642      1.0  0.51107  0.98893  0.22500  1.0000 0.1989325671
C   C643      1.0  0.46959  0.95869  0.23868  1.0000 -0.1275929956
C   C644      1.0  0.47866  0.94640  0.26086  1.0000 0.1906561914
C   C645      1.0  0.44777  0.91503  0.28280  1.0000 -0.4982655271
C   C646      1.0  0.25755  0.48845  0.40560  1.0000 -0.4788335699
C   C647      1.0  0.20481  0.44020  0.38081  1.0000 0.1989325671
C   C648      1.0  0.17505  0.43525  0.36090  1.0000 -0.1111949565
C   C649      1.0  0.12951  0.38077  0.34308  1.0000 0.1906561914
C   C650      1.0  0.08225  0.35048  0.31853  1.0000 -0.4898954831
C   C651      1.0  0.19798  0.47479  0.30037  1.0000 -0.4898954831
C   C652      1.0  0.20152  0.49519  0.32971  1.0000 0.1989325671
C   C653      1.0  0.19113  0.47807  0.35640  1.0000 -0.120567544
C   C654      1.0  0.20404  0.51385  0.37709  1.0000 0.1989325671
C   C655      1.0  0.20104  0.51561  0.40925  1.0000 -0.4982655271
C   C656      1.0  0.20338  0.25384  0.40382  1.0000 -0.4788335699
C   C657      1.0  0.22555  0.30321  0.40956  1.0000 0.2073849098
C   C658      1.0  0.27603  0.35579  0.42722  1.0000 -0.120567544
C   C659      1.0  0.27343  0.38378  0.42381  1.0000 0.1906561914
C   C660      1.0  0.31547  0.44239  0.43686  1.0000 -0.4898954831
C   C661      1.0  0.69881  0.31048  0.96849  1.0000 -0.4982655271
C   C662      1.0  0.71181  0.33667  0.94408  1.0000 0.1906561914
C   C663      1.0  0.75758  0.37338  0.93356  1.0000 -0.1111949565
C   C664      1.0  0.74684  0.38244  0.90928  1.0000 0.1989325671
C   C665      1.0  0.78094  0.41786  0.88920  1.0000 -0.4788335699
C   C666      1.0  0.69179  0.42809  0.83708  1.0000 -0.4898954831
C   C667      1.0  0.64946  0.40461  0.85167  1.0000 0.1906561914
C   C668      1.0  0.62502  0.41180  0.85002  1.0000 -0.103561947
C   C669      1.0  0.58820  0.37930  0.86710  1.0000 0.1989325671
C   C670      1.0  0.54959  0.37009  0.87368  1.0000 -0.4788335699
C   C671      1.0  0.51234  0.30489  0.97603  1.0000 -0.4982655271
C   C672      1.0  0.53011  0.28917  0.97508  1.0000 0.1906561914
C   C673      1.0  0.53780  0.27550  0.99790  1.0000 -0.120567544
C   C674      1.0  0.55468  0.26414  0.98542  1.0000 0.1834393429
C   C675      1.0  0.57091  0.24895  0.99906  1.0000 -0.4898954831
C   C676      1.0  0.03206  0.82644  0.40010  1.0000 -0.4982655271
C   C677      1.0  0.01248  0.77929  0.39437  1.0000 0.1906561914
C   C678      1.0  0.96044  0.72457  0.38021  1.0000 -0.1111949565
C   C679      1.0  0.96519  0.69817  0.37956  1.0000 0.1906561914
C   C680      1.0  0.92308  0.63914  0.36782  1.0000 -0.4788335699
C   C681      1.0  0.00215  0.61566  0.40941  1.0000 -0.4898954831
C   C682      1.0  0.05733  0.66880  0.43153  1.0000 0.1906561914
C   C683      1.0  0.08651  0.67835  0.45586  1.0000 -0.120567544
C   C684      1.0  0.13510  0.73494  0.46744  1.0000 0.2073849098
C   C685      1.0  0.18391  0.76994  0.49305  1.0000 -0.4788335699
C   C686      1.0  0.29198  0.95496  0.52234  1.0000 -0.4982655271
C   C687      1.0  0.26053  0.94950  0.50123  1.0000 0.1906561914
C   C688      1.0  0.26324  0.98234  0.50358  1.0000 -0.120567544
C   C689      1.0  0.22610  0.95973  0.47723  1.0000 0.1906561914
C   C690      1.0  0.21134  0.97761  0.46715  1.0000 -0.4710125925
C   C691      1.0  0.90739  0.72939  0.41878  1.0000 -0.4710125925
C   C692      1.0  0.88840  0.70236  0.38596  1.0000 0.1906561914
C   C693      1.0  0.91004  0.69938  0.36882  1.0000 -0.120567544
C   C694      1.0  0.87509  0.66879  0.33968  1.0000 0.1906561914
C   C695      1.0  0.87711  0.65147  0.31138  1.0000 -0.4982655271
C   C696      1.0  0.71465  0.51825  0.23470  1.0000 -0.4982655271
C   C697      1.0  0.67325  0.50071  0.24616  1.0000 0.1989325671
C   C698      1.0  0.61710  0.45501  0.23371  1.0000 -0.120567544
C   C699      1.0  0.59908  0.45818  0.25466  1.0000 0.1834393429
C   C700      1.0  0.54308  0.42167  0.25355  1.0000 -0.4898954831
C   C701      1.0  0.56012  0.48267  0.35959  1.0000 -0.4644512039
C   C702      1.0  0.61830  0.53165  0.37795  1.0000 0.1906561914
C   C703      1.0  0.64186  0.55955  0.40901  1.0000 -0.120567544
C   C704      1.0  0.69740  0.60141  0.41361  1.0000 0.1906561914
C   C705      1.0  0.74356  0.64620  0.44136  1.0000 -0.4982655271
C   C706      1.0  0.38056  0.06776  0.10252  1.0000 -0.4710125925
C   C707      1.0  0.39648  0.10265  0.13013  1.0000 0.1989325671
C   C708      1.0  0.38495  0.09351  0.15826  1.0000 -0.1275929956
C   C709      1.0  0.41297  0.14079  0.17596  1.0000 0.1989325671
C   C710      1.0  0.41561  0.15520  0.20761  1.0000 -0.4982655271
C   C711      1.0  0.52901  0.33231  0.23372  1.0000 -0.4788335699
C   C712      1.0  0.54997  0.35814  0.20791  1.0000 0.1906561914
C   C713      1.0  0.58606  0.41022  0.20688  1.0000 -0.1111949565
C   C714      1.0  0.59110  0.41072  0.17722  1.0000 0.1989325671
C   C715      1.0  0.62290  0.45443  0.16193  1.0000 -0.4982655271
C   C716      1.0  0.59917  0.37459  0.05436  1.0000 -0.4710125925
C   C717      1.0  0.55584  0.31569  0.05253  1.0000 0.1989325671
C   C718      1.0  0.52984  0.27362  0.02886  1.0000 -0.1275929956
C   C719      1.0  0.49863  0.23079  0.04142  1.0000 0.1989325671
C   C720      1.0  0.46169  0.17410  0.02739  1.0000 -0.5054906012
C   C721      1.0  0.47986  0.03826  0.24632  1.0000 -0.4898954831
C   C722      1.0  0.43057  0.97827  0.23444  1.0000 0.1906561914
C   C723      1.0  0.42559  0.94319  0.23138  1.0000 -0.103561947
C   C724      1.0  0.37006  0.89159  0.21985  1.0000 0.2073849098
C   C725      1.0  0.34020  0.83792  0.21212  1.0000 -0.4982655271
C   C726      1.0  0.16861  0.71150  0.15151  1.0000 -0.4898954831
C   C727      1.0  0.16467  0.73817  0.14044  1.0000 0.1906561914
C   C728      1.0  0.13255  0.72146  0.11361  1.0000 -0.1111949565
C   C729      1.0  0.14330  0.76046  0.11656  1.0000 0.2073849098
C   C730      1.0  0.11916  0.76323  0.09459  1.0000 -0.4788335699
C   C731      1.0  0.25668  0.96520  0.13088  1.0000 -0.4898954831
C   C732      1.0  0.30067  0.99038  0.15585  1.0000 0.1906561914
C   C733      1.0  0.35447  0.04527  0.16794  1.0000 -0.1111949565
C   C734      1.0  0.37701  0.04610  0.19131  1.0000 0.1989325671
C   C735      1.0  0.43269  0.09265  0.21254  1.0000 -0.4898954831
C   C736      1.0  0.64201  0.52968  0.47069  1.0000 -0.4982655271
C   C737      1.0  0.61074  0.52885  0.45739  1.0000 0.1989325671
C   C738      1.0  0.61191  0.54372  0.43163  1.0000 -0.120567544
C   C739      1.0  0.57498  0.53605  0.42983  1.0000 0.1989325671
C   C740      1.0  0.56035  0.54688  0.40803  1.0000 -0.4898954831
C   C741      1.0  0.39240  0.44927  0.41407  1.0000 -0.4898954831
C   C742      1.0  0.37401  0.42016  0.43817  1.0000 0.1989325671
C   C743      1.0  0.32340  0.37902  0.44382  1.0000 -0.120567544
C   C744      1.0  0.32892  0.36652  0.46804  1.0000 0.1906561914
C   C745      1.0  0.28944  0.32771  0.48535  1.0000 -0.4898954831
C   C746      1.0  0.37434  0.31997  0.55611  1.0000 -0.4788335699
C   C747      1.0  0.42586  0.35499  0.54845  1.0000 0.1989325671
C   C748      1.0  0.45661  0.35496  0.55377  1.0000 -0.120567544
C   C749      1.0  0.49967  0.39509  0.54156  1.0000 0.1906561914
C   C750      1.0  0.54547  0.41349  0.54016  1.0000 -0.4982655271
C   C751      1.0  0.03139  0.91875  0.41714  1.0000 -0.4982655271
C   C752      1.0  0.05369  0.96828  0.42537  1.0000 0.1906561914
C   C753      1.0  0.08727  0.01132  0.41239  1.0000 -0.1111949565
C   C754      1.0  0.09597  0.04599  0.42916  1.0000 0.1906561914
C   C755      1.0  0.13023  0.09979  0.42682  1.0000 -0.4710125925
C   C756      1.0  0.69319  0.67501  0.03180  1.0000 -0.4982655271
C   C757      1.0  0.65703  0.61841  0.02344  1.0000 0.1989325671
C   C758      1.0  0.66966  0.59957  0.03043  1.0000 -0.1111949565
C   C759      1.0  0.62006  0.54299  0.01865  1.0000 0.1989325671
C   C760      1.0  0.60664  0.50073  0.01917  1.0000 -0.4788335699
C   C761      1.0  0.97378  0.92024  0.59562  1.0000 -0.4898954831
C   C762      1.0  0.97029  0.90276  0.56445  1.0000 0.1906561914
C   C763      1.0  0.95465  0.86157  0.55202  1.0000 -0.120567544
C   C764      1.0  0.95808  0.86335  0.52203  1.0000 0.1989325671
C   C765      1.0  0.94710  0.82970  0.49740  1.0000 -0.4898954831
C   C766      1.0  0.24844  0.91261  0.97905  1.0000 -0.4788335699
C   C767      1.0  0.22880  0.88129  0.94709  1.0000 0.1906561914
C   C768      1.0  0.25177  0.87784  0.93301  1.0000 -0.120567544
C   C769      1.0  0.21553  0.84223  0.90376  1.0000 0.1989325671
C   C770      1.0  0.21875  0.82403  0.87718  1.0000 -0.4898954831
C   C771      1.0  0.17392  0.87123  0.63275  1.0000 -0.4710125925
C   C772      1.0  0.16079  0.84520  0.65719  1.0000 0.1906561914
C   C773      1.0  0.11264  0.80314  0.66518  1.0000 -0.120567544
C   C774      1.0  0.12335  0.79481  0.68936  1.0000 0.1906561914
C   C775      1.0  0.08609  0.75520  0.70689  1.0000 -0.4982655271
C   C776      1.0  0.91402  0.68776  0.92478  1.0000 -0.4898954831
C   C777      1.0  0.97291  0.73558  0.94069  1.0000 0.1989325671
C   C778      1.0  0.00135  0.76752  0.97107  1.0000 -0.103561947
C   C779      1.0  0.05552  0.80649  0.97321  1.0000 0.1834393429
C   C780      1.0  0.10461  0.85198  0.99959  1.0000 -0.4788335699
C   C781      1.0  0.05274  0.17951  0.16205  1.0000 -0.4982655271
C   C782      1.0  0.09063  0.23714  0.17177  1.0000 0.2073849098
C   C783      1.0  0.08231  0.25919  0.16590  1.0000 -0.120567544
C   C784      1.0  0.13140  0.31424  0.18044  1.0000 0.1906561914
C   C785      1.0  0.14809  0.35935  0.18184  1.0000 -0.4898954831
C   C786      1.0  0.01863  0.25732  0.19455  1.0000 -0.4788335699
C   C787      1.0  0.00263  0.22767  0.16350  1.0000 0.1989325671
C   C788      1.0  0.03051  0.22936  0.15047  1.0000 -0.120567544
C   C789      1.0  0.99507  0.19188  0.12155  1.0000 0.2073849098
C   C790      1.0  0.00256  0.17668  0.09624  1.0000 -0.4982655271
C   C791      1.0  0.31175  0.32191  0.30166  1.0000 -0.4710125925
C   C792      1.0  0.26393  0.28607  0.27500  1.0000 0.1989325671
C   C793      1.0  0.22001  0.23091  0.26132  1.0000 -0.1275929956
C   C794      1.0  0.18554  0.21780  0.23914  1.0000 0.1906561914
C   C795      1.0  0.13223  0.16497  0.21720  1.0000 -0.4982655271
C   C796      1.0  0.58285  0.85195  0.09440  1.0000 -0.4898954831
C   C797      1.0  0.55939  0.82400  0.11919  1.0000 0.1989325671
C   C798      1.0  0.57435  0.81415  0.13910  1.0000 -0.1111949565
C   C799      1.0  0.53769  0.78643  0.15692  1.0000 0.1906561914
C   C800      1.0  0.53195  0.76372  0.18147  1.0000 -0.4898954831
C   C801      1.0  0.67442  0.89761  0.19963  1.0000 -0.4898954831
C   C802      1.0  0.66548  0.87181  0.17029  1.0000 0.1989325671
C   C803      1.0  0.62167  0.83473  0.14360  1.0000 -0.120567544
C   C804      1.0  0.63676  0.82695  0.12291  1.0000 0.1989325671
C   C805      1.0  0.60636  0.79179  0.09075  1.0000 -0.4982655271
C   C806      1.0  0.35002  0.79956  0.09618  1.0000 -0.4788335699
C   C807      1.0  0.39365  0.81599  0.09044  1.0000 0.2073849098
C   C808      1.0  0.42857  0.84881  0.07278  1.0000 -0.120567544
C   C809      1.0  0.45997  0.84962  0.07619  1.0000 0.1906561914
C   C810      1.0  0.50553  0.87861  0.06314  1.0000 -0.4982655271
C   C811      1.0  0.84199  0.73032  0.53151  1.0000 -0.4982655271
C   C812      1.0  0.89259  0.76773  0.55592  1.0000 0.1906561914
C   C813      1.0  0.93982  0.82402  0.56644  1.0000 -0.1111949565
C   C814      1.0  0.97316  0.83756  0.59072  1.0000 0.1989325671
C   C815      1.0  0.02866  0.89174  0.61080  1.0000 -0.4788335699
C   C816      1.0  0.09101  0.85471  0.66292  1.0000 -0.4898954831
C   C817      1.0  0.05294  0.79779  0.64833  1.0000 0.1906561914
C   C818      1.0  0.06178  0.77500  0.64998  1.0000 -0.103561947
C   C819      1.0  0.01220  0.72110  0.63290  1.0000 0.1989325671
C   C820      1.0  0.99641  0.67591  0.62632  1.0000 -0.4788335699
C   C821      1.0  0.82886  0.53631  0.52397  1.0000 -0.4982655271
C   C822      1.0  0.81409  0.55503  0.52492  1.0000 0.1906561914
C   C823      1.0  0.77760  0.53990  0.50210  1.0000 -0.120567544
C   C824      1.0  0.77872  0.56926  0.51458  1.0000 0.1834393429
C   C825      1.0  0.74989  0.57185  0.50094  1.0000 -0.4898954831
C   C826      1.0  0.92634  0.63196  0.09990  1.0000 -0.4982655271
C   C827      1.0  0.88492  0.61811  0.10563  1.0000 0.1906561914
C   C828      1.0  0.84436  0.58023  0.11979  1.0000 -0.1111949565
C   C829      1.0  0.81861  0.58563  0.12044  1.0000 0.1906561914
C   C830      1.0  0.77132  0.55526  0.13218  1.0000 -0.4788335699
C   C831      1.0  0.70625  0.59274  0.09059  1.0000 -0.4898954831
C   C832      1.0  0.73727  0.62580  0.06847  1.0000 0.1906561914
C   C833      1.0  0.72249  0.63065  0.04414  1.0000 -0.120567544
C   C834      1.0  0.76750  0.66766  0.03256  1.0000 0.2073849098
C   C835      1.0  0.77689  0.69086  0.00695  1.0000 -0.4788335699
C   C836      1.0  0.93262  0.76964  0.97766  1.0000 -0.4982655271
C   C837      1.0  0.94827  0.75930  0.99877  1.0000 0.1906561914
C   C838      1.0  0.97876  0.75966  0.99642  1.0000 -0.120567544
C   C839      1.0  0.98250  0.74887  0.02277  1.0000 0.1906561914
C   C840      1.0  0.01046  0.74419  0.03285  1.0000 -0.4710125925
C   C841      1.0  0.81061  0.48861  0.08122  1.0000 -0.4788335699
C   C842      1.0  0.81640  0.50244  0.11404  1.0000 0.1906561914
C   C843      1.0  0.83056  0.54122  0.13118  1.0000 -0.120567544
C   C844      1.0  0.82911  0.53541  0.16032  1.0000 0.1906561914
C   C845      1.0  0.84009  0.56573  0.18862  1.0000 -0.4982655271
C   C846      1.0  0.78355  0.47995  0.26530  1.0000 -0.4982655271
C   C847      1.0  0.75455  0.42709  0.25384  1.0000 0.1989325671
C   C848      1.0  0.72130  0.38339  0.26629  1.0000 -0.120567544
C   C849      1.0  0.70352  0.34442  0.24534  1.0000 0.1834393429
C   C850      1.0  0.66812  0.28953  0.24645  1.0000 -0.4898954831
C   C851      1.0  0.62308  0.20053  0.14041  1.0000 -0.4710125925
C   C852      1.0  0.65370  0.24035  0.12205  1.0000 0.1906561914
C   C853      1.0  0.65054  0.23285  0.09099  1.0000 -0.120567544
C   C854      1.0  0.68780  0.28379  0.08639  1.0000 0.1906561914
C   C855      1.0  0.70484  0.30220  0.05864  1.0000 -0.4982655271
C   C856      1.0  0.46524  0.27804  0.39748  1.0000 -0.4710125925
C   C857      1.0  0.47252  0.26635  0.36987  1.0000 0.1989325671
C   C858      1.0  0.43525  0.22669  0.34174  1.0000 -0.1275929956
C   C859      1.0  0.46483  0.23701  0.32404  1.0000 0.1989325671
C   C860      1.0  0.44759  0.20800  0.29239  1.0000 -0.4982655271
C   C861      1.0  0.59859  0.29529  0.26628  1.0000 -0.4788335699
C   C862      1.0  0.65023  0.34206  0.29209  1.0000 0.1906561914
C   C863      1.0  0.70334  0.37918  0.29312  1.0000 -0.1111949565
C   C864      1.0  0.73350  0.41388  0.32278  1.0000 0.1989325671
C   C865      1.0  0.79250  0.46097  0.33807  1.0000 -0.4982655271
C   C866      1.0  0.82023  0.54481  0.44564  1.0000 -0.4710125925
C   C867      1.0  0.76316  0.50331  0.44747  1.0000 0.1989325671
C   C868      1.0  0.74476  0.50098  0.47114  1.0000 -0.1275929956
C   C869      1.0  0.68937  0.45721  0.45858  1.0000 0.1989325671
C   C870      1.0  0.64671  0.43430  0.47261  1.0000 -0.5054906012
C   C871      1.0  0.29194  0.23354  0.25368  1.0000 -0.4898954831
C   C872      1.0  0.24383  0.19613  0.26556  1.0000 0.1906561914
C   C873      1.0  0.21181  0.19421  0.26862  1.0000 -0.103561947
C   C874      1.0  0.17174  0.15021  0.28015  1.0000 0.2073849098
C   C875      1.0  0.12580  0.12808  0.28788  1.0000 -0.4982655271
C   C876      1.0  0.05999  0.01710  0.34849  1.0000 -0.4898954831
C   C877      1.0  0.09773  0.02423  0.35956  1.0000 0.1906561914
C   C878      1.0  0.10785  0.01894  0.38639  1.0000 -0.1111949565
C   C879      1.0  0.14390  0.02674  0.38344  1.0000 0.2073849098
C   C880      1.0  0.16864  0.02457  0.40541  1.0000 -0.4788335699
C   C881      1.0  0.33432  0.12580  0.36912  1.0000 -0.4898954831
C   C882      1.0  0.33453  0.14482  0.34415  1.0000 0.1906561914
C   C883      1.0  0.37733  0.18653  0.33206  1.0000 -0.1111949565
C   C884      1.0  0.35479  0.18570  0.30869  1.0000 0.1989325671
C   C885      1.0  0.38011  0.22015  0.28746  1.0000 -0.4982655271
C   C886      1.0  0.55899  0.17132  0.02931  1.0000 -0.4982655271
C   C887      1.0  0.57146  0.15335  0.04261  1.0000 0.1989325671
C   C888      1.0  0.61209  0.18028  0.06837  1.0000 -0.120567544
C   C889      1.0  0.60622  0.14515  0.07017  1.0000 0.1989325671
C   C890      1.0  0.63885  0.15232  0.09197  1.0000 -0.4898954831
C   C891      1.0  0.53520  0.97833  0.08593  1.0000 -0.4898954831
C   C892      1.0  0.48199  0.93584  0.06183  1.0000 0.1989325671
C   C893      1.0  0.43520  0.87958  0.05618  1.0000 -0.120567544
C   C894      1.0  0.39848  0.86088  0.03196  1.0000 0.1906561914
C   C895      1.0  0.34236  0.80409  0.01465  1.0000 -0.4898954831
C   C896      1.0  0.26386  0.81823  0.94389  1.0000 -0.4788335699
C   C897      1.0  0.30654  0.87741  0.95155  1.0000 0.1989325671
C   C898      1.0  0.30119  0.90284  0.94623  1.0000 -0.120567544
C   C899      1.0  0.35353  0.95811  0.95844  1.0000 0.1906561914
C   C900      1.0  0.37333  0.00531  0.95984  1.0000 -0.4982655271
C   C901      1.0  0.11425  0.53139  0.61264  1.0000 -0.4982655271
C   C902      1.0  0.12832  0.55369  0.58541  1.0000 0.1906561914
C   C903      1.0  0.17488  0.58727  0.57595  1.0000 -0.1111949565
C   C904      1.0  0.16681  0.59597  0.54998  1.0000 0.1906561914
C   C905      1.0  0.20341  0.63023  0.53044  1.0000 -0.4710125925
C   C906      1.0  0.16139  0.19319  0.51818  1.0000 -0.4982655271
C   C907      1.0  0.13359  0.15703  0.53862  1.0000 0.1989325671
C   C908      1.0  0.13923  0.16966  0.57009  1.0000 -0.1111949565
C   C909      1.0  0.10141  0.12006  0.57707  1.0000 0.1989325671
C   C910      1.0  0.08747  0.10664  0.60591  1.0000 -0.4788335699
C   C911      1.0  0.87816  0.47378  0.55354  1.0000 -0.4898954831
C   C912      1.0  0.90584  0.47029  0.56753  1.0000 0.1906561914
C   C913      1.0  0.90263  0.45465  0.59308  1.0000 -0.120567544
C   C914      1.0  0.93605  0.45808  0.59473  1.0000 0.1989325671
C   C915      1.0  0.94970  0.44710  0.61740  1.0000 -0.4898954831
C   C916      1.0  0.76939  0.74844  0.83583  1.0000 -0.4788335699
C   C917      1.0  0.78171  0.72880  0.84751  1.0000 0.1906561914
C   C918      1.0  0.81876  0.75177  0.87393  1.0000 -0.120567544
C   C919      1.0  0.81177  0.71553  0.87330  1.0000 0.1989325671
C   C920      1.0  0.84157  0.71875  0.89472  1.0000 -0.4898954831
C   C921      1.0  0.04117  0.67392  0.80269  1.0000 -0.4710125925
C   C922      1.0  0.00360  0.66079  0.81559  1.0000 0.1906561914
C   C923      1.0  0.94746  0.61264  0.80950  1.0000 -0.120567544
C   C924      1.0  0.93399  0.62335  0.82854  1.0000 0.1834393429
C   C925      1.0  0.87920  0.58609  0.83089  1.0000 -0.4982655271
C   C926      1.0  0.48924  0.41402  0.72626  1.0000 -0.4898954831
C   C927      1.0  0.53222  0.47291  0.73733  1.0000 0.1989325671
C   C928      1.0  0.53028  0.50135  0.73383  1.0000 -0.103561947
C   C929      1.0  0.58231  0.55552  0.74903  1.0000 0.1834393429
C   C930      1.0  0.60502  0.60461  0.75263  1.0000 -0.4788335699
C   C931      1.0  0.39069  0.55274  0.37323  1.0000 -0.4982655271
C   C932      1.0  0.41886  0.59063  0.35349  1.0000 0.2073849098
C   C933      1.0  0.41641  0.58231  0.32312  1.0000 -0.120567544
C   C934      1.0  0.45096  0.63140  0.31716  1.0000 0.1906561914
C   C935      1.0  0.46625  0.64809  0.28874  1.0000 -0.4898954831
C   C936      1.0  0.32408  0.51863  0.26131  1.0000 -0.4788335699
C   C937      1.0  0.33913  0.50263  0.27496  1.0000 0.1989325671
C   C938      1.0  0.38004  0.53051  0.30115  1.0000 -0.120567544
C   C939      1.0  0.37352  0.49507  0.30319  1.0000 0.2073849098
C   C940      1.0  0.40632  0.50256  0.32588  1.0000 -0.4982655271
C   C941      1.0  0.51009  0.81175  0.48984  1.0000 -0.4710125925
C   C942      1.0  0.48893  0.76393  0.47786  1.0000 0.1989325671
C   C943      1.0  0.45869  0.72001  0.48910  1.0000 -0.1275929956
C   C944      1.0  0.44640  0.68554  0.46774  1.0000 0.1906561914
C   C945      1.0  0.41503  0.63223  0.46726  1.0000 -0.4982655271
C   C946      1.0  0.98845  0.08285  0.23090  1.0000 -0.4898954831
C   C947      1.0  0.94020  0.05939  0.23539  1.0000 0.1989325671
C   C948      1.0  0.93525  0.07435  0.26020  1.0000 -0.1111949565
C   C949      1.0  0.88077  0.03769  0.25126  1.0000 0.1906561914
C   C950      1.0  0.85048  0.03195  0.26823  1.0000 -0.4898954831
C   C951      1.0  0.97479  0.17442  0.27681  1.0000 -0.4898954831
C   C952      1.0  0.99519  0.16548  0.29367  1.0000 0.1989325671
C   C953      1.0  0.97807  0.12167  0.28694  1.0000 -0.120567544
C   C954      1.0  0.01385  0.13676  0.30981  1.0000 0.1989325671
C   C955      1.0  0.01561  0.10636  0.31457  1.0000 -0.4898954831
C   C956      1.0  0.75384  0.85002  0.05046  1.0000 -0.4788335699
C   C957      1.0  0.80321  0.89365  0.07766  1.0000 0.2073849098
C   C958      1.0  0.85579  0.92857  0.07976  1.0000 -0.120567544
C   C959      1.0  0.88378  0.95997  0.11035  1.0000 0.1906561914
C   C960      1.0  0.94239  0.00553  0.12692  1.0000 -0.4982655271
C   C961      1.0  0.81048  0.34199  0.61167  1.0000 -0.4982655271
C   C962      1.0  0.83667  0.39259  0.62486  1.0000 0.1906561914
C   C963      1.0  0.87338  0.43982  0.61580  1.0000 -0.1111949565
C   C964      1.0  0.88244  0.47316  0.63560  1.0000 0.1989325671
C   C965      1.0  0.91786  0.52866  0.63692  1.0000 -0.4788335699
C   C966      1.0  0.92809  0.59101  0.73630  1.0000 -0.4898954831
C   C967      1.0  0.90461  0.55294  0.75515  1.0000 0.1906561914
C   C968      1.0  0.91180  0.56178  0.78678  1.0000 -0.103561947
C   C969      1.0  0.87930  0.51220  0.79110  1.0000 0.1989325671
C   C970      1.0  0.87009  0.49641  0.82050  1.0000 -0.4788335699
C   C971      1.0  0.80489  0.32886  0.79255  1.0000 -0.4982655271
C   C972      1.0  0.78917  0.31409  0.75906  1.0000 0.1906561914
C   C973      1.0  0.77550  0.27760  0.73770  1.0000 -0.120567544
C   C974      1.0  0.76414  0.27872  0.70946  1.0000 0.1834393429
C   C975      1.0  0.74895  0.24989  0.67804  1.0000 -0.4898954831
C   C976      1.0  0.32644  0.42634  0.79438  1.0000 -0.4982655271
C   C977      1.0  0.27929  0.38492  0.76681  1.0000 0.1906561914
C   C978      1.0  0.22457  0.34436  0.76413  1.0000 -0.1111949565
C   C979      1.0  0.19817  0.31861  0.73298  1.0000 0.1906561914
C   C980      1.0  0.13914  0.27132  0.71606  1.0000 -0.4788335699
C   C981      1.0  0.11566  0.20625  0.61351  1.0000 -0.4898954831
C   C982      1.0  0.16880  0.23727  0.61147  1.0000 0.1906561914
C   C983      1.0  0.17835  0.22249  0.59184  1.0000 -0.120567544
C   C984      1.0  0.23494  0.26750  0.59984  1.0000 0.2073849098
C   C985      1.0  0.26994  0.27689  0.58603  1.0000 -0.4788335699
C   C986      1.0  0.45496  0.43262  0.66298  1.0000 -0.4982655271
C   C987      1.0  0.44950  0.44827  0.68897  1.0000 0.1906561914
C   C988      1.0  0.48234  0.47876  0.71910  1.0000 -0.120567544
C   C989      1.0  0.45973  0.48250  0.73363  1.0000 0.1906561914
C   C990      1.0  0.47761  0.51046  0.76627  1.0000 -0.4710125925
C   C991      1.0  0.22939  0.31061  0.82200  1.0000 -0.4710125925
C   C992      1.0  0.20236  0.31640  0.81396  1.0000 0.1906561914
C   C993      1.0  0.19938  0.33056  0.78934  1.0000 -0.120567544
C   C994      1.0  0.16879  0.32911  0.79370  1.0000 0.1906561914
C   C995      1.0  0.15147  0.34009  0.77436  1.0000 -0.4982655271
C   C996      1.0  0.01825  0.28355  0.80360  1.0000 -0.4982655271
C   C997      1.0  0.00071  0.25455  0.82746  1.0000 0.1989325671
C   C998      1.0  0.95501  0.22130  0.83791  1.0000 -0.120567544
C   C999      1.0  0.95818  0.20352  0.85910  1.0000 0.1834393429
C   C1000     1.0  0.92167  0.16812  0.87859  1.0000 -0.4898954831
C   C1001     1.0  0.98267  0.12308  0.92255  1.0000 -0.4644512039
C   C1002     1.0  0.03165  0.15370  0.91335  1.0000 0.1906561914
C   C1003     1.0  0.05955  0.15054  0.91769  1.0000 -0.120567544
C   C1004     1.0  0.10141  0.18780  0.90401  1.0000 0.1906561914
C   C1005     1.0  0.14620  0.20484  0.90264  1.0000 -0.4982655271
C   C1006     1.0  0.56776  0.96524  0.68720  1.0000 -0.4710125925
C   C1007     1.0  0.60265  0.97252  0.70617  1.0000 0.1989325671
C   C1008     1.0  0.59351  0.93525  0.70856  1.0000 -0.1275929956
C   C1009     1.0  0.64079  0.96483  0.72782  1.0000 0.1989325671
C   C1010     1.0  0.65520  0.94759  0.73959  1.0000 -0.4982655271
C   C1011     1.0  0.83231  0.09859  0.80330  1.0000 -0.4788335699
C   C1012     1.0  0.85814  0.15023  0.80817  1.0000 0.1906561914
C   C1013     1.0  0.91022  0.20334  0.82416  1.0000 -0.1111949565
C   C1014     1.0  0.91072  0.23350  0.81962  1.0000 0.1989325671
C   C1015     1.0  0.95443  0.29250  0.83153  1.0000 -0.4982655271
C   C1016     1.0  0.87459  0.32023  0.77542  1.0000 -0.4710125925
C   C1017     1.0  0.81569  0.26316  0.75985  1.0000 0.1989325671
C   C1018     1.0  0.77362  0.24476  0.74378  1.0000 -0.1275929956
C   C1019     1.0  0.73079  0.18937  0.73216  1.0000 0.1989325671
C   C1020     1.0  0.67410  0.14671  0.71241  1.0000 -0.5054906012
C   C1021     1.0  0.53826  0.79194  0.55840  1.0000 -0.4898954831
C   C1022     1.0  0.47827  0.74383  0.54770  1.0000 0.1906561914
C   C1023     1.0  0.44319  0.71181  0.51760  1.0000 -0.103561947
C   C1024     1.0  0.39159  0.67174  0.52153  1.0000 0.2073849098
C   C1025     1.0  0.33792  0.62580  0.49772  1.0000 -0.4982655271
C   C1026     1.0  0.21150  0.55999  0.54289  1.0000 -0.4898954831
C   C1027     1.0  0.23817  0.59773  0.57350  1.0000 0.1906561914
C   C1028     1.0  0.22146  0.60785  0.58891  1.0000 -0.1111949565
C   C1029     1.0  0.26046  0.64390  0.61716  1.0000 0.2073849098
C   C1030     1.0  0.26323  0.66864  0.64407  1.0000 -0.4788335699
C   C1031     1.0  0.46520  0.83432  0.70852  1.0000 -0.4898954831
C   C1032     1.0  0.49038  0.83453  0.68971  1.0000 0.1906561914
C   C1033     1.0  0.54527  0.87733  0.69080  1.0000 -0.1111949565
C   C1034     1.0  0.54610  0.85479  0.66909  1.0000 0.1989325671
C   C1035     1.0  0.59265  0.88011  0.65996  1.0000 -0.4898954831
C   C1036     1.0  0.02968  0.05899  0.88767  1.0000 -0.4898954831
C   C1037     1.0  0.02885  0.07146  0.91811  1.0000 0.1989325671
C   C1038     1.0  0.04372  0.11209  0.93181  1.0000 -0.120567544
C   C1039     1.0  0.03605  0.10622  0.96107  1.0000 0.1906561914
C   C1040     1.0  0.04688  0.13885  0.98653  1.0000 -0.4898954831
C   C1041     1.0  0.94927  0.03520  0.05687  1.0000 -0.4898954831
C   C1042     1.0  0.92016  0.98199  0.04615  1.0000 0.1989325671
C   C1043     1.0  0.87902  0.93520  0.05562  1.0000 -0.120567544
C   C1044     1.0  0.86652  0.89848  0.03760  1.0000 0.1906561914
C   C1045     1.0  0.82771  0.84236  0.03827  1.0000 -0.4898954831
C   C1046     1.0  0.81997  0.76386  0.94563  1.0000 -0.4788335699
C   C1047     1.0  0.85499  0.80654  0.92913  1.0000 0.1989325671
C   C1048     1.0  0.85496  0.80119  0.89835  1.0000 -0.120567544
C   C1049     1.0  0.89509  0.85353  0.89542  1.0000 0.1906561914
C   C1050     1.0  0.91349  0.87333  0.86802  1.0000 -0.4982655271
C   C1051     1.0  0.41875  0.50161  0.88736  1.0000 -0.4982655271
C   C1052     1.0  0.46828  0.54291  0.91459  1.0000 0.1906561914
C   C1053     1.0  0.51132  0.59893  0.92405  1.0000 -0.1111949565
C   C1054     1.0  0.54599  0.61683  0.95002  1.0000 0.1906561914
C   C1055     1.0  0.59979  0.67297  0.96956  1.0000 -0.4710125925
C   C1056     1.0  0.17501  0.64321  0.98182  1.0000 -0.4982655271
C   C1057     1.0  0.11841  0.59497  0.96138  1.0000 0.1989325671
C   C1058     1.0  0.09957  0.56914  0.92991  1.0000 -0.1111949565
C   C1059     1.0  0.04299  0.52434  0.92293  1.0000 0.1989325671
C   C1060     1.0  0.00073  0.48156  0.89409  1.0000 -0.4710125925
C   C1061     1.0  0.42024  0.32462  0.94646  1.0000 -0.4898954831
C   C1062     1.0  0.40276  0.33831  0.93247  1.0000 0.1906561914
C   C1063     1.0  0.36157  0.30955  0.90692  1.0000 -0.120567544
C   C1064     1.0  0.36335  0.34132  0.90527  1.0000 0.1989325671
C   C1065     1.0  0.32970  0.33230  0.88260  1.0000 -0.4898954831
C   C1066     1.0  0.41261  0.93356  0.66417  1.0000 -0.4788335699
C   C1067     1.0  0.38129  0.93420  0.65249  1.0000 0.1906561914
C   C1068     1.0  0.37784  0.94483  0.62607  1.0000 -0.120567544
C   C1069     1.0  0.34223  0.93847  0.62670  1.0000 0.1989325671
C   C1070     1.0  0.32403  0.94685  0.60528  1.0000 -0.4898954831
C   C1071     1.0  0.37123  0.23848  0.69731  1.0000 -0.4710125925
C   C1072     1.0  0.34520  0.18801  0.68441  1.0000 0.1906561914
C   C1073     1.0  0.30314  0.13796  0.69050  1.0000 -0.120567544
C   C1074     1.0  0.29481  0.10545  0.67146  1.0000 0.1834393429
C   C1075     1.0  0.25520  0.04831  0.66911  1.0000 -0.4982655271
C   C1076     1.0  0.18776  0.76298  0.77374  1.0000 -0.4898954831
C   C1077     1.0  0.23558  0.79489  0.76267  1.0000 0.1989325671
C   C1078     1.0  0.26752  0.79645  0.76617  1.0000 -0.103561947
C   C1079     1.0  0.30649  0.83328  0.75097  1.0000 0.1834393429
C   C1080     1.0  0.35198  0.85239  0.74737  1.0000 -0.4788335699
C   C1081     1.0  0.67951  0.01746  0.12677  1.0000 -0.4982655271
C   C1082     1.0  0.73714  0.06537  0.14651  1.0000 0.2073849098
C   C1083     1.0  0.75919  0.09329  0.17688  1.0000 -0.120567544
C   C1084     1.0  0.81424  0.13380  0.18284  1.0000 0.1906561914
C   C1085     1.0  0.85935  0.17751  0.21126  1.0000 -0.4898954831
C   C1086     1.0  0.75732  0.06277  0.23869  1.0000 -0.4788335699
C   C1087     1.0  0.72767  0.06417  0.22504  1.0000 0.1989325671
C   C1088     1.0  0.72936  0.07889  0.19885  1.0000 -0.120567544
C   C1089     1.0  0.69188  0.07033  0.19681  1.0000 0.2073849098
C   C1090     1.0  0.67668  0.08044  0.17412  1.0000 -0.4982655271
C   C1091     1.0  0.82191  0.02025  0.01016  1.0000 -0.4710125925
C   C1092     1.0  0.78607  0.01107  0.02214  1.0000 0.1989325671
C   C1093     1.0  0.73091  0.96959  0.01090  1.0000 -0.1275929956
C   C1094     1.0  0.71780  0.97866  0.03226  1.0000 0.1906561914
C   C1095     1.0  0.66497  0.94777  0.03274  1.0000 -0.4982655271
C   C1096     1.0  0.35195  0.75755  0.26910  1.0000 -0.4898954831
C   C1097     1.0  0.32400  0.70481  0.26461  1.0000 0.1989325671
C   C1098     1.0  0.31415  0.67505  0.23980  1.0000 -0.1111949565
C   C1099     1.0  0.28643  0.62951  0.24874  1.0000 0.1906561914
C   C1100     1.0  0.26372  0.58225  0.23177  1.0000 -0.4898954831
C   C1101     1.0  0.39761  0.69798  0.22319  1.0000 -0.4898954831
C   C1102     1.0  0.37181  0.70152  0.20633  1.0000 0.1989325671
C   C1103     1.0  0.33473  0.69113  0.21306  1.0000 -0.120567544
C   C1104     1.0  0.32695  0.70404  0.19019  1.0000 0.1989325671
C   C1105     1.0  0.29179  0.70104  0.18543  1.0000 -0.4982655271
C   C1106     1.0  0.29956  0.70338  0.44954  1.0000 -0.4788335699
C   C1107     1.0  0.31599  0.72555  0.42234  1.0000 0.2073849098
C   C1108     1.0  0.34881  0.77603  0.42024  1.0000 -0.120567544
C   C1109     1.0  0.34962  0.77343  0.38965  1.0000 0.1906561914
C   C1110     1.0  0.37861  0.81547  0.37308  1.0000 -0.4898954831
C   C1111     1.0  0.23032  0.19881  0.88833  1.0000 -0.4982655271
C   C1112     1.0  0.26773  0.21181  0.87514  1.0000 0.1906561914
C   C1113     1.0  0.32402  0.25758  0.88420  1.0000 -0.1111949565
C   C1114     1.0  0.33756  0.24684  0.86440  1.0000 0.1989325671
C   C1115     1.0  0.39174  0.28094  0.86308  1.0000 -0.4788335699
C   C1116     1.0  0.35471  0.19179  0.76370  1.0000 -0.4898954831
C   C1117     1.0  0.29779  0.14946  0.74485  1.0000 0.1906561914
C   C1118     1.0  0.27500  0.12502  0.71322  1.0000 -0.103561947
C   C1119     1.0  0.22110  0.08820  0.70890  1.0000 0.1989325671
C   C1120     1.0  0.17591  0.04959  0.67950  1.0000 -0.4788335699
C   C1121     1.0  0.03631  0.01234  0.70745  1.0000 -0.4982655271
C   C1122     1.0  0.05503  0.03011  0.74094  1.0000 0.1906561914
C   C1123     1.0  0.03990  0.03780  0.76230  1.0000 -0.120567544
C   C1124     1.0  0.06926  0.05468  0.79054  1.0000 0.1834393429
C   C1125     1.0  0.07185  0.07091  0.82196  1.0000 -0.4898954831
C   C1126     1.0  0.13196  0.53206  0.70562  1.0000 -0.4982655271
C   C1127     1.0  0.11811  0.51248  0.73319  1.0000 0.1906561914
C   C1128     1.0  0.08023  0.46044  0.73587  1.0000 -0.1111949565
C   C1129     1.0  0.08563  0.46519  0.76702  1.0000 0.1906561914
C   C1130     1.0  0.05526  0.42308  0.78394  1.0000 -0.4788335699
C   C1131     1.0  0.09274  0.50215  0.88649  1.0000 -0.4898954831
C   C1132     1.0  0.12580  0.55733  0.88853  1.0000 0.1906561914
C   C1133     1.0  0.13065  0.58651  0.90816  1.0000 -0.120567544
C   C1134     1.0  0.16766  0.63510  0.90016  1.0000 0.2073849098
C   C1135     1.0  0.19086  0.68391  0.91397  1.0000 -0.4788335699
C   C1136     1.0  0.26964  0.79198  0.83702  1.0000 -0.4982655271
C   C1137     1.0  0.25930  0.76053  0.81103  1.0000 0.1906561914
C   C1138     1.0  0.25966  0.76324  0.78090  1.0000 -0.120567544
C   C1139     1.0  0.24887  0.72610  0.76637  1.0000 0.1906561914
C   C1140     1.0  0.24419  0.71134  0.73373  1.0000 -0.4710125925
C   C1141     1.0  0.98861  0.40739  0.67800  1.0000 -0.4710125925
C   C1142     1.0  0.00244  0.38840  0.68604  1.0000 0.1906561914
C   C1143     1.0  0.04122  0.41004  0.71066  1.0000 -0.120567544
C   C1144     1.0  0.03541  0.37509  0.70630  1.0000 0.1906561914
C   C1145     1.0  0.06573  0.37711  0.72564  1.0000 -0.4982655271
C   C1146     1.0  0.97995  0.21465  0.69640  1.0000 -0.4982655271
C   C1147     1.0  0.92709  0.17325  0.67254  1.0000 0.1989325671
C   C1148     1.0  0.88339  0.11710  0.66209  1.0000 -0.120567544
C   C1149     1.0  0.84442  0.09908  0.64090  1.0000 0.1834393429
C   C1150     1.0  0.78953  0.04308  0.62141  1.0000 -0.4898954831
C   C1151     1.0  0.70053  0.06012  0.57745  1.0000 -0.4644512039
C   C1152     1.0  0.74035  0.11830  0.58665  1.0000 0.1906561914
C   C1153     1.0  0.73285  0.14186  0.58231  1.0000 -0.120567544
C   C1154     1.0  0.78379  0.19740  0.59599  1.0000 0.1906561914
C   C1155     1.0  0.80220  0.24356  0.59736  1.0000 -0.4982655271
C   C1156     1.0  0.77804  0.88056  0.81280  1.0000 -0.4710125925
C   C1157     1.0  0.76635  0.89648  0.79383  1.0000 0.1989325671
C   C1158     1.0  0.72669  0.88495  0.79144  1.0000 -0.1275929956
C   C1159     1.0  0.73701  0.91297  0.77218  1.0000 0.1989325671
C   C1160     1.0  0.70800  0.91561  0.76041  1.0000 -0.4982655271
C   C1161     1.0  0.79529  0.02901  0.69670  1.0000 -0.4788335699
C   C1162     1.0  0.84206  0.04997  0.69183  1.0000 0.1906561914
C   C1163     1.0  0.87918  0.08606  0.67584  1.0000 -0.1111949565
C   C1164     1.0  0.91388  0.09110  0.68038  1.0000 0.1989325671
C   C1165     1.0  0.96097  0.12290  0.66847  1.0000 -0.4982655271
C   C1166     1.0  0.04481  0.09917  0.72458  1.0000 -0.4710125925
C   C1167     1.0  0.00331  0.05584  0.74015  1.0000 0.1989325671
C   C1168     1.0  0.00098  0.02984  0.75622  1.0000 -0.1275929956
C   C1169     1.0  0.95721  0.99863  0.76784  1.0000 0.1989325671
C   C1170     1.0  0.93430  0.96169  0.78759  1.0000 -0.4982655271
C   C1171     1.0  0.73354  0.97986  0.94160  1.0000 -0.4898954831
C   C1172     1.0  0.69613  0.93057  0.95230  1.0000 0.1906561914
C   C1173     1.0  0.69421  0.92559  0.98240  1.0000 -0.103561947
C   C1174     1.0  0.65021  0.87006  0.97847  1.0000 0.2073849098
C   C1175     1.0  0.62808  0.84020  0.00228  1.0000 -0.4982655271
C   C1176     1.0  0.51710  0.66861  0.95711  1.0000 -0.4898954831
C   C1177     1.0  0.52423  0.66467  0.92650  1.0000 0.1906561914
C   C1178     1.0  0.51894  0.63255  0.91109  1.0000 -0.1111949565
C   C1179     1.0  0.52674  0.64330  0.88284  1.0000 0.2073849098
C   C1180     1.0  0.52457  0.61916  0.85593  1.0000 -0.4788335699
C   C1181     1.0  0.62580  0.75668  0.79148  1.0000 -0.4898954831
C   C1182     1.0  0.64482  0.80067  0.81029  1.0000 0.1906561914
C   C1183     1.0  0.68653  0.85447  0.80920  1.0000 -0.1111949565
C   C1184     1.0  0.68570  0.87701  0.83091  1.0000 0.1989325671
C   C1185     1.0  0.72015  0.93269  0.84004  1.0000 -0.4898954831
C   C1186     1.0  0.67132  0.14201  0.61233  1.0000 -0.4982655271
C   C1187     1.0  0.65335  0.11074  0.58189  1.0000 0.1989325671
C   C1188     1.0  0.68028  0.11191  0.56819  1.0000 -0.120567544
C   C1189     1.0  0.64515  0.07498  0.53893  1.0000 0.1906561914
C   C1190     1.0  0.65232  0.06035  0.51347  1.0000 -0.4898954831
C   C1191     1.0  0.47833  0.89240  0.44313  1.0000 -0.4898954831
C   C1192     1.0  0.43584  0.87401  0.45385  1.0000 0.1989325671
C   C1193     1.0  0.37958  0.82340  0.44438  1.0000 -0.120567544
C   C1194     1.0  0.36088  0.82892  0.46240  1.0000 0.1906561914
C   C1195     1.0  0.30409  0.78944  0.46173  1.0000 -0.4898954831
C   C1196     1.0  0.31823  0.87434  0.55437  1.0000 -0.4788335699
C   C1197     1.0  0.37741  0.92586  0.57087  1.0000 0.1989325671
C   C1198     1.0  0.40284  0.95661  0.60165  1.0000 -0.120567544
C   C1199     1.0  0.45811  0.99967  0.60458  1.0000 0.1906561914
C   C1200     1.0  0.50531  0.04547  0.63198  1.0000 -0.4982655271
N   N1        1.0  0.97124  0.40504  0.94788  1.0000 -0.2006515508
N   N2        1.0  0.92598  0.38176  0.95074  1.0000 -0.2186147164
N   N3        1.0  0.93210  0.40389  0.50859  1.0000 -0.2111910894
N   N4        1.0  0.97538  0.42366  0.50564  1.0000 -0.2111910894
N   N5        1.0  0.11469  0.56039  0.04368  1.0000 -0.2111910894
N   N6        1.0  0.11325  0.54184  0.01749  1.0000 -0.2006515508
N   N7        1.0  0.57699  0.74546  0.42805  1.0000 -0.2186147164
N   N8        1.0  0.57410  0.72672  0.40062  1.0000 -0.2111910894
N   N9        1.0  0.31470  0.47726  0.17636  1.0000 -0.2186147164
N   N10       1.0  0.36599  0.52063  0.19602  1.0000 -0.2006515508
N   N11       1.0  0.67216  0.91817  0.42553  1.0000 -0.2006515508
N   N12       1.0  0.64807  0.88698  0.44545  1.0000 -0.2111910894
N   N13       1.0  0.41331  0.04782  0.68893  1.0000 -0.2006515508
N   N14       1.0  0.37035  0.02759  0.69454  1.0000 -0.2111910894
N   N15       1.0  0.45196  0.18941  0.64377  1.0000 -0.2288517249
N   N16       1.0  0.44778  0.16738  0.61756  1.0000 -0.2006515508
N   N17       1.0  0.45595  0.00444  0.76159  1.0000 -0.2186147164
N   N18       1.0  0.47570  0.03038  0.73908  1.0000 -0.2186147164
N   N19       1.0  0.82110  0.60723  0.62473  1.0000 -0.2186147164
N   N20       1.0  0.86766  0.64401  0.64807  1.0000 -0.2006515508
N   N21       1.0  0.78086  0.46204  0.66530  1.0000 -0.2186147164
N   N22       1.0  0.77939  0.45079  0.63598  1.0000 -0.2006515508
N   N23       1.0  0.80464  0.70000  0.60344  1.0000 -0.2006515508
N   N24       1.0  0.77491  0.65000  0.59451  1.0000 -0.2111910894
N   N25       1.0  0.32385  0.67500  0.07245  1.0000 -0.2111910894
N   N26       1.0  0.30259  0.64699  0.09398  1.0000 -0.2186147164
N   N27       1.0  0.37133  0.62931  0.13144  1.0000 -0.2186147164
N   N28       1.0  0.40936  0.64467  0.12183  1.0000 -0.2111910894
N   N29       1.0  0.45682  0.71382  0.04884  1.0000 -0.1920218585
N   N30       1.0  0.44225  0.72975  0.04300  1.0000 -0.2111910894
N   N31       1.0  0.95348  0.21509  0.59817  1.0000 -0.1920218585
N   N32       1.0  0.98264  0.26507  0.60731  1.0000 -0.2186147164
N   N33       1.0  0.91475  0.28424  0.57139  1.0000 -0.2111910894
N   N34       1.0  0.86582  0.24302  0.54904  1.0000 -0.2006515508
N   N35       1.0  0.77642  0.09046  0.52508  1.0000 -0.2006515508
N   N36       1.0  0.79763  0.08434  0.53977  1.0000 -0.2111910894
N   N37       1.0  0.15826  0.32656  0.63242  1.0000 -0.2186147164
N   N38       1.0  0.16633  0.34736  0.66109  1.0000 -0.2111910894
N   N39       1.0  0.31246  0.47103  0.72709  1.0000 -0.1920218585
N   N40       1.0  0.35785  0.49669  0.72194  1.0000 -0.2111910894
N   N41       1.0  0.34298  0.44522  0.63500  1.0000 -0.2186147164
N   N42       1.0  0.29416  0.40204  0.61320  1.0000 -0.1920218585
N   N43       1.0  0.57036  0.84726  0.86882  1.0000 -0.2186147164
N   N44       1.0  0.55985  0.82347  0.84032  1.0000 -0.2111910894
N   N45       1.0  0.46513  0.67042  0.81915  1.0000 -0.2186147164
N   N46       1.0  0.43966  0.63764  0.83830  1.0000 -0.2006515508
N   N47       1.0  0.45965  0.70116  0.92261  1.0000 -0.2186147164
N   N48       1.0  0.49579  0.75452  0.92971  1.0000 -0.2111910894
N   N49       1.0  0.61921  0.05172  0.77473  1.0000 -0.2186147164
N   N50       1.0  0.65667  0.10521  0.78348  1.0000 -0.2111910894
N   N51       1.0  0.80717  0.21591  0.84168  1.0000 -0.2186147164
N   N52       1.0  0.81974  0.20098  0.85692  1.0000 -0.2111910894
N   N53       1.0  0.70795  0.03953  0.82928  1.0000 -0.2186147164
N   N54       1.0  0.66035  0.00472  0.80747  1.0000 -0.2111910894
N   N55       1.0  0.42526  0.48764  0.52990  1.0000 -0.2006515508
N   N56       1.0  0.44703  0.48296  0.54699  1.0000 -0.2111910894
N   N57       1.0  0.59322  0.56919  0.54221  1.0000 -0.2111910894
N   N58       1.0  0.62032  0.60192  0.52344  1.0000 -0.1920218585
N   N59       1.0  0.55022  0.60675  0.46557  1.0000 -0.2288517249
N   N60       1.0  0.50435  0.58188  0.46983  1.0000 -0.2111910894
N   N61       1.0  0.95716  0.02336  0.55212  1.0000 -0.2006515508
N   N62       1.0  0.93102  0.97524  0.54926  1.0000 -0.2186147164
N   N63       1.0  0.39530  0.42351  0.99141  1.0000 -0.2111910894
N   N64       1.0  0.41802  0.46974  0.99436  1.0000 -0.2111910894
N   N65       1.0  0.01671  0.07101  0.45632  1.0000 -0.2111910894
N   N66       1.0  0.02435  0.09576  0.48251  1.0000 -0.2006515508
N   N67       1.0  0.81741  0.14894  0.07195  1.0000 -0.2186147164
N   N68       1.0  0.82610  0.17348  0.09938  1.0000 -0.2111910894
N   N69       1.0  0.80090  0.13834  0.32364  1.0000 -0.2186147164
N   N70       1.0  0.82461  0.16997  0.30398  1.0000 -0.2006515508
N   N71       1.0  0.99264  0.24663  0.07447  1.0000 -0.2006515508
N   N72       1.0  0.94153  0.20262  0.05455  1.0000 -0.2111910894
N   N73       1.0  0.85889  0.72438  0.81107  1.0000 -0.2006515508
N   N74       1.0  0.83305  0.67581  0.80546  1.0000 -0.2111910894
N   N75       1.0  0.04564  0.80819  0.85623  1.0000 -0.2186147164
N   N76       1.0  0.04982  0.83022  0.88244  1.0000 -0.2006515508
N   N77       1.0  0.74285  0.69436  0.73841  1.0000 -0.2186147164
N   N78       1.0  0.79130  0.73662  0.76092  1.0000 -0.2111910894
N   N79       1.0  0.48250  0.19637  0.87527  1.0000 -0.2186147164
N   N80       1.0  0.49594  0.21959  0.85193  1.0000 -0.2006515508
N   N81       1.0  0.29674  0.11556  0.83470  1.0000 -0.2186147164
N   N82       1.0  0.31481  0.14341  0.86402  1.0000 -0.2006515508
N   N83       1.0  0.59656  0.20120  0.89656  1.0000 -0.2006515508
N   N84       1.0  0.55549  0.18040  0.90549  1.0000 -0.2111910894
N   N85       1.0  0.10255  0.25140  0.42755  1.0000 -0.2111910894
N   N86       1.0  0.05301  0.20861  0.40602  1.0000 -0.2186147164
N   N87       1.0  0.99787  0.23989  0.36856  1.0000 -0.2186147164
N   N88       1.0  0.02284  0.28753  0.37817  1.0000 -0.2111910894
N   N89       1.0  0.16498  0.40798  0.45116  1.0000 -0.1920218585
N   N90       1.0  0.18675  0.39925  0.45700  1.0000 -0.2111910894
N   N91       1.0  0.11692  0.35531  0.90183  1.0000 -0.1920218585
N   N92       1.0  0.15776  0.37533  0.89269  1.0000 -0.2186147164
N   N93       1.0  0.21285  0.34336  0.92861  1.0000 -0.2111910894
N   N94       1.0  0.19398  0.31678  0.95096  1.0000 -0.2006515508
N   N95       1.0  0.06538  0.25134  0.97492  1.0000 -0.2006515508
N   N96       1.0  0.04457  0.25786  0.96023  1.0000 -0.2111910894
N   N97       1.0  0.19414  0.52584  0.86758  1.0000 -0.2186147164
N   N98       1.0  0.18627  0.50524  0.83891  1.0000 -0.2111910894
N   N99       1.0  0.24394  0.58537  0.77291  1.0000 -0.1920218585
N   N100      1.0  0.27475  0.63591  0.77806  1.0000 -0.2111910894
N   N101      1.0  0.31022  0.70798  0.86500  1.0000 -0.2186147164
N   N102      1.0  0.28884  0.68096  0.88680  1.0000 -0.1920218585
N   N103      1.0  0.47844  0.70154  0.63118  1.0000 -0.2186147164
N   N104      1.0  0.48315  0.71953  0.65968  1.0000 -0.2111910894
N   N105      1.0  0.35127  0.64598  0.68085  1.0000 -0.2186147164
N   N106      1.0  0.29934  0.60136  0.66170  1.0000 -0.2006515508
N   N107      1.0  0.27855  0.53704  0.57739  1.0000 -0.2186147164
N   N108      1.0  0.32481  0.56608  0.57029  1.0000 -0.2111910894
N   N109      1.0  0.77699  0.84448  0.72527  1.0000 -0.2186147164
N   N110      1.0  0.82173  0.87319  0.71652  1.0000 -0.2111910894
N   N111      1.0  0.87423  0.96549  0.65832  1.0000 -0.2186147164
N   N112      1.0  0.84406  0.96282  0.64308  1.0000 -0.2111910894
N   N113      1.0  0.71025  0.87867  0.67072  1.0000 -0.2186147164
N   N114      1.0  0.69725  0.85288  0.69253  1.0000 -0.2111910894
N   N115      1.0  0.45774  0.89536  0.97010  1.0000 -0.2006515508
N   N116      1.0  0.43597  0.90004  0.95301  1.0000 -0.2111910894
N   N117      1.0  0.52698  0.05101  0.95779  1.0000 -0.2111910894
N   N118      1.0  0.57848  0.09688  0.97656  1.0000 -0.1920218585
N   N119      1.0  0.64118  0.08465  0.03443  1.0000 -0.2288517249
N   N120      1.0  0.61205  0.03452  0.03017  1.0000 -0.2111910894
N   N121      1.0  0.90504  0.45716  0.43380  1.0000 -0.2006515508
N   N122      1.0  0.88176  0.43102  0.45578  1.0000 -0.2186147164
N   N123      1.0  0.90389  0.89530  0.47179  1.0000 -0.2111910894
N   N124      1.0  0.92366  0.91802  0.44828  1.0000 -0.2111910894
N   N125      1.0  0.06039  0.51671  0.44570  1.0000 -0.2111910894
N   N126      1.0  0.04184  0.52435  0.42859  1.0000 -0.2006515508
N   N127      1.0  0.24546  0.31741  0.16847  1.0000 -0.2186147164
N   N128      1.0  0.22672  0.32610  0.15262  1.0000 -0.2111910894
N   N129      1.0  0.97726  0.30090  0.16256  1.0000 -0.2186147164
N   N130      1.0  0.02063  0.32461  0.15464  1.0000 -0.2006515508
N   N131      1.0  0.41817  0.49264  0.24601  1.0000 -0.2006515508
N   N132      1.0  0.38698  0.44153  0.23891  1.0000 -0.2111910894
N   N133      1.0  0.54782  0.35889  0.63451  1.0000 -0.2006515508
N   N134      1.0  0.52759  0.33305  0.65724  1.0000 -0.2111910894
N   N135      1.0  0.68941  0.54564  0.73745  1.0000 -0.2186147164
N   N136      1.0  0.66738  0.54982  0.71960  1.0000 -0.2006515508
N   N137      1.0  0.50444  0.24285  0.54849  1.0000 -0.2186147164
N   N138      1.0  0.53038  0.29130  0.55468  1.0000 -0.2111910894
N   N139      1.0  0.10723  0.98250  0.78613  1.0000 -0.2186147164
N   N140      1.0  0.14401  0.99594  0.77635  1.0000 -0.2006515508
N   N141      1.0  0.96204  0.79674  0.68118  1.0000 -0.2186147164
N   N142      1.0  0.95079  0.81481  0.67140  1.0000 -0.2006515508
N   N143      1.0  0.20000  0.09656  0.89536  1.0000 -0.2006515508
N   N144      1.0  0.15000  0.05549  0.87509  1.0000 -0.2111910894
N   N145      1.0  0.17500  0.60255  0.35115  1.0000 -0.2111910894
N   N146      1.0  0.14699  0.55301  0.34440  1.0000 -0.2186147164
N   N147      1.0  0.12931  0.49787  0.25798  1.0000 -0.2186147164
N   N148      1.0  0.14467  0.52284  0.23531  1.0000 -0.2111910894
N   N149      1.0  0.21382  0.66498  0.25700  1.0000 -0.1920218585
N   N150      1.0  0.22975  0.68675  0.28750  1.0000 -0.2111910894
N   N151      1.0  0.71509  0.61692  0.26161  1.0000 -0.1920218585
N   N152      1.0  0.76507  0.65776  0.28243  1.0000 -0.2186147164
N   N153      1.0  0.78424  0.71285  0.36949  1.0000 -0.2111910894
N   N154      1.0  0.74302  0.69398  0.37720  1.0000 -0.2006515508
N   N155      1.0  0.59046  0.56538  0.31404  1.0000 -0.2006515508
N   N156      1.0  0.58434  0.54457  0.28671  1.0000 -0.2111910894
N   N157      1.0  0.82656  0.69414  0.16830  1.0000 -0.2186147164
N   N158      1.0  0.84736  0.68627  0.18103  1.0000 -0.2111910894
N   N159      1.0  0.97103  0.74394  0.15857  1.0000 -0.1920218585
N   N160      1.0  0.99669  0.77475  0.13884  1.0000 -0.2111910894
N   N161      1.0  0.94522  0.81022  0.10224  1.0000 -0.2111910894
N   N162      1.0  0.90204  0.78884  0.10788  1.0000 -0.1920218585
N   N163      1.0  0.34726  0.97844  0.27690  1.0000 -0.2186147164
N   N164      1.0  0.32347  0.98315  0.26362  1.0000 -0.2111910894
N   N165      1.0  0.17042  0.85127  0.20529  1.0000 -0.2186147164
N   N166      1.0  0.13764  0.79934  0.19798  1.0000 -0.2006515508
N   N167      1.0  0.20116  0.77855  0.24151  1.0000 -0.2186147164
N   N168      1.0  0.25452  0.82481  0.25873  1.0000 -0.2111910894
N   N169      1.0  0.55172  0.27699  0.43251  1.0000 -0.2186147164
N   N170      1.0  0.60521  0.32173  0.44854  1.0000 -0.2111910894
N   N171      1.0  0.71591  0.37423  0.40874  1.0000 -0.2186147164
N   N172      1.0  0.70098  0.34406  0.38124  1.0000 -0.2111910894
N   N173      1.0  0.53953  0.21025  0.33158  1.0000 -0.2186147164
N   N174      1.0  0.50472  0.19725  0.34437  1.0000 -0.2111910894
N   N175      1.0  0.98764  0.95774  0.06238  1.0000 -0.2006515508
N   N176      1.0  0.98296  0.93597  0.03593  1.0000 -0.2111910894
N   N177      1.0  0.06919  0.02698  0.97597  1.0000 -0.2111910894
N   N178      1.0  0.10192  0.07848  0.98160  1.0000 -0.1920218585
N   N179      1.0  0.10675  0.14118  0.05653  1.0000 -0.2288517249
N   N180      1.0  0.08188  0.11205  0.07753  1.0000 -0.2111910894
N   N181      1.0  0.52336  0.47124  0.06620  1.0000 -0.2006515508
N   N182      1.0  0.47524  0.42598  0.04422  1.0000 -0.2186147164
N   N183      1.0  0.92351  0.43210  0.02821  1.0000 -0.2111910894
N   N184      1.0  0.96974  0.47538  0.05172  1.0000 -0.2111910894
N   N185      1.0  0.57101  0.61469  0.05430  1.0000 -0.2111910894
N   N186      1.0  0.59576  0.61325  0.07141  1.0000 -0.2006515508
N   N187      1.0  0.64894  0.07699  0.33153  1.0000 -0.2186147164
N   N188      1.0  0.67348  0.07410  0.34738  1.0000 -0.2111910894
N   N189      1.0  0.63834  0.81470  0.33744  1.0000 -0.2186147164
N   N190      1.0  0.66997  0.86599  0.34536  1.0000 -0.2006515508
N   N191      1.0  0.74663  0.17216  0.25399  1.0000 -0.2006515508
N   N192      1.0  0.70262  0.14807  0.26109  1.0000 -0.2111910894
N   N193      1.0  0.22438  0.91331  0.86549  1.0000 -0.2006515508
N   N194      1.0  0.17581  0.87035  0.84276  1.0000 -0.2111910894
N   N195      1.0  0.30819  0.95196  0.76255  1.0000 -0.2186147164
N   N196      1.0  0.33022  0.94778  0.78040  1.0000 -0.2006515508
N   N197      1.0  0.19436  0.95595  0.95151  1.0000 -0.2186147164
N   N198      1.0  0.23662  0.97570  0.94532  1.0000 -0.2186147164
N   N199      1.0  0.69637  0.32110  0.71387  1.0000 -0.2186147164
N   N200      1.0  0.71959  0.36766  0.72365  1.0000 -0.2006515508
N   N201      1.0  0.61556  0.28086  0.81882  1.0000 -0.2186147164
N   N202      1.0  0.64341  0.27939  0.82860  1.0000 -0.2006515508
N   N203      1.0  0.70120  0.30464  0.60464  1.0000 -0.2006515508
N   N204      1.0  0.68040  0.27491  0.62491  1.0000 -0.2111910894
N   N205      1.0  0.75140  0.82385  0.14885  1.0000 -0.2111910894
N   N206      1.0  0.70861  0.80259  0.15560  1.0000 -0.2186147164
N   N207      1.0  0.73989  0.87133  0.24202  1.0000 -0.2186147164
N   N208      1.0  0.78753  0.90936  0.26469  1.0000 -0.2111910894
N   N209      1.0  0.90798  0.95682  0.24300  1.0000 -0.1920218585
N   N210      1.0  0.89925  0.94225  0.21250  1.0000 -0.2111910894
N   N211      1.0  0.85531  0.45348  0.23839  1.0000 -0.1920218585
N   N212      1.0  0.87533  0.48264  0.21757  1.0000 -0.2186147164
N   N213      1.0  0.84336  0.41475  0.13051  1.0000 -0.2111910894
N   N214      1.0  0.81678  0.36582  0.12280  1.0000 -0.2006515508
N   N215      1.0  0.75134  0.27642  0.18596  1.0000 -0.2006515508
N   N216      1.0  0.75786  0.29763  0.21329  1.0000 -0.2111910894
N   N217      1.0  0.02584  0.65826  0.33170  1.0000 -0.2186147164
N   N218      1.0  0.00524  0.66633  0.31897  1.0000 -0.2111910894
N   N219      1.0  0.08537  0.81246  0.34143  1.0000 -0.1920218585
N   N220      1.0  0.13591  0.85785  0.36116  1.0000 -0.2111910894
N   N221      1.0  0.20798  0.84298  0.39776  1.0000 -0.2186147164
N   N222      1.0  0.18096  0.79416  0.39212  1.0000 -0.1920218585
N   N223      1.0  0.20154  0.07036  0.22310  1.0000 -0.2186147164
N   N224      1.0  0.21953  0.05985  0.23638  1.0000 -0.2111910894
N   N225      1.0  0.14598  0.96513  0.29471  1.0000 -0.2186147164
N   N226      1.0  0.10136  0.93966  0.30202  1.0000 -0.2006515508
N   N227      1.0  0.03704  0.95965  0.25849  1.0000 -0.2186147164
N   N228      1.0  0.06608  0.99579  0.24127  1.0000 -0.2111910894
N   N229      1.0  0.34448  0.11921  0.06749  1.0000 -0.2186147164
N   N230      1.0  0.37319  0.15667  0.05146  1.0000 -0.2111910894
N   N231      1.0  0.46549  0.30717  0.09126  1.0000 -0.2186147164
N   N232      1.0  0.46282  0.31974  0.11876  1.0000 -0.2111910894
N   N233      1.0  0.37867  0.20795  0.16842  1.0000 -0.2186147164
N   N234      1.0  0.35288  0.16035  0.15563  1.0000 -0.2111910894
N   N235      1.0  0.39536  0.92526  0.43762  1.0000 -0.2006515508
N   N236      1.0  0.40004  0.94703  0.46407  1.0000 -0.2111910894
N   N237      1.0  0.55101  0.09322  0.52403  1.0000 -0.2111910894
N   N238      1.0  0.59688  0.12032  0.51840  1.0000 -0.1920218585
N   N239      1.0  0.58465  0.05022  0.44347  1.0000 -0.2288517249
N   N240      1.0  0.53452  0.00435  0.42247  1.0000 -0.2111910894
N   N241      1.0  0.02876  0.59496  0.05212  1.0000 -0.2006515508
N   N242      1.0  0.07402  0.61824  0.04926  1.0000 -0.2186147164
N   N243      1.0  0.06790  0.59611  0.49141  1.0000 -0.2111910894
N   N244      1.0  0.02462  0.57634  0.49436  1.0000 -0.2111910894
N   N245      1.0  0.88531  0.43961  0.95632  1.0000 -0.2111910894
N   N246      1.0  0.88675  0.45816  0.98251  1.0000 -0.2006515508
N   N247      1.0  0.42301  0.25454  0.57195  1.0000 -0.2186147164
N   N248      1.0  0.42590  0.27328  0.59938  1.0000 -0.2111910894
N   N249      1.0  0.68530  0.52274  0.82364  1.0000 -0.2186147164
N   N250      1.0  0.63401  0.47937  0.80398  1.0000 -0.2006515508
N   N251      1.0  0.32784  0.08183  0.57447  1.0000 -0.2006515508
N   N252      1.0  0.35193  0.11302  0.55455  1.0000 -0.2111910894
N   N253      1.0  0.58669  0.95218  0.31107  1.0000 -0.2006515508
N   N254      1.0  0.62965  0.97241  0.30546  1.0000 -0.2111910894
N   N255      1.0  0.54804  0.81059  0.35623  1.0000 -0.2186147164
N   N256      1.0  0.55222  0.83262  0.38244  1.0000 -0.2006515508
N   N257      1.0  0.54405  0.99556  0.23841  1.0000 -0.2186147164
N   N258      1.0  0.52430  0.96962  0.26092  1.0000 -0.2111910894
N   N259      1.0  0.17890  0.39277  0.37527  1.0000 -0.2186147164
N   N260      1.0  0.13234  0.35599  0.35193  1.0000 -0.2006515508
N   N261      1.0  0.21914  0.53796  0.33470  1.0000 -0.2186147164
N   N262      1.0  0.22061  0.54921  0.36402  1.0000 -0.2006515508
N   N263      1.0  0.19536  0.30000  0.39656  1.0000 -0.2006515508
N   N264      1.0  0.22509  0.35000  0.40549  1.0000 -0.2111910894
N   N265      1.0  0.67615  0.32500  0.92755  1.0000 -0.2111910894
N   N266      1.0  0.69741  0.35301  0.90602  1.0000 -0.2186147164
N   N267      1.0  0.62867  0.37069  0.86856  1.0000 -0.2186147164
N   N268      1.0  0.59064  0.35533  0.87817  1.0000 -0.2111910894
N   N269      1.0  0.54318  0.28618  0.95116  1.0000 -0.1920218585
N   N270      1.0  0.55775  0.27025  0.95700  1.0000 -0.2111910894
N   N271      1.0  0.04652  0.78491  0.40183  1.0000 -0.1920218585
N   N272      1.0  0.01736  0.73493  0.39269  1.0000 -0.2186147164
N   N273      1.0  0.08525  0.71576  0.42861  1.0000 -0.2111910894
N   N274      1.0  0.13418  0.75698  0.45096  1.0000 -0.2006515508
N   N275      1.0  0.22358  0.90954  0.47492  1.0000 -0.2006515508
N   N276      1.0  0.20237  0.91566  0.46023  1.0000 -0.2111910894
N   N277      1.0  0.84174  0.67344  0.36758  1.0000 -0.2186147164
N   N278      1.0  0.83367  0.65264  0.33891  1.0000 -0.2111910894
N   N279      1.0  0.68754  0.52897  0.27291  1.0000 -0.1920218585
N   N280      1.0  0.64215  0.50331  0.27806  1.0000 -0.2111910894
N   N281      1.0  0.65702  0.55478  0.36500  1.0000 -0.2111910894
N   N282      1.0  0.70584  0.59796  0.38680  1.0000 -0.1920218585
N   N283      1.0  0.42964  0.15274  0.13118  1.0000 -0.2186147164
N   N284      1.0  0.44015  0.17653  0.15968  1.0000 -0.2111910894
N   N285      1.0  0.53487  0.32958  0.18085  1.0000 -0.2186147164
N   N286      1.0  0.56034  0.36236  0.16170  1.0000 -0.2006515508
N   N287      1.0  0.54035  0.29884  0.07739  1.0000 -0.2186147164
N   N288      1.0  0.50421  0.24548  0.07029  1.0000 -0.2111910894
N   N289      1.0  0.38079  0.94828  0.22527  1.0000 -0.2186147164
N   N290      1.0  0.34333  0.89479  0.21652  1.0000 -0.2111910894
N   N291      1.0  0.19283  0.78409  0.15832  1.0000 -0.2186147164
N   N292      1.0  0.18026  0.79902  0.14308  1.0000 -0.2111910894
N   N293      1.0  0.29205  0.96047  0.17072  1.0000 -0.2186147164
N   N294      1.0  0.33965  0.99528  0.19253  1.0000 -0.2111910894
N   N295      1.0  0.57474  0.51236  0.47010  1.0000 -0.2006515508
N   N296      1.0  0.55297  0.51704  0.45301  1.0000 -0.2111910894
N   N297      1.0  0.40678  0.43081  0.45779  1.0000 -0.2111910894
N   N298      1.0  0.37968  0.39808  0.47656  1.0000 -0.1920218585
N   N299      1.0  0.44978  0.39325  0.53443  1.0000 -0.2288517249
N   N300      1.0  0.49565  0.41812  0.53017  1.0000 -0.2111910894
N   N301      1.0  0.04284  0.97664  0.44788  1.0000 -0.2006515508
N   N302      1.0  0.06898  0.02476  0.45074  1.0000 -0.2186147164
N   N303      1.0  0.60470  0.57649  0.00859  1.0000 -0.2111910894
N   N304      1.0  0.58198  0.53026  0.00564  1.0000 -0.2111910894
N   N305      1.0  0.98329  0.92899  0.54368  1.0000 -0.2111910894
N   N306      1.0  0.97565  0.90424  0.51749  1.0000 -0.2006515508
N   N307      1.0  0.18259  0.85106  0.92805  1.0000 -0.2186147164
N   N308      1.0  0.17390  0.82652  0.90062  1.0000 -0.2111910894
N   N309      1.0  0.19910  0.86166  0.67636  1.0000 -0.2186147164
N   N310      1.0  0.17539  0.83003  0.69602  1.0000 -0.2006515508
N   N311      1.0  0.00736  0.75337  0.92553  1.0000 -0.2006515508
N   N312      1.0  0.05847  0.79738  0.94545  1.0000 -0.2111910894
N   N313      1.0  0.14111  0.27562  0.18893  1.0000 -0.2006515508
N   N314      1.0  0.16695  0.32419  0.19454  1.0000 -0.2111910894
N   N315      1.0  0.95436  0.19181  0.14377  1.0000 -0.2288517249
N   N316      1.0  0.95018  0.16978  0.11756  1.0000 -0.2006515508
N   N317      1.0  0.25715  0.30564  0.26159  1.0000 -0.2186147164
N   N318      1.0  0.20870  0.26338  0.23908  1.0000 -0.2111910894
N   N319      1.0  0.51750  0.80363  0.12473  1.0000 -0.2186147164
N   N320      1.0  0.50406  0.78041  0.14807  1.0000 -0.2006515508
N   N321      1.0  0.70326  0.88444  0.16530  1.0000 -0.2186147164
N   N322      1.0  0.68519  0.85659  0.13598  1.0000 -0.2006515508
N   N323      1.0  0.40344  0.79880  0.10344  1.0000 -0.2006515508
N   N324      1.0  0.44451  0.81960  0.09451  1.0000 -0.2111910894
N   N325      1.0  0.89745  0.74860  0.57245  1.0000 -0.2111910894
N   N326      1.0  0.94699  0.79139  0.59398  1.0000 -0.2186147164
N   N327      1.0  0.00213  0.76011  0.63144  1.0000 -0.2186147164
N   N328      1.0  0.97716  0.71247  0.62183  1.0000 -0.2111910894
N   N329      1.0  0.83502  0.59202  0.54884  1.0000 -0.1920218585
N   N330      1.0  0.81325  0.60075  0.54300  1.0000 -0.2111910894
N   N331      1.0  0.88308  0.64469  0.09817  1.0000 -0.1920218585
N   N332      1.0  0.84224  0.62467  0.10731  1.0000 -0.2111910894
N   N333      1.0  0.78715  0.65664  0.07139  1.0000 -0.2111910894
N   N334      1.0  0.80602  0.68322  0.04904  1.0000 -0.2006515508
N   N335      1.0  0.93462  0.74866  0.02508  1.0000 -0.2006515508
N   N336      1.0  0.95543  0.74214  0.03977  1.0000 -0.2111910894
N   N337      1.0  0.80586  0.47416  0.13242  1.0000 -0.2111910894
N   N338      1.0  0.81373  0.49476  0.16109  1.0000 -0.2111910894
N   N339      1.0  0.75606  0.41463  0.22709  1.0000 -0.1920218585
N   N340      1.0  0.72525  0.36409  0.22194  1.0000 -0.2111910894
N   N341      1.0  0.68978  0.29202  0.13500  1.0000 -0.2111910894
N   N342      1.0  0.71116  0.31904  0.11320  1.0000 -0.1920218585
N   N343      1.0  0.52156  0.29846  0.36882  1.0000 -0.2186147164
N   N344      1.0  0.51685  0.28047  0.34032  1.0000 -0.2111910894
N   N345      1.0  0.64873  0.35402  0.31915  1.0000 -0.2186147164
N   N346      1.0  0.70066  0.39864  0.33830  1.0000 -0.2006515508
N   N347      1.0  0.72145  0.46296  0.42261  1.0000 -0.2186147164
N   N348      1.0  0.67519  0.43392  0.42971  1.0000 -0.2111910894
N   N349      1.0  0.22301  0.15552  0.27473  1.0000 -0.2186147164
N   N350      1.0  0.17827  0.12681  0.28348  1.0000 -0.2111910894
N   N351      1.0  0.12577  0.03451  0.34168  1.0000 -0.2186147164
N   N352      1.0  0.15594  0.03718  0.35692  1.0000 -0.2111910894
N   N353      1.0  0.28975  0.12133  0.32928  1.0000 -0.2186147164
N   N354      1.0  0.30275  0.14712  0.30747  1.0000 -0.2111910894
N   N355      1.0  0.54226  0.10464  0.02990  1.0000 -0.2006515508
N   N356      1.0  0.56403  0.09996  0.04699  1.0000 -0.2111910894
N   N357      1.0  0.47302  0.94899  0.04221  1.0000 -0.2111910894
N   N358      1.0  0.42152  0.90312  0.02344  1.0000 -0.1920218585
N   N359      1.0  0.35882  0.91535  0.96557  1.0000 -0.2288517249
N   N360      1.0  0.38795  0.96548  0.96983  1.0000 -0.2111910894
N   N361      1.0  0.09496  0.54284  0.56620  1.0000 -0.2006515508
N   N362      1.0  0.11824  0.56898  0.54422  1.0000 -0.2186147164
N   N363      1.0  0.09611  0.10470  0.52821  1.0000 -0.2111910894
N   N364      1.0  0.07634  0.08198  0.55172  1.0000 -0.2111910894
N   N365      1.0  0.93961  0.48329  0.55430  1.0000 -0.2111910894
N   N366      1.0  0.95816  0.47565  0.57141  1.0000 -0.2006515508
N   N367      1.0  0.75454  0.68259  0.83153  1.0000 -0.2186147164
N   N368      1.0  0.77328  0.67390  0.84738  1.0000 -0.2111910894
N   N369      1.0  0.02274  0.69910  0.83744  1.0000 -0.2186147164
N   N370      1.0  0.97937  0.67539  0.84536  1.0000 -0.2006515508
N   N371      1.0  0.58183  0.50736  0.75399  1.0000 -0.2006515508
N   N372      1.0  0.61302  0.55847  0.76109  1.0000 -0.2111910894
N   N373      1.0  0.45218  0.64111  0.36549  1.0000 -0.2006515508
N   N374      1.0  0.47241  0.66695  0.34276  1.0000 -0.2111910894
N   N375      1.0  0.31059  0.45436  0.26255  1.0000 -0.2186147164
N   N376      1.0  0.33262  0.45018  0.28040  1.0000 -0.2006515508
N   N377      1.0  0.49556  0.75715  0.45151  1.0000 -0.2186147164
N   N378      1.0  0.46962  0.70870  0.44532  1.0000 -0.2186147164
N   N379      1.0  0.89277  0.01750  0.21387  1.0000 -0.2186147164
N   N380      1.0  0.85599  0.00406  0.22365  1.0000 -0.2006515508
N   N381      1.0  0.03796  0.20326  0.31882  1.0000 -0.2186147164
N   N382      1.0  0.04921  0.18519  0.32860  1.0000 -0.2006515508
N   N383      1.0  0.80000  0.90344  0.10464  1.0000 -0.2006515508
N   N384      1.0  0.85000  0.94451  0.12491  1.0000 -0.2111910894
N   N385      1.0  0.82500  0.39745  0.64885  1.0000 -0.2111910894
N   N386      1.0  0.85301  0.44699  0.65560  1.0000 -0.2186147164
N   N387      1.0  0.87069  0.50213  0.74202  1.0000 -0.2186147164
N   N388      1.0  0.85533  0.47716  0.76469  1.0000 -0.2111910894
N   N389      1.0  0.78618  0.33502  0.74300  1.0000 -0.1920218585
N   N390      1.0  0.77025  0.31325  0.71250  1.0000 -0.2111910894
N   N391      1.0  0.28491  0.38308  0.73839  1.0000 -0.1920218585
N   N392      1.0  0.23493  0.34224  0.71757  1.0000 -0.2186147164
N   N393      1.0  0.21576  0.28715  0.63051  1.0000 -0.2111910894
N   N394      1.0  0.25698  0.30602  0.62280  1.0000 -0.2006515508
N   N395      1.0  0.40954  0.43462  0.68596  1.0000 -0.2006515508
N   N396      1.0  0.41566  0.45543  0.71329  1.0000 -0.2111910894
N   N397      1.0  0.17344  0.30586  0.83170  1.0000 -0.2186147164
N   N398      1.0  0.15264  0.31373  0.81897  1.0000 -0.2111910894
N   N399      1.0  0.02897  0.25606  0.84143  1.0000 -0.1920218585
N   N400      1.0  0.00331  0.22525  0.86116  1.0000 -0.2111910894
N   N401      1.0  0.05478  0.18978  0.89776  1.0000 -0.2186147164
N   N402      1.0  0.09796  0.21116  0.89212  1.0000 -0.1920218585
N   N403      1.0  0.65274  0.02156  0.72310  1.0000 -0.2186147164
N   N404      1.0  0.67653  0.01685  0.73638  1.0000 -0.2111910894
N   N405      1.0  0.82958  0.14873  0.79471  1.0000 -0.2186147164
N   N406      1.0  0.86236  0.20066  0.80202  1.0000 -0.2006515508
N   N407      1.0  0.79884  0.22145  0.75849  1.0000 -0.2186147164
N   N408      1.0  0.74548  0.17519  0.74127  1.0000 -0.2111910894
N   N409      1.0  0.44828  0.72301  0.56749  1.0000 -0.2186147164
N   N410      1.0  0.39479  0.67827  0.55146  1.0000 -0.2111910894
N   N411      1.0  0.28409  0.62577  0.59126  1.0000 -0.2186147164
N   N412      1.0  0.29902  0.65594  0.61876  1.0000 -0.2111910894
N   N413      1.0  0.46047  0.78975  0.66842  1.0000 -0.2186147164
N   N414      1.0  0.49528  0.80275  0.65563  1.0000 -0.2111910894
N   N415      1.0  0.01236  0.04226  0.93762  1.0000 -0.2006515508
N   N416      1.0  0.01704  0.06403  0.96407  1.0000 -0.2111910894
N   N417      1.0  0.93081  0.97302  0.02403  1.0000 -0.2111910894
N   N418      1.0  0.89808  0.92152  0.01840  1.0000 -0.1920218585
N   N419      1.0  0.89325  0.85882  0.94347  1.0000 -0.2288517249
N   N420      1.0  0.91812  0.88795  0.92247  1.0000 -0.2111910894
N   N421      1.0  0.47664  0.52876  0.93380  1.0000 -0.2006515508
N   N422      1.0  0.52476  0.57402  0.95578  1.0000 -0.2186147164
N   N423      1.0  0.07649  0.56790  0.97179  1.0000 -0.2111910894
N   N424      1.0  0.03026  0.52462  0.94828  1.0000 -0.2111910894
N   N425      1.0  0.42899  0.38531  0.94570  1.0000 -0.2111910894
N   N426      1.0  0.40424  0.38675  0.92859  1.0000 -0.2006515508
N   N427      1.0  0.35106  0.92301  0.66847  1.0000 -0.2186147164
N   N428      1.0  0.32652  0.92590  0.65262  1.0000 -0.2111910894
N   N429      1.0  0.36166  0.18530  0.66256  1.0000 -0.2186147164
N   N430      1.0  0.33003  0.13401  0.65464  1.0000 -0.2006515508
N   N431      1.0  0.25337  0.82784  0.74601  1.0000 -0.2006515508
N   N432      1.0  0.29738  0.85193  0.73891  1.0000 -0.2111910894
N   N433      1.0  0.77562  0.08669  0.13451  1.0000 -0.2006515508
N   N434      1.0  0.82419  0.12965  0.15724  1.0000 -0.2111910894
N   N435      1.0  0.69181  0.04804  0.23745  1.0000 -0.2288517249
N   N436      1.0  0.66978  0.05222  0.21960  1.0000 -0.2006515508
N   N437      1.0  0.80564  0.04405  0.04849  1.0000 -0.2186147164
N   N438      1.0  0.76338  0.02430  0.05468  1.0000 -0.2186147164
N   N439      1.0  0.30363  0.67890  0.28613  1.0000 -0.2186147164
N   N440      1.0  0.28041  0.63234  0.27635  1.0000 -0.2006515508
N   N441      1.0  0.38444  0.71914  0.18118  1.0000 -0.2186147164
N   N442      1.0  0.35659  0.72061  0.17140  1.0000 -0.2006515508
N   N443      1.0  0.29880  0.69536  0.39536  1.0000 -0.2006515508
N   N444      1.0  0.31960  0.72509  0.37509  1.0000 -0.2111910894
N   N445      1.0  0.24860  0.17615  0.85115  1.0000 -0.2111910894
N   N446      1.0  0.29139  0.19741  0.84440  1.0000 -0.2186147164
N   N447      1.0  0.26011  0.12867  0.75798  1.0000 -0.2186147164
N   N448      1.0  0.21247  0.09064  0.73531  1.0000 -0.2111910894
N   N449      1.0  0.09202  0.04318  0.75700  1.0000 -0.1920218585
N   N450      1.0  0.10075  0.05775  0.78750  1.0000 -0.2111910894
N   N451      1.0  0.14469  0.54652  0.76161  1.0000 -0.1920218585
N   N452      1.0  0.12467  0.51736  0.78243  1.0000 -0.2186147164
N   N453      1.0  0.15664  0.58525  0.86949  1.0000 -0.2111910894
N   N454      1.0  0.18322  0.63418  0.87720  1.0000 -0.2006515508
N   N455      1.0  0.24866  0.72358  0.81404  1.0000 -0.2006515508
N   N456      1.0  0.24214  0.70237  0.78671  1.0000 -0.2111910894
N   N457      1.0  0.97416  0.34174  0.66830  1.0000 -0.2186147164
N   N458      1.0  0.99476  0.33367  0.68103  1.0000 -0.2111910894
N   N459      1.0  0.91463  0.18754  0.65857  1.0000 -0.1920218585
N   N460      1.0  0.86409  0.14215  0.63884  1.0000 -0.2111910894
N   N461      1.0  0.79202  0.15702  0.60224  1.0000 -0.2111910894
N   N462      1.0  0.81904  0.20584  0.60788  1.0000 -0.1920218585
N   N463      1.0  0.79846  0.92964  0.77690  1.0000 -0.2186147164
N   N464      1.0  0.78047  0.94015  0.76362  1.0000 -0.2111910894
N   N465      1.0  0.85402  0.03487  0.70529  1.0000 -0.2186147164
N   N466      1.0  0.89864  0.06034  0.69798  1.0000 -0.2006515508
N   N467      1.0  0.96296  0.04035  0.74151  1.0000 -0.2186147164
N   N468      1.0  0.93392  0.00421  0.75873  1.0000 -0.2111910894
N   N469      1.0  0.65552  0.88079  0.93251  1.0000 -0.2186147164
N   N470      1.0  0.62681  0.84333  0.94854  1.0000 -0.2111910894
N   N471      1.0  0.53451  0.69283  0.90874  1.0000 -0.2186147164
N   N472      1.0  0.53718  0.68026  0.88124  1.0000 -0.2111910894
N   N473      1.0  0.62133  0.79205  0.83158  1.0000 -0.2186147164
N   N474      1.0  0.64712  0.83965  0.84437  1.0000 -0.2111910894
N   N475      1.0  0.60464  0.07474  0.56238  1.0000 -0.2006515508
N   N476      1.0  0.59996  0.05297  0.53593  1.0000 -0.2111910894
N   N477      1.0  0.44899  0.90678  0.47597  1.0000 -0.2111910894
N   N478      1.0  0.40312  0.87968  0.48160  1.0000 -0.1920218585
N   N479      1.0  0.41535  0.94978  0.55653  1.0000 -0.2288517249
N   N480      1.0  0.46548  0.99565  0.57753  1.0000 -0.2111910894
