# DDEC6 charges by PACMAN v1.1 (https://github.com/mtap-research/PACMAN-charge/)
data_2008[Cd][ths]3[ASR]2
_chemical_formula_sum              "Cd8 H16 C16 O24"
_cell_length_a       8.4085
_cell_length_b       9.807
_cell_length_c       21.019
_cell_angle_alpha    90
_cell_angle_beta     90
_cell_angle_gamma    90

_symmetry_space_group_name_H-M    "P 1"
_symmetry_Int_Tables_number       1

loop_
  _symmetry_equiv_pos_as_xyz
  'x, y, z'

loop_
  _atom_site_type_symbol
  _atom_site_label
  _atom_site_symmetry_multiplicity
  _atom_site_fract_x
  _atom_site_fract_y
  _atom_site_fract_z
  _atom_site_occupancy
  _atom_site_charge
Cd  Cd1       1.0  0.99564  0.60750  0.28306  1.0000 0.9807067983
Cd  Cd2       1.0  0.50436  0.39250  0.78306  1.0000 0.9807067983
Cd  Cd3       1.0  0.00436  0.10750  0.21694  1.0000 0.9807067983
Cd  Cd4       1.0  0.49564  0.89250  0.71694  1.0000 0.9807067983
Cd  Cd5       1.0  0.80607  0.16251  0.47737  1.0000 0.9871692034
Cd  Cd6       1.0  0.69393  0.83749  0.97737  1.0000 0.9985186033
Cd  Cd7       1.0  0.19393  0.66251  0.02263  1.0000 0.9871692034
Cd  Cd8       1.0  0.30607  0.33749  0.52263  1.0000 0.9871692034
H   H1        1.0  0.18500  0.18200  0.31350  1.0000 0.2767838039
H   H2        1.0  0.31500  0.81800  0.81350  1.0000 0.2767838039
H   H3        1.0  0.81500  0.68200  0.18650  1.0000 0.2767838039
H   H4        1.0  0.68500  0.31800  0.68650  1.0000 0.2767838039
H   H5        1.0  0.93400  0.90600  0.42100  1.0000 0.2993028634
H   H6        1.0  0.56600  0.09400  0.92100  1.0000 0.2993028634
H   H7        1.0  0.06600  0.40600  0.07900  1.0000 0.2993028634
H   H8        1.0  0.43400  0.59400  0.57900  1.0000 0.2993028634
H   H9        1.0  0.28300  0.00350  0.34630  1.0000 0.0444918614
H   H10       1.0  0.21700  0.99650  0.84630  1.0000 0.0444918614
H   H11       1.0  0.71700  0.50350  0.15370  1.0000 0.0444918614
H   H12       1.0  0.78300  0.49650  0.65370  1.0000 0.0444918614
H   H13       1.0  0.16440  0.91510  0.43770  1.0000 0.0483037946
H   H14       1.0  0.33560  0.08490  0.93770  1.0000 0.0483037946
H   H15       1.0  0.83560  0.41510  0.06230  1.0000 0.0483037946
H   H16       1.0  0.66440  0.58490  0.56230  1.0000 0.0483037946
C   C1        1.0  0.09890  0.88300  0.31292  1.0000 0.5273634814
C   C2        1.0  0.40110  0.11700  0.81292  1.0000 0.5273634814
C   C3        1.0  0.90110  0.38300  0.18708  1.0000 0.5273634814
C   C4        1.0  0.59890  0.61700  0.68708  1.0000 0.5273634814
C   C5        1.0  0.16660  0.00630  0.34882  1.0000 -0.0500708028
C   C6        1.0  0.33340  0.99370  0.84882  1.0000 -0.0500708028
C   C7        1.0  0.83340  0.50630  0.15118  1.0000 -0.0500708028
C   C8        1.0  0.66667  0.49370  0.65118  1.0000 -0.0500708028
C   C9        1.0  0.11690  0.99700  0.41887  1.0000 -0.0500708028
C   C10       1.0  0.38310  0.00300  0.91887  1.0000 -0.0500708028
C   C11       1.0  0.88310  0.49700  0.08113  1.0000 -0.0500708028
C   C12       1.0  0.61690  0.50300  0.58113  1.0000 -0.0500708028
C   C13       1.0  0.17430  0.12090  0.45506  1.0000 0.5143332653
C   C14       1.0  0.32570  0.87910  0.95506  1.0000 0.5143332653
C   C15       1.0  0.82570  0.62090  0.04494  1.0000 0.5158323817
C   C16       1.0  0.67430  0.37910  0.54494  1.0000 0.5143332653
O   O1        1.0  0.04600  0.89630  0.25775  1.0000 -0.6589251734
O   O2        1.0  0.45400  0.10370  0.75775  1.0000 -0.6589251734
O   O3        1.0  0.95400  0.39630  0.24225  1.0000 -0.6589251734
O   O4        1.0  0.54600  0.60370  0.74225  1.0000 -0.6589251734
O   O5        1.0  0.10170  0.77250  0.34239  1.0000 -0.6361286021
O   O6        1.0  0.39830  0.22750  0.84239  1.0000 -0.6361286021
O   O7        1.0  0.89830  0.27250  0.15761  1.0000 -0.6361286021
O   O8        1.0  0.60170  0.72750  0.65761  1.0000 -0.6361286021
O   O9        1.0  0.11280  0.13029  0.32196  1.0000 -0.5041446315
O   O10       1.0  0.38720  0.86971  0.82196  1.0000 -0.507258398
O   O11       1.0  0.88720  0.63029  0.17804  1.0000 -0.5041446315
O   O12       1.0  0.61280  0.36971  0.67804  1.0000 -0.5041446315
O   O13       1.0  0.94900  0.98780  0.42373  1.0000 -0.5580462244
O   O14       1.0  0.55100  0.01220  0.92373  1.0000 -0.5529608555
O   O15       1.0  0.05100  0.48780  0.07627  1.0000 -0.5580462244
O   O16       1.0  0.44900  0.51220  0.57627  1.0000 -0.5580462244
O   O17       1.0  0.07870  0.19840  0.48292  1.0000 -0.6174084074
O   O18       1.0  0.42130  0.80160  0.98292  1.0000 -0.6174084074
O   O19       1.0  0.92130  0.69840  0.01708  1.0000 -0.6174084074
O   O20       1.0  0.57870  0.30160  0.51708  1.0000 -0.6174084074
O   O21       1.0  0.32160  0.14280  0.45649  1.0000 -0.6073654569
O   O22       1.0  0.17840  0.85720  0.95649  1.0000 -0.6073654569
O   O23       1.0  0.67840  0.64280  0.04351  1.0000 -0.6073654569
O   O24       1.0  0.82160  0.35720  0.54351  1.0000 -0.6073654569
