# DDEC6 charges by PACMAN v1.1 (https://github.com/mtap-research/PACMAN-charge/)
data_2008[Ho][rtl]3[ASR]1
_chemical_formula_sum              "Ho4 H36 C36 O24"
_cell_length_a       9.5736
_cell_length_b       13.8317
_cell_length_c       17.5923
_cell_angle_alpha    90
_cell_angle_beta     119.467
_cell_angle_gamma    90

_symmetry_space_group_name_H-M    "P 1"
_symmetry_Int_Tables_number       1

loop_
  _symmetry_equiv_pos_as_xyz
  'x, y, z'

loop_
  _atom_site_type_symbol
  _atom_site_label
  _atom_site_symmetry_multiplicity
  _atom_site_fract_x
  _atom_site_fract_y
  _atom_site_fract_z
  _atom_site_occupancy
  _atom_site_charge
Ho  Ho1       1.0  0.62831  0.61134  0.08561  1.0000 1.9963715184
Ho  Ho2       1.0  0.37169  0.11134  0.41439  1.0000 1.9963715184
Ho  Ho3       1.0  0.37169  0.38866  0.91439  1.0000 1.9897908079
Ho  Ho4       1.0  0.62831  0.88866  0.58561  1.0000 1.9897908079
H   H1        1.0  0.42350  0.31150  0.18760  1.0000 0.0989692657
H   H2        1.0  0.57650  0.81150  0.31240  1.0000 0.0989692657
H   H3        1.0  0.57650  0.68850  0.81240  1.0000 0.0989692657
H   H4        1.0  0.42350  0.18850  0.68760  1.0000 0.0989692657
H   H5        1.0  0.41770  0.39310  0.24790  1.0000 0.0989692657
H   H6        1.0  0.58230  0.89310  0.25210  1.0000 0.0989692657
H   H7        1.0  0.58230  0.60690  0.75210  1.0000 0.0989692657
H   H8        1.0  0.41770  0.10690  0.74790  1.0000 0.0989692657
H   H9        1.0  0.22920  0.38890  0.06500  1.0000 0.0989692657
H   H10       1.0  0.77080  0.88890  0.43500  1.0000 0.0989692657
H   H11       1.0  0.77080  0.61110  0.93500  1.0000 0.0989692657
H   H12       1.0  0.22920  0.11110  0.56500  1.0000 0.0989692657
H   H13       1.0  0.22430  0.53720  0.17350  1.0000 0.112147654
H   H14       1.0  0.77570  0.03720  0.32650  1.0000 0.112147654
H   H15       1.0  0.77570  0.46280  0.82650  1.0000 0.112147654
H   H16       1.0  0.22430  0.96280  0.67350  1.0000 0.112147654
H   H17       1.0  0.12320  0.53720  0.07120  1.0000 0.0907709762
H   H18       1.0  0.87680  0.03720  0.42880  1.0000 0.0907709762
H   H19       1.0  0.87680  0.46280  0.92880  1.0000 0.0907709762
H   H20       1.0  0.12320  0.96280  0.57120  1.0000 0.0907709762
H   H21       1.0  0.98350  0.40230  0.07440  1.0000 0.0989692657
H   H22       1.0  0.01650  0.90230  0.42560  1.0000 0.0989692657
H   H23       1.0  0.01650  0.59770  0.92560  1.0000 0.0989692657
H   H24       1.0  0.98350  0.09770  0.57440  1.0000 0.0989692657
H   H25       1.0  0.15240  0.40910  0.25720  1.0000 0.0989692657
H   H26       1.0  0.84760  0.90910  0.24280  1.0000 0.0989692657
H   H27       1.0  0.84760  0.59090  0.74280  1.0000 0.0989692657
H   H28       1.0  0.15240  0.09090  0.75720  1.0000 0.0989692657
H   H29       1.0  0.01180  0.33710  0.20170  1.0000 0.112147654
H   H30       1.0  0.98820  0.83710  0.29830  1.0000 0.112147654
H   H31       1.0  0.98820  0.66290  0.79830  1.0000 0.112147654
H   H32       1.0  0.01180  0.16290  0.70170  1.0000 0.112147654
H   H33       1.0  0.16050  0.26470  0.14620  1.0000 0.0989692657
H   H34       1.0  0.83950  0.76470  0.35380  1.0000 0.0989692657
H   H35       1.0  0.83950  0.73530  0.85380  1.0000 0.0989692657
H   H36       1.0  0.16050  0.23530  0.64620  1.0000 0.0989692657
C   C1        1.0  0.35390  0.35770  0.19410  1.0000 -0.1903685075
C   C2        1.0  0.64610  0.85770  0.30590  1.0000 -0.1903685075
C   C3        1.0  0.64610  0.64230  0.80590  1.0000 -0.1903685075
C   C4        1.0  0.35390  0.14230  0.69410  1.0000 -0.1903685075
C   C5        1.0  0.28760  0.42710  0.11850  1.0000 -0.1303838384
C   C6        1.0  0.71240  0.92710  0.38150  1.0000 -0.1303838384
C   C7        1.0  0.71240  0.57290  0.88150  1.0000 -0.1303838384
C   C8        1.0  0.28760  0.07290  0.61850  1.0000 -0.1303838384
C   C9        1.0  0.16880  0.49610  0.12250  1.0000 -0.1841354896
C   C10       1.0  0.83120  0.99610  0.37750  1.0000 -0.1841354896
C   C11       1.0  0.83120  0.50390  0.87750  1.0000 -0.1841354896
C   C12       1.0  0.16880  0.00390  0.62250  1.0000 -0.1841354896
C   C13       1.0  0.03500  0.44250  0.12710  1.0000 -0.1110496831
C   C14       1.0  0.96500  0.94250  0.37290  1.0000 -0.1110496831
C   C15       1.0  0.96500  0.55750  0.87290  1.0000 -0.1110496831
C   C16       1.0  0.03500  0.05750  0.62710  1.0000 -0.1110496831
C   C17       1.0  0.09990  0.37300  0.20290  1.0000 -0.1903685075
C   C18       1.0  0.90010  0.87300  0.29710  1.0000 -0.1903685075
C   C19       1.0  0.90010  0.62700  0.79710  1.0000 -0.1903685075
C   C20       1.0  0.09990  0.12700  0.70290  1.0000 -0.1903685075
C   C21       1.0  0.21850  0.30290  0.19970  1.0000 -0.1165417549
C   C22       1.0  0.78150  0.80290  0.30030  1.0000 -0.1165417549
C   C23       1.0  0.78150  0.69710  0.80030  1.0000 -0.1165417549
C   C24       1.0  0.21850  0.19710  0.69970  1.0000 -0.1110496831
C   C25       1.0  0.41880  0.48160  0.11200  1.0000 0.6230344879
C   C26       1.0  0.58120  0.98160  0.38800  1.0000 0.6230344879
C   C27       1.0  0.58120  0.51840  0.88800  1.0000 0.6230344879
C   C28       1.0  0.41880  0.01840  0.61200  1.0000 0.6230344879
C   C29       1.0  0.90360  0.50860  0.12250  1.0000 0.5731648791
C   C30       1.0  0.09640  0.00860  0.37750  1.0000 0.5731648791
C   C31       1.0  0.09640  0.49140  0.87750  1.0000 0.5731648791
C   C32       1.0  0.90360  0.99140  0.62250  1.0000 0.5731648791
C   C33       1.0  0.27840  0.23470  0.27520  1.0000 0.5760296889
C   C34       1.0  0.72160  0.73470  0.22480  1.0000 0.5760296889
C   C35       1.0  0.72160  0.76530  0.72480  1.0000 0.5760296889
C   C36       1.0  0.27840  0.26530  0.77520  1.0000 0.5731648791
O   O1        1.0  0.44290  0.46280  0.04850  1.0000 -0.7460915041
O   O2        1.0  0.55710  0.96280  0.45150  1.0000 -0.7460915041
O   O3        1.0  0.55710  0.53720  0.95150  1.0000 -0.7460915041
O   O4        1.0  0.44290  0.03720  0.54850  1.0000 -0.7460915041
O   O5        1.0  0.49940  0.54490  0.16490  1.0000 -0.5541740549
O   O6        1.0  0.50060  0.04490  0.33510  1.0000 -0.5541740549
O   O7        1.0  0.50060  0.45510  0.83510  1.0000 -0.5541740549
O   O8        1.0  0.49940  0.95510  0.66490  1.0000 -0.5541740549
O   O9        1.0  0.79480  0.46980  0.13480  1.0000 -0.6300486219
O   O10       1.0  0.20520  0.96980  0.36520  1.0000 -0.6300486219
O   O11       1.0  0.20520  0.53020  0.86520  1.0000 -0.6300486219
O   O12       1.0  0.79480  0.03020  0.63480  1.0000 -0.6300486219
O   O13       1.0  0.89550  0.59470  0.10110  1.0000 -0.6072289836
O   O14       1.0  0.10450  0.09470  0.39890  1.0000 -0.6072289836
O   O15       1.0  0.10450  0.40530  0.89890  1.0000 -0.6072289836
O   O16       1.0  0.89550  0.90530  0.60110  1.0000 -0.6072289836
O   O17       1.0  0.19130  0.16330  0.26960  1.0000 -0.6072289836
O   O18       1.0  0.80870  0.66330  0.23040  1.0000 -0.6072289836
O   O19       1.0  0.80870  0.83670  0.73040  1.0000 -0.6072289836
O   O20       1.0  0.19130  0.33670  0.76960  1.0000 -0.6072289836
O   O21       1.0  0.40790  0.24890  0.34280  1.0000 -0.6072289836
O   O22       1.0  0.59210  0.74890  0.15720  1.0000 -0.6072289836
O   O23       1.0  0.59210  0.75110  0.65720  1.0000 -0.6072289836
O   O24       1.0  0.40790  0.25110  0.84280  1.0000 -0.6072289836
