# DDEC6 charges by PACMAN v1.1 (https://github.com/mtap-research/PACMAN-charge/)
data_2008[NiW][nan]3[ASR]1
_chemical_formula_sum              "Ni24 P4 H28 W36 C36 O144"
_cell_length_a       15.5419
_cell_length_b       15.5419
_cell_length_c       26.4893
_cell_angle_alpha    90
_cell_angle_beta     90
_cell_angle_gamma    90

_symmetry_space_group_name_H-M    "P 1"
_symmetry_Int_Tables_number       1

loop_
  _symmetry_equiv_pos_as_xyz
  'x, y, z'

loop_
  _atom_site_type_symbol
  _atom_site_label
  _atom_site_symmetry_multiplicity
  _atom_site_fract_x
  _atom_site_fract_y
  _atom_site_fract_z
  _atom_site_occupancy
  _atom_site_charge
Ni  Ni1       1.0  0.62964  0.84501  0.74741  1.0000 1.0429927765
Ni  Ni2       1.0  0.37036  0.15499  0.24741  1.0000 1.0429927765
Ni  Ni3       1.0  0.15499  0.62964  0.99741  1.0000 1.0429927765
Ni  Ni4       1.0  0.84501  0.37036  0.49741  1.0000 1.0429927765
Ni  Ni5       1.0  0.80220  0.84440  0.68707  1.0000 1.0272007643
Ni  Ni6       1.0  0.19780  0.15560  0.18707  1.0000 1.0272007643
Ni  Ni7       1.0  0.15560  0.80220  0.93707  1.0000 1.0272007643
Ni  Ni8       1.0  0.84440  0.19780  0.43707  1.0000 1.0272007643
Ni  Ni9       1.0  0.65397  0.71260  0.66830  1.0000 1.00228042
Ni  Ni10      1.0  0.34603  0.28740  0.16830  1.0000 1.00228042
Ni  Ni11      1.0  0.28740  0.65397  0.91830  1.0000 1.00228042
Ni  Ni12      1.0  0.71260  0.34603  0.41830  1.0000 1.00228042
Ni  Ni13      1.0  0.95840  0.83675  0.61428  1.0000 0.9109862505
Ni  Ni14      1.0  0.04160  0.16325  0.11428  1.0000 0.9109862505
Ni  Ni15      1.0  0.16325  0.95840  0.86428  1.0000 0.9109862505
Ni  Ni16      1.0  0.83675  0.04160  0.36428  1.0000 0.9109862505
Ni  Ni17      1.0  0.81478  0.70523  0.60101  1.0000 1.0156579871
Ni  Ni18      1.0  0.18522  0.29477  0.10101  1.0000 1.0156579871
Ni  Ni19      1.0  0.29477  0.81478  0.85101  1.0000 1.0139190017
Ni  Ni20      1.0  0.70523  0.18522  0.35101  1.0000 1.0156579871
Ni  Ni21      1.0  0.41397  0.67190  0.82941  1.0000 1.0582929908
Ni  Ni22      1.0  0.58603  0.32810  0.32941  1.0000 1.0582929908
Ni  Ni23      1.0  0.32810  0.41397  0.07941  1.0000 1.0582929908
Ni  Ni24      1.0  0.67190  0.58603  0.57941  1.0000 1.0582929908
P   P1        1.0  0.83050  0.63892  0.71847  1.0000 1.3757124602
P   P2        1.0  0.16950  0.36108  0.21847  1.0000 1.3720614969
P   P3        1.0  0.36108  0.83050  0.96847  1.0000 1.3720614969
P   P4        1.0  0.63892  0.16950  0.46847  1.0000 1.3757124602
H   H1        1.0  0.65230  0.87720  0.65240  1.0000 0.3552410065
H   H2        1.0  0.34770  0.12280  0.15240  1.0000 0.3544017731
H   H3        1.0  0.12280  0.65230  0.90240  1.0000 0.3544017731
H   H4        1.0  0.87720  0.34770  0.40240  1.0000 0.3552410065
H   H5        1.0  0.80020  0.87160  0.58870  1.0000 0.3675577252
H   H6        1.0  0.19980  0.12840  0.08870  1.0000 0.3675577252
H   H7        1.0  0.12840  0.80020  0.83870  1.0000 0.3675577252
H   H8        1.0  0.87160  0.19980  0.33870  1.0000 0.3675577252
H   H9        1.0  0.66000  0.75170  0.57440  1.0000 0.3675577252
H   H10       1.0  0.34000  0.24830  0.07440  1.0000 0.3675577252
H   H11       1.0  0.24830  0.66000  0.82440  1.0000 0.3675577252
H   H12       1.0  0.75170  0.34000  0.32440  1.0000 0.3675577252
H   H13       1.0  0.08970  0.85360  0.54290  1.0000 0.3097918614
H   H14       1.0  0.91030  0.14640  0.04290  1.0000 0.3097918614
H   H15       1.0  0.14640  0.08970  0.79290  1.0000 0.3097918614
H   H16       1.0  0.85360  0.91030  0.29290  1.0000 0.3097918614
H   H17       1.0  0.43320  0.83210  0.58810  1.0000 0.1001188217
H   H18       1.0  0.56680  0.16790  0.08810  1.0000 0.1001188217
H   H19       1.0  0.16790  0.43320  0.83810  1.0000 0.1001188217
H   H20       1.0  0.83210  0.56680  0.33810  1.0000 0.1001188217
H   H21       1.0  0.30170  0.85440  0.55630  1.0000 0.0904339601
H   H22       1.0  0.69830  0.14560  0.05630  1.0000 0.0904339601
H   H23       1.0  0.14560  0.30170  0.80630  1.0000 0.0904339601
H   H24       1.0  0.85440  0.69830  0.30630  1.0000 0.0904339601
H   H25       1.0  0.19460  0.79770  0.69020  1.0000 0.0904339601
H   H26       1.0  0.80540  0.20230  0.19020  1.0000 0.0904339601
H   H27       1.0  0.20230  0.19460  0.94020  1.0000 0.0904339601
H   H28       1.0  0.79770  0.80540  0.44020  1.0000 0.0904339601
W   W1        1.0  0.64017  0.63483  0.79341  1.0000 2.3901894449
W   W2        1.0  0.35983  0.36517  0.29341  1.0000 2.3901894449
W   W3        1.0  0.36517  0.64017  0.04341  1.0000 2.3901894449
W   W4        1.0  0.63483  0.35983  0.54341  1.0000 2.3901894449
W   W5        1.0  0.85895  0.48135  0.62115  1.0000 2.4123706876
W   W6        1.0  0.14105  0.51865  0.12115  1.0000 2.4123706876
W   W7        1.0  0.51865  0.85895  0.87115  1.0000 2.4123706876
W   W8        1.0  0.48135  0.14105  0.37115  1.0000 2.4123706876
W   W9        1.0  0.98118  0.46072  0.72890  1.0000 2.4769159614
W   W10       1.0  0.01882  0.53928  0.22890  1.0000 2.4769159614
W   W11       1.0  0.53928  0.98118  0.97890  1.0000 2.4769159614
W   W12       1.0  0.46072  0.01882  0.47890  1.0000 2.4769159614
W   W13       1.0  0.02040  0.62651  0.64548  1.0000 2.4221651613
W   W14       1.0  0.97960  0.37349  0.14548  1.0000 2.4279966413
W   W15       1.0  0.37349  0.02040  0.89548  1.0000 2.4221651613
W   W16       1.0  0.62651  0.97960  0.39548  1.0000 2.4279966413
W   W17       1.0  0.96190  0.62405  0.83100  1.0000 2.4279966413
W   W18       1.0  0.03810  0.37595  0.33100  1.0000 2.4279966413
W   W19       1.0  0.37595  0.96190  0.08100  1.0000 2.4221651613
W   W20       1.0  0.62405  0.03810  0.58100  1.0000 2.4279966413
W   W21       1.0  0.66302  0.48630  0.69893  1.0000 2.4429850637
W   W22       1.0  0.33698  0.51370  0.19893  1.0000 2.4464945852
W   W23       1.0  0.51370  0.66302  0.94893  1.0000 2.4429850637
W   W24       1.0  0.48630  0.33698  0.44893  1.0000 2.4464945852
W   W25       1.0  0.78374  0.46844  0.80849  1.0000 2.4429850637
W   W26       1.0  0.21626  0.53156  0.30849  1.0000 2.4279966413
W   W27       1.0  0.53156  0.78374  0.05849  1.0000 2.4429850637
W   W28       1.0  0.46844  0.21626  0.55849  1.0000 2.4279966413
W   W29       1.0  0.99623  0.78807  0.74577  1.0000 2.3901894449
W   W30       1.0  0.00377  0.21193  0.24577  1.0000 2.3901894449
W   W31       1.0  0.21193  0.99623  0.99577  1.0000 2.3901894449
W   W32       1.0  0.78807  0.00377  0.49577  1.0000 2.3901894449
W   W33       1.0  0.81404  0.79022  0.81956  1.0000 2.4656510412
W   W34       1.0  0.18596  0.20978  0.31956  1.0000 2.4656510412
W   W35       1.0  0.20978  0.81404  0.06956  1.0000 2.4645342885
W   W36       1.0  0.79022  0.18596  0.56956  1.0000 2.4656510412
C   C1        1.0  0.39710  0.80380  0.65930  1.0000 -0.0556718909
C   C2        1.0  0.60290  0.19620  0.15930  1.0000 -0.0556718909
C   C3        1.0  0.19620  0.39710  0.90930  1.0000 -0.0556718909
C   C4        1.0  0.80380  0.60290  0.40930  1.0000 -0.0556718909
C   C5        1.0  0.38540  0.82580  0.60890  1.0000 -0.1384346128
C   C6        1.0  0.61460  0.17420  0.10890  1.0000 -0.1384346128
C   C7        1.0  0.17420  0.38540  0.85890  1.0000 -0.1384346128
C   C8        1.0  0.82580  0.61460  0.35890  1.0000 -0.1384346128
C   C9        1.0  0.30780  0.83810  0.58990  1.0000 -0.1306080331
C   C10       1.0  0.69220  0.16190  0.08990  1.0000 -0.1306080331
C   C11       1.0  0.16190  0.30780  0.83990  1.0000 -0.1306080331
C   C12       1.0  0.83810  0.69220  0.33990  1.0000 -0.1306080331
C   C13       1.0  0.23490  0.82680  0.61990  1.0000 -0.0801745944
C   C14       1.0  0.76510  0.17320  0.11990  1.0000 -0.0801745944
C   C15       1.0  0.17320  0.23490  0.86990  1.0000 -0.0801745944
C   C16       1.0  0.82680  0.76510  0.36990  1.0000 -0.0801745944
C   C17       1.0  0.24320  0.80530  0.67020  1.0000 -0.1384346128
C   C18       1.0  0.75680  0.19470  0.17020  1.0000 -0.1384346128
C   C19       1.0  0.19470  0.24320  0.92020  1.0000 -0.1384346128
C   C20       1.0  0.80530  0.75680  0.42020  1.0000 -0.1384346128
C   C21       1.0  0.32500  0.79520  0.69080  1.0000 -0.0801745944
C   C22       1.0  0.67500  0.20480  0.19080  1.0000 -0.0801745944
C   C23       1.0  0.20480  0.32500  0.94080  1.0000 -0.0801745944
C   C24       1.0  0.79520  0.67500  0.44080  1.0000 -0.0801745944
C   C25       1.0  0.48580  0.79030  0.68070  1.0000 0.5620699062
C   C26       1.0  0.51420  0.20970  0.18070  1.0000 0.5620699062
C   C27       1.0  0.20970  0.48580  0.93070  1.0000 0.5620699062
C   C28       1.0  0.79030  0.51420  0.43070  1.0000 0.5620699062
C   C29       1.0  0.33710  0.77480  0.74580  1.0000 0.5717016219
C   C30       1.0  0.66290  0.22520  0.24580  1.0000 0.5717016219
C   C31       1.0  0.22520  0.33710  0.99580  1.0000 0.5717016219
C   C32       1.0  0.77480  0.66290  0.49580  1.0000 0.5717016219
C   C33       1.0  0.14640  0.83740  0.59710  1.0000 0.5620699062
C   C34       1.0  0.85360  0.16260  0.09710  1.0000 0.5620699062
C   C35       1.0  0.16260  0.14640  0.84710  1.0000 0.5620699062
C   C36       1.0  0.83740  0.85360  0.34710  1.0000 0.5620699062
O   O1        1.0  0.76470  0.83710  0.76390  1.0000 -0.960580507
O   O2        1.0  0.23530  0.16290  0.26390  1.0000 -0.960580507
O   O3        1.0  0.16290  0.76470  0.01390  1.0000 -0.960580507
O   O4        1.0  0.83710  0.23530  0.51390  1.0000 -0.960580507
O   O5        1.0  0.67730  0.83820  0.67750  1.0000 -0.9380419792
O   O6        1.0  0.32270  0.16180  0.17750  1.0000 -0.9380419792
O   O7        1.0  0.16180  0.67730  0.92750  1.0000 -0.9380419792
O   O8        1.0  0.83820  0.32270  0.42750  1.0000 -0.9380419792
O   O9        1.0  0.63580  0.71270  0.74390  1.0000 -0.8966588319
O   O10       1.0  0.36420  0.28730  0.24390  1.0000 -0.8966588319
O   O11       1.0  0.28730  0.63580  0.99390  1.0000 -0.8966588319
O   O12       1.0  0.71270  0.36420  0.49390  1.0000 -0.8966588319
O   O13       1.0  0.93070  0.83200  0.69560  1.0000 -0.9509276479
O   O14       1.0  0.06930  0.16800  0.19560  1.0000 -0.9509276479
O   O15       1.0  0.16800  0.93070  0.94560  1.0000 -0.9509276479
O   O16       1.0  0.83200  0.06930  0.44560  1.0000 -0.9509276479
O   O17       1.0  0.82960  0.83250  0.61210  1.0000 -0.9380419792
O   O18       1.0  0.17040  0.16750  0.11210  1.0000 -0.9380419792
O   O19       1.0  0.16750  0.82960  0.86210  1.0000 -0.9380419792
O   O20       1.0  0.83250  0.17040  0.36210  1.0000 -0.9380419792
O   O21       1.0  0.68610  0.70900  0.59700  1.0000 -0.9285999478
O   O22       1.0  0.31390  0.29100  0.09700  1.0000 -0.9285999478
O   O23       1.0  0.29100  0.68610  0.84700  1.0000 -0.9285999478
O   O24       1.0  0.70900  0.31390  0.34700  1.0000 -0.9285999478
O   O25       1.0  0.64620  0.57770  0.65790  1.0000 -0.9285999478
O   O26       1.0  0.35380  0.42230  0.15790  1.0000 -0.9285999478
O   O27       1.0  0.42230  0.64620  0.90790  1.0000 -0.9285999478
O   O28       1.0  0.57770  0.35380  0.40790  1.0000 -0.9285999478
O   O29       1.0  0.94470  0.70110  0.61740  1.0000 -0.9380419792
O   O30       1.0  0.05530  0.29890  0.11740  1.0000 -0.9380419792
O   O31       1.0  0.29890  0.94470  0.86740  1.0000 -0.9380419792
O   O32       1.0  0.70110  0.05530  0.36740  1.0000 -0.9380419792
O   O33       1.0  0.42580  0.79970  0.85000  1.0000 -0.9114383401
O   O34       1.0  0.57420  0.20030  0.35000  1.0000 -0.9114383401
O   O35       1.0  0.20030  0.42580  0.10000  1.0000 -0.9114383401
O   O36       1.0  0.79970  0.57420  0.60000  1.0000 -0.9114383401
O   O37       1.0  0.79050  0.70330  0.68090  1.0000 -0.8125800879
O   O38       1.0  0.20950  0.29670  0.18090  1.0000 -0.8125800879
O   O39       1.0  0.29670  0.79050  0.93090  1.0000 -0.8125800879
O   O40       1.0  0.70330  0.20950  0.43090  1.0000 -0.8125800879
O   O41       1.0  0.50920  0.83950  0.71560  1.0000 -0.5886386972
O   O42       1.0  0.49080  0.16050  0.21560  1.0000 -0.5849310101
O   O43       1.0  0.16050  0.50920  0.96560  1.0000 -0.5849310101
O   O44       1.0  0.83950  0.49080  0.46560  1.0000 -0.5886386972
O   O45       1.0  0.52890  0.73490  0.65860  1.0000 -0.5574984939
O   O46       1.0  0.47110  0.26510  0.15860  1.0000 -0.5574984939
O   O47       1.0  0.26510  0.52890  0.90860  1.0000 -0.5574984939
O   O48       1.0  0.73490  0.47110  0.40860  1.0000 -0.5574984939
O   O49       1.0  0.38530  0.71060  0.75720  1.0000 -0.6123905123
O   O50       1.0  0.61470  0.28940  0.25720  1.0000 -0.6123905123
O   O51       1.0  0.28940  0.38530  0.00720  1.0000 -0.6123905123
O   O52       1.0  0.71060  0.61470  0.50720  1.0000 -0.6123905123
O   O53       1.0  0.29550  0.82280  0.77570  1.0000 -0.5886386972
O   O54       1.0  0.70450  0.17720  0.27570  1.0000 -0.5886386972
O   O55       1.0  0.17720  0.29550  0.02570  1.0000 -0.5886386972
O   O56       1.0  0.82280  0.70450  0.52570  1.0000 -0.5886386972
O   O57       1.0  0.08310  0.83790  0.62830  1.0000 -0.6675952018
O   O58       1.0  0.91690  0.16210  0.12830  1.0000 -0.6675952018
O   O59       1.0  0.16210  0.08310  0.87830  1.0000 -0.6675952018
O   O60       1.0  0.83790  0.91690  0.37830  1.0000 -0.6675952018
O   O61       1.0  0.14050  0.84890  0.55070  1.0000 -0.4642201082
O   O62       1.0  0.85950  0.15110  0.05070  1.0000 -0.4642201082
O   O63       1.0  0.15110  0.14050  0.80070  1.0000 -0.4642201082
O   O64       1.0  0.84890  0.85950  0.30070  1.0000 -0.4642201082
O   O65       1.0  0.54480  0.65520  0.82580  1.0000 -0.8635867626
O   O66       1.0  0.45520  0.34480  0.32580  1.0000 -0.8635867626
O   O67       1.0  0.34480  0.54480  0.07580  1.0000 -0.8635867626
O   O68       1.0  0.65520  0.45520  0.57580  1.0000 -0.8635867626
O   O69       1.0  0.71000  0.42350  0.75820  1.0000 -1.0490758956
O   O70       1.0  0.29000  0.57650  0.25820  1.0000 -1.0490758956
O   O71       1.0  0.57650  0.71000  0.00820  1.0000 -1.0490758956
O   O72       1.0  0.42350  0.29000  0.50820  1.0000 -1.0490758956
O   O73       1.0  0.88910  0.71010  0.85820  1.0000 -1.0023855012
O   O74       1.0  0.11090  0.28990  0.35820  1.0000 -1.0023855012
O   O75       1.0  0.28990  0.88910  0.10820  1.0000 -1.0023855012
O   O76       1.0  0.71010  0.11090  0.60820  1.0000 -1.0023855012
O   O77       1.0  0.72710  0.70570  0.82550  1.0000 -0.9509276479
O   O78       1.0  0.27290  0.29430  0.32550  1.0000 -0.9509276479
O   O79       1.0  0.29430  0.72710  0.07550  1.0000 -0.9509276479
O   O80       1.0  0.70570  0.27290  0.57550  1.0000 -0.9509276479
O   O81       1.0  0.92780  0.41520  0.67060  1.0000 -0.9799541839
O   O82       1.0  0.07220  0.58480  0.17060  1.0000 -0.9901349883
O   O83       1.0  0.58480  0.92780  0.92060  1.0000 -0.9799541839
O   O84       1.0  0.41520  0.07220  0.42060  1.0000 -0.9901349883
O   O85       1.0  0.76350  0.45090  0.66450  1.0000 -0.9285999478
O   O86       1.0  0.23650  0.54910  0.16450  1.0000 -0.9285999478
O   O87       1.0  0.54910  0.76350  0.91450  1.0000 -0.9285999478
O   O88       1.0  0.45090  0.23650  0.41450  1.0000 -0.9285999478
O   O89       1.0  0.89360  0.57840  0.69120  1.0000 -0.9692034833
O   O90       1.0  0.10640  0.42160  0.19120  1.0000 -0.960580507
O   O91       1.0  0.42160  0.89360  0.94120  1.0000 -0.9692034833
O   O92       1.0  0.57840  0.10640  0.44120  1.0000 -0.960580507
O   O93       1.0  0.92450  0.83700  0.79760  1.0000 -1.0273182632
O   O94       1.0  0.07550  0.16300  0.29760  1.0000 -1.0273182632
O   O95       1.0  0.16300  0.92450  0.04760  1.0000 -1.0273182632
O   O96       1.0  0.83700  0.07550  0.54760  1.0000 -1.0273182632
O   O97       1.0  0.96430  0.53420  0.60380  1.0000 -0.9509276479
O   O98       1.0  0.03570  0.46580  0.10380  1.0000 -0.9509276479
O   O99       1.0  0.46580  0.96430  0.85380  1.0000 -0.9509276479
O   O100      1.0  0.53420  0.03570  0.35380  1.0000 -0.9509276479
O   O101      1.0  0.87830  0.43530  0.76510  1.0000 -1.0209341661
O   O102      1.0  0.12170  0.56470  0.26510  1.0000 -1.0209341661
O   O103      1.0  0.56470  0.87830  0.01510  1.0000 -1.0209341661
O   O104      1.0  0.43530  0.12170  0.51510  1.0000 -1.0209341661
O   O105      1.0  0.59150  0.84950  0.82150  1.0000 -0.84276312
O   O106      1.0  0.40850  0.15050  0.32150  1.0000 -0.84276312
O   O107      1.0  0.15050  0.59150  0.07150  1.0000 -0.84276312
O   O108      1.0  0.84950  0.40850  0.57150  1.0000 -0.84276312
O   O109      1.0  0.76170  0.58220  0.74330  1.0000 -0.9509276479
O   O110      1.0  0.23830  0.41780  0.24330  1.0000 -0.9509276479
O   O111      1.0  0.41780  0.76170  0.99330  1.0000 -0.9380419792
O   O112      1.0  0.58220  0.23830  0.49330  1.0000 -0.9509276479
O   O113      1.0  0.03310  0.70900  0.80210  1.0000 -0.9799541839
O   O114      1.0  0.96690  0.29100  0.30210  1.0000 -0.9799541839
O   O115      1.0  0.29100  0.03310  0.05210  1.0000 -0.9692034833
O   O116      1.0  0.70900  0.96690  0.55210  1.0000 -0.9799541839
O   O117      1.0  0.99970  0.54460  0.78100  1.0000 -0.9692034833
O   O118      1.0  0.00030  0.45540  0.28100  1.0000 -0.9692034833
O   O119      1.0  0.45540  0.99970  0.03100  1.0000 -0.9692034833
O   O120      1.0  0.54460  0.00030  0.53100  1.0000 -0.9692034833
O   O121      1.0  0.69150  0.53960  0.83140  1.0000 -0.9901349883
O   O122      1.0  0.30850  0.46040  0.33140  1.0000 -0.9901349883
O   O123      1.0  0.46040  0.69150  0.08140  1.0000 -0.9901349883
O   O124      1.0  0.53960  0.30850  0.58140  1.0000 -0.9901349883
O   O125      1.0  0.86310  0.54870  0.83510  1.0000 -1.0023855012
O   O126      1.0  0.13690  0.45130  0.33510  1.0000 -1.0070533694
O   O127      1.0  0.45130  0.86310  0.08510  1.0000 -1.0023855012
O   O128      1.0  0.54870  0.13690  0.58510  1.0000 -1.0070533694
O   O129      1.0  0.88050  0.68810  0.76000  1.0000 -0.9799541839
O   O130      1.0  0.11950  0.31190  0.26000  1.0000 -0.9799541839
O   O131      1.0  0.31190  0.88050  0.01000  1.0000 -0.9799541839
O   O132      1.0  0.68810  0.11950  0.51000  1.0000 -0.9799541839
O   O133      1.0  0.03720  0.69610  0.70310  1.0000 -0.960580507
O   O134      1.0  0.96280  0.30390  0.20310  1.0000 -0.9509276479
O   O135      1.0  0.30390  0.03720  0.95310  1.0000 -0.960580507
O   O136      1.0  0.69610  0.96280  0.45310  1.0000 -0.9509276479
O   O137      1.0  0.59770  0.54690  0.75060  1.0000 -0.9380419792
O   O138      1.0  0.40230  0.45310  0.25060  1.0000 -0.9380419792
O   O139      1.0  0.45310  0.59770  0.00060  1.0000 -0.9380419792
O   O140      1.0  0.54690  0.40230  0.50060  1.0000 -0.9380419792
O   O141      1.0  0.05490  0.52670  0.68780  1.0000 -1.0209341661
O   O142      1.0  0.94510  0.47330  0.18780  1.0000 -1.0209341661
O   O143      1.0  0.47330  0.05490  0.93780  1.0000 -1.0209341661
O   O144      1.0  0.52670  0.94510  0.43780  1.0000 -1.0209341661
