# DDEC6 charges by PACMAN v1.1 (https://github.com/mtap-research/PACMAN-charge/)
data_2008[Co][sod]3[ASR]2
_chemical_formula_sum              "Co6 H60 C48 N24"
_cell_length_a       14.6868
_cell_length_b       14.6868
_cell_length_c       14.6868
_cell_angle_alpha    109.471
_cell_angle_beta     109.471
_cell_angle_gamma    109.471

_symmetry_space_group_name_H-M    "P 1"
_symmetry_Int_Tables_number       1

loop_
  _symmetry_equiv_pos_as_xyz
  'x, y, z'

loop_
  _atom_site_type_symbol
  _atom_site_label
  _atom_site_symmetry_multiplicity
  _atom_site_fract_x
  _atom_site_fract_y
  _atom_site_fract_z
  _atom_site_occupancy
  _atom_site_charge
Co  Co1       1.0  0.75000  0.25000  0.50000  1.0000 0.6862064551
Co  Co2       1.0  0.25000  0.75000  0.50000  1.0000 0.6862064551
Co  Co3       1.0  0.50000  0.25000  0.75000  1.0000 0.6862064551
Co  Co4       1.0  0.50000  0.75000  0.25000  1.0000 0.6838828723
Co  Co5       1.0  0.25000  0.50000  0.75000  1.0000 0.6862064551
Co  Co6       1.0  0.75000  0.50000  0.25000  1.0000 0.6838828723
H   H1        1.0  0.57397  0.35508  0.47164  1.0000 0.0833059539
H   H2        1.0  0.88344  0.10233  0.52836  1.0000 0.0833059539
H   H3        1.0  0.11656  0.64492  0.21889  1.0000 0.0833059539
H   H4        1.0  0.42603  0.89767  0.78111  1.0000 0.0833059539
H   H5        1.0  0.21889  0.11656  0.64492  1.0000 0.0833059539
H   H6        1.0  0.78111  0.42603  0.89767  1.0000 0.0833059539
H   H7        1.0  0.47164  0.57397  0.35508  1.0000 0.0833059539
H   H8        1.0  0.52836  0.88344  0.10233  1.0000 0.0833059539
H   H9        1.0  0.10233  0.52836  0.88344  1.0000 0.0857048283
H   H10       1.0  0.35508  0.47164  0.57397  1.0000 0.0833059539
H   H11       1.0  0.89767  0.78111  0.42603  1.0000 0.0833059539
H   H12       1.0  0.64492  0.21889  0.11656  1.0000 0.0833059539
H   H13       1.0  0.10233  0.88344  0.52836  1.0000 0.0833059539
H   H14       1.0  0.35508  0.57397  0.47164  1.0000 0.0833059539
H   H15       1.0  0.89767  0.42603  0.78111  1.0000 0.0857048283
H   H16       1.0  0.64492  0.11656  0.21889  1.0000 0.0833059539
H   H17       1.0  0.57397  0.47164  0.35508  1.0000 0.0833059539
H   H18       1.0  0.88344  0.52836  0.10233  1.0000 0.0857048283
H   H19       1.0  0.11656  0.21889  0.64492  1.0000 0.0833059539
H   H20       1.0  0.42603  0.78111  0.89767  1.0000 0.0833059539
H   H21       1.0  0.21889  0.64492  0.11656  1.0000 0.0833059539
H   H22       1.0  0.78111  0.89767  0.42603  1.0000 0.0833059539
H   H23       1.0  0.47164  0.35508  0.57397  1.0000 0.0833059539
H   H24       1.0  0.52836  0.10233  0.88344  1.0000 0.0833059539
H   H25       1.0  0.73573  0.17368  0.64610  1.0000 0.1330252675
H   H26       1.0  0.60859  0.10522  0.65348  1.0000 0.1362295722
H   H27       1.0  0.72864  0.24240  0.77337  1.0000 0.122803816
H   H28       1.0  0.43702  0.91427  0.28637  1.0000 0.1330252675
H   H29       1.0  0.50257  0.02021  0.25164  1.0000 0.122803816
H   H30       1.0  0.50876  0.06552  0.38904  1.0000 0.1362295722
H   H31       1.0  0.55908  0.87359  0.48724  1.0000 0.1362295722
H   H32       1.0  0.51259  0.74757  0.50211  1.0000 0.122803816
H   H33       1.0  0.47998  0.85754  0.56231  1.0000 0.1330252675
H   H34       1.0  0.30435  0.92212  0.43892  1.0000 0.1362295722
H   H35       1.0  0.38268  0.07735  0.51644  1.0000 0.1330252675
H   H36       1.0  0.24002  0.00053  0.49299  1.0000 0.122803816
H   H37       1.0  0.49743  0.51764  0.74907  1.0000 0.122803816
H   H38       1.0  0.56298  0.47725  0.84935  1.0000 0.1330252675
H   H39       1.0  0.49124  0.55676  0.88028  1.0000 0.1362295722
H   H40       1.0  0.48741  0.23498  0.98952  1.0000 0.122803816
H   H41       1.0  0.44092  0.31450  0.92815  1.0000 0.1362295722
H   H42       1.0  0.52002  0.37756  0.08233  1.0000 0.1330252675
H   H43       1.0  0.61732  0.69468  0.13376  1.0000 0.1330252675
H   H44       1.0  0.69565  0.61777  0.13457  1.0000 0.1362295722
H   H45       1.0  0.75998  0.76051  0.25297  1.0000 0.122803816
H   H46       1.0  0.39141  0.49663  0.04490  1.0000 0.1362295722
H   H47       1.0  0.26427  0.43796  0.91037  1.0000 0.1330252675
H   H48       1.0  0.27136  0.51376  0.04473  1.0000 0.122803816
H   H49       1.0  0.05231  0.39141  0.50087  1.0000 0.1362295722
H   H50       1.0  0.91082  0.27132  0.43720  1.0000 0.1330252675
H   H51       1.0  0.03687  0.26431  0.51028  1.0000 0.122803816
H   H52       1.0  0.12880  0.61477  0.68855  1.0000 0.1362295722
H   H53       1.0  0.13978  0.70174  0.62079  1.0000 0.1330252675
H   H54       1.0  0.25272  0.75644  0.76362  1.0000 0.122803816
H   H55       1.0  0.02356  0.50415  0.25396  1.0000 0.122803816
H   H56       1.0  0.91333  0.43692  0.28333  1.0000 0.1330252675
H   H57       1.0  0.06311  0.50728  0.38975  1.0000 0.1362295722
H   H58       1.0  0.86022  0.56196  0.48100  1.0000 0.1330252675
H   H59       1.0  0.87120  0.48597  0.55975  1.0000 0.1362295722
H   H60       1.0  0.74728  0.50372  0.51090  1.0000 0.122803816
C   C1        1.0  0.58550  0.32020  0.53070  1.0000 -0.0502703995
C   C2        1.0  0.78950  0.05480  0.46930  1.0000 -0.0502703995
C   C3        1.0  0.21050  0.67980  0.26530  1.0000 -0.0502703995
C   C4        1.0  0.41450  0.94520  0.73470  1.0000 -0.0502703995
C   C5        1.0  0.26530  0.21050  0.67980  1.0000 -0.0502703995
C   C6        1.0  0.73470  0.41450  0.94520  1.0000 -0.0502703995
C   C7        1.0  0.53070  0.58550  0.32020  1.0000 -0.0502703995
C   C8        1.0  0.46930  0.78950  0.05480  1.0000 -0.0502703995
C   C9        1.0  0.05480  0.46930  0.78950  1.0000 -0.0502703995
C   C10       1.0  0.32020  0.53070  0.58550  1.0000 -0.0502703995
C   C11       1.0  0.94520  0.73470  0.41450  1.0000 -0.0502703995
C   C12       1.0  0.67980  0.26530  0.21050  1.0000 -0.0502703995
C   C13       1.0  0.05480  0.78950  0.46930  1.0000 -0.0502703995
C   C14       1.0  0.32020  0.58550  0.53070  1.0000 -0.0502703995
C   C15       1.0  0.94520  0.41450  0.73470  1.0000 -0.0502703995
C   C16       1.0  0.67980  0.21050  0.26530  1.0000 -0.0502703995
C   C17       1.0  0.58550  0.53070  0.32020  1.0000 -0.0502703995
C   C18       1.0  0.78950  0.46930  0.05480  1.0000 -0.0502703995
C   C19       1.0  0.21050  0.26530  0.67980  1.0000 -0.0502703995
C   C20       1.0  0.41450  0.73470  0.94520  1.0000 -0.0502703995
C   C21       1.0  0.26530  0.67980  0.21050  1.0000 -0.0502703995
C   C22       1.0  0.73470  0.94520  0.41450  1.0000 -0.0502703995
C   C23       1.0  0.53070  0.32020  0.58550  1.0000 -0.0502703995
C   C24       1.0  0.46930  0.05480  0.78950  1.0000 -0.0502703995
C   C25       1.0  0.63000  0.24680  0.63000  1.0000 0.3669041569
C   C26       1.0  0.67860  0.18860  0.67860  1.0000 -0.4174353029
C   C27       1.0  0.61680  0.00000  0.37000  1.0000 0.3669041569
C   C28       1.0  0.51000  0.00000  0.32140  1.0000 -0.4174353029
C   C29       1.0  0.38320  0.75320  0.38320  1.0000 0.3669041569
C   C30       1.0  0.49000  0.81140  0.49000  1.0000 -0.4174353029
C   C31       1.0  0.37000  0.00000  0.61680  1.0000 0.3669041569
C   C32       1.0  0.32140  0.00000  0.51000  1.0000 -0.4174353029
C   C33       1.0  0.38320  0.38320  0.75320  1.0000 0.3669041569
C   C34       1.0  0.49000  0.49000  0.81140  1.0000 -0.4174353029
C   C35       1.0  0.61680  0.37000  0.00000  1.0000 0.3669041569
C   C36       1.0  0.51000  0.32140  0.00000  1.0000 -0.4174353029
C   C37       1.0  0.63000  0.63000  0.24680  1.0000 0.3669041569
C   C38       1.0  0.67860  0.67860  0.18860  1.0000 -0.4174353029
C   C39       1.0  0.37000  0.61680  0.00000  1.0000 0.3669041569
C   C40       1.0  0.32140  0.51000  0.00000  1.0000 -0.4174353029
C   C41       1.0  1.00000  0.37000  0.61680  1.0000 0.3669041569
C   C42       1.0  1.00000  0.32140  0.51000  1.0000 -0.4141485591
C   C43       1.0  0.24680  0.63000  0.63000  1.0000 0.3669041569
C   C44       1.0  0.18860  0.67860  0.67860  1.0000 -0.4174353029
C   C45       1.0  1.00000  0.61680  0.37000  1.0000 0.3669041569
C   C46       1.0  1.00000  0.51000  0.32140  1.0000 -0.4174353029
C   C47       1.0  0.75320  0.38320  0.38320  1.0000 0.3669041569
C   C48       1.0  0.81140  0.49000  0.49000  1.0000 -0.4174353029
N   N1        1.0  0.65190  0.27350  0.55880  1.0000 -0.3762203616
N   N2        1.0  0.71470  0.09310  0.44120  1.0000 -0.3762203616
N   N3        1.0  0.28530  0.72650  0.37840  1.0000 -0.3762203616
N   N4        1.0  0.34810  0.90690  0.62160  1.0000 -0.3762203616
N   N5        1.0  0.37840  0.28530  0.72650  1.0000 -0.374341571
N   N6        1.0  0.62160  0.34810  0.90690  1.0000 -0.3762203616
N   N7        1.0  0.55880  0.65190  0.27350  1.0000 -0.374341571
N   N8        1.0  0.44120  0.71470  0.09310  1.0000 -0.3762203616
N   N9        1.0  0.09310  0.44120  0.71470  1.0000 -0.3762203616
N   N10       1.0  0.27350  0.55880  0.65190  1.0000 -0.374341571
N   N11       1.0  0.90690  0.62160  0.34810  1.0000 -0.374341571
N   N12       1.0  0.72650  0.37840  0.28530  1.0000 -0.3762203616
N   N13       1.0  0.09310  0.71470  0.44120  1.0000 -0.3762203616
N   N14       1.0  0.27350  0.65190  0.55880  1.0000 -0.3762203616
N   N15       1.0  0.90690  0.34810  0.62160  1.0000 -0.3762203616
N   N16       1.0  0.72650  0.28530  0.37840  1.0000 -0.374341571
N   N17       1.0  0.65190  0.55880  0.27350  1.0000 -0.3762203616
N   N18       1.0  0.71470  0.44120  0.09310  1.0000 -0.3762203616
N   N19       1.0  0.28530  0.37840  0.72650  1.0000 -0.374341571
N   N20       1.0  0.34810  0.62160  0.90690  1.0000 -0.374341571
N   N21       1.0  0.37840  0.72650  0.28530  1.0000 -0.3762203616
N   N22       1.0  0.62160  0.90690  0.34810  1.0000 -0.3762203616
N   N23       1.0  0.55880  0.27350  0.65190  1.0000 -0.3762203616
N   N24       1.0  0.44120  0.09310  0.71470  1.0000 -0.374341571
