# DDEC6 charges by PACMAN v1.1 (https://github.com/mtap-research/PACMAN-charge/)
data_2008[MoCu][nan]3[ASR]1
_chemical_formula_sum              "Cu4 Mo4 H4 C4 N6 O14"
_cell_length_a       6.2312
_cell_length_b       9.366
_cell_length_c       9.45
_cell_angle_alpha    103.67
_cell_angle_beta     108.541
_cell_angle_gamma    95.229

_symmetry_space_group_name_H-M    "P 1"
_symmetry_Int_Tables_number       1

loop_
  _symmetry_equiv_pos_as_xyz
  'x, y, z'

loop_
  _atom_site_type_symbol
  _atom_site_label
  _atom_site_symmetry_multiplicity
  _atom_site_fract_x
  _atom_site_fract_y
  _atom_site_fract_z
  _atom_site_occupancy
  _atom_site_charge
Cu  Cu1       1.0  0.50000  0.00000  0.50000  1.0000 0.8764846307
Cu  Cu2       1.0  0.00000  0.00000  0.50000  1.0000 0.475885002
Cu  Cu3       1.0  0.54220  0.86903  0.12339  1.0000 0.4723963719
Cu  Cu4       1.0  0.45780  0.13097  0.87661  1.0000 0.4723963719
Mo  Mo1       1.0  0.63540  0.26914  0.31047  1.0000 2.2398707849
Mo  Mo2       1.0  0.36460  0.73086  0.68953  1.0000 2.2398707849
Mo  Mo3       1.0  0.28375  0.35938  0.51035  1.0000 2.2398707849
Mo  Mo4       1.0  0.71625  0.64062  0.48965  1.0000 2.2398707849
H   H1        1.0  0.93587  0.81539  0.94043  1.0000 0.1595652533
H   H2        1.0  0.06413  0.18461  0.05957  1.0000 0.1595652533
H   H3        1.0  0.76330  0.42400  0.65857  1.0000 0.4424396437
H   H4        1.0  0.23670  0.57600  0.34143  1.0000 0.4424396437
C   C1        1.0  0.25186  0.87962  0.15913  1.0000 -0.0140954367
C   C2        1.0  0.74814  0.12038  0.84087  1.0000 -0.0159960333
C   C3        1.0  0.01681  0.85218  0.06677  1.0000 -0.0410080421
C   C4        1.0  0.98319  0.14782  0.93323  1.0000 -0.0410080421
N   N1        1.0  0.25032  0.92743  0.30483  1.0000 -0.1697395834
N   N2        1.0  0.74968  0.07257  0.69517  1.0000 -0.1697395834
N   N3        1.0  0.03119  0.92932  0.30520  1.0000 -0.0458667781
N   N4        1.0  0.96881  0.07068  0.69480  1.0000 -0.0458667781
N   N5        1.0  0.88214  0.88255  0.15785  1.0000 -0.1155401337
N   N6        1.0  0.11786  0.11745  0.84215  1.0000 -0.1155401337
O   O1        1.0  0.59997  0.19194  0.11579  1.0000 -0.7291262168
O   O2        1.0  0.40003  0.80806  0.88421  1.0000 -0.7291262168
O   O3        1.0  0.67567  0.11579  0.39389  1.0000 -0.8292506951
O   O4        1.0  0.32433  0.88421  0.60611  1.0000 -0.8292506951
O   O5        1.0  0.33840  0.28320  0.31543  1.0000 -0.8532414156
O   O6        1.0  0.66160  0.71680  0.68457  1.0000 -0.8532414156
O   O7        1.0  0.65648  0.42233  0.55581  1.0000 -1.0175448674
O   O8        1.0  0.34352  0.57767  0.44419  1.0000 -1.0175448674
O   O9        1.0  0.32186  0.20306  0.57886  1.0000 -0.7780437488
O   O10       1.0  0.67814  0.79694  0.42114  1.0000 -0.7780437488
O   O11       1.0  0.97598  0.33177  0.41043  1.0000 -0.8292506951
O   O12       1.0  0.02402  0.66823  0.58957  1.0000 -0.8292506951
O   O13       1.0  0.33494  0.50862  0.68624  1.0000 -0.8066697436
O   O14       1.0  0.66506  0.49138  0.31376  1.0000 -0.8066697436
