# DDEC6 charges by PACMAN v1.1 (https://github.com/mtap-research/PACMAN-charge/)
data_2008[Mn][dia]3[ASR]1
_chemical_formula_sum              "Mn12 H24 C24 O48"
_cell_length_a       11.683
_cell_length_b       10.25
_cell_length_c       18.832
_cell_angle_alpha    90
_cell_angle_beta     126.46
_cell_angle_gamma    90

_symmetry_space_group_name_H-M    "P 1"
_symmetry_Int_Tables_number       1

loop_
  _symmetry_equiv_pos_as_xyz
  'x, y, z'

loop_
  _atom_site_type_symbol
  _atom_site_label
  _atom_site_symmetry_multiplicity
  _atom_site_fract_x
  _atom_site_fract_y
  _atom_site_fract_z
  _atom_site_occupancy
  _atom_site_charge
Mn  Mn1       1.0  0.62475  0.07657  0.86866  1.0000 0.9559540081
Mn  Mn2       1.0  0.37525  0.57657  0.63134  1.0000 0.9559540081
Mn  Mn3       1.0  0.37525  0.92343  0.13134  1.0000 0.9559540081
Mn  Mn4       1.0  0.62475  0.42343  0.36866  1.0000 0.9559540081
Mn  Mn5       1.0  0.56960  0.38760  0.80907  1.0000 0.9672031032
Mn  Mn6       1.0  0.43040  0.88760  0.69093  1.0000 0.9672031032
Mn  Mn7       1.0  0.43040  0.61240  0.19093  1.0000 0.9672031032
Mn  Mn8       1.0  0.56960  0.11240  0.30907  1.0000 0.9672031032
Mn  Mn9       1.0  0.00000  0.00000  0.00000  1.0000 0.9968768733
Mn  Mn10      1.0  0.00000  0.50000  0.50000  1.0000 0.9968768733
Mn  Mn11      1.0  0.50000  0.00000  0.00000  1.0000 0.9820977825
Mn  Mn12      1.0  0.50000  0.50000  0.50000  1.0000 0.9820977825
H   H1        1.0  0.97200  0.28630  0.96420  1.0000 0.1019757218
H   H2        1.0  0.02800  0.78630  0.53580  1.0000 0.1019757218
H   H3        1.0  0.02800  0.71370  0.03580  1.0000 0.105680004
H   H4        1.0  0.97200  0.21370  0.46420  1.0000 0.1019757218
H   H5        1.0  0.50520  0.37240  0.94920  1.0000 0.1019757218
H   H6        1.0  0.49480  0.87240  0.55080  1.0000 0.1019757218
H   H7        1.0  0.49480  0.62760  0.05080  1.0000 0.1019757218
H   H8        1.0  0.50520  0.12760  0.44920  1.0000 0.1019757218
H   H9        1.0  0.74740  0.78820  0.78460  1.0000 0.1019757218
H   H10       1.0  0.25260  0.28820  0.71540  1.0000 0.1019757218
H   H11       1.0  0.25260  0.21180  0.21540  1.0000 0.1019757218
H   H12       1.0  0.74740  0.71180  0.28460  1.0000 0.1019757218
H   H13       1.0  0.77030  0.84900  0.07210  1.0000 0.1019757218
H   H14       1.0  0.22970  0.34900  0.42790  1.0000 0.1019757218
H   H15       1.0  0.22970  0.15100  0.92790  1.0000 0.1019757218
H   H16       1.0  0.77030  0.65100  0.57210  1.0000 0.1019757218
H   H17       1.0  0.48400  0.23460  0.63350  1.0000 0.1019757218
H   H18       1.0  0.51600  0.73460  0.86650  1.0000 0.1019757218
H   H19       1.0  0.51600  0.76540  0.36650  1.0000 0.1019757218
H   H20       1.0  0.48400  0.26540  0.13350  1.0000 0.1019757218
H   H21       1.0  0.22270  0.95860  0.74310  1.0000 0.1019757218
H   H22       1.0  0.77730  0.45860  0.75690  1.0000 0.1019757218
H   H23       1.0  0.77730  0.04140  0.25690  1.0000 0.1019757218
H   H24       1.0  0.22270  0.54140  0.24310  1.0000 0.1019757218
C   C1        1.0  0.87480  0.27133  0.93264  1.0000 0.4801429885
C   C2        1.0  0.12520  0.77133  0.56736  1.0000 0.4801429885
C   C3        1.0  0.12520  0.72867  0.06736  1.0000 0.4801429885
C   C4        1.0  0.87480  0.22867  0.43264  1.0000 0.4801429885
C   C5        1.0  0.52109  0.28472  0.94509  1.0000 0.4576481434
C   C6        1.0  0.47891  0.78472  0.55491  1.0000 0.4576481434
C   C7        1.0  0.47891  0.71528  0.05491  1.0000 0.4576481434
C   C8        1.0  0.52109  0.21528  0.44509  1.0000 0.4576481434
C   C9        1.0  0.76386  0.85480  0.82316  1.0000 0.4526545929
C   C10       1.0  0.23614  0.35480  0.67684  1.0000 0.4526545929
C   C11       1.0  0.23614  0.14520  0.17684  1.0000 0.4526545929
C   C12       1.0  0.76386  0.64520  0.32316  1.0000 0.4526545929
C   C13       1.0  0.77567  0.90348  0.03471  1.0000 0.4696212823
C   C14       1.0  0.22433  0.40348  0.46529  1.0000 0.4696212823
C   C15       1.0  0.22433  0.09652  0.96529  1.0000 0.4696212823
C   C16       1.0  0.77567  0.59652  0.53471  1.0000 0.4696212823
C   C17       1.0  0.49271  0.16761  0.66971  1.0000 0.4696212823
C   C18       1.0  0.50729  0.66761  0.83029  1.0000 0.4696212823
C   C19       1.0  0.50729  0.83239  0.33029  1.0000 0.4696212823
C   C20       1.0  0.49271  0.33239  0.16971  1.0000 0.4696212823
C   C21       1.0  0.31279  0.97840  0.79371  1.0000 0.4526545929
C   C22       1.0  0.68721  0.47840  0.70629  1.0000 0.4526545929
C   C23       1.0  0.68721  0.02160  0.20629  1.0000 0.4526545929
C   C24       1.0  0.31279  0.52160  0.29371  1.0000 0.4526545929
O   O1        1.0  0.79594  0.36630  0.89533  1.0000 -0.5008243568
O   O2        1.0  0.20406  0.86630  0.60467  1.0000 -0.5008243568
O   O3        1.0  0.20406  0.63370  0.10467  1.0000 -0.5008243568
O   O4        1.0  0.79594  0.13370  0.39533  1.0000 -0.5008243568
O   O5        1.0  0.88808  0.90450  0.04309  1.0000 -0.5008243568
O   O6        1.0  0.11192  0.40450  0.45691  1.0000 -0.5008243568
O   O7        1.0  0.11192  0.09550  0.95691  1.0000 -0.5008243568
O   O8        1.0  0.88808  0.59550  0.54309  1.0000 -0.5008243568
O   O9        1.0  0.51541  0.20868  0.99301  1.0000 -0.4897987058
O   O10       1.0  0.48459  0.70868  0.50699  1.0000 -0.4897987058
O   O11       1.0  0.48459  0.79132  0.00699  1.0000 -0.4897987058
O   O12       1.0  0.51541  0.29132  0.49301  1.0000 -0.4897987058
O   O13       1.0  0.41167  0.98806  0.78509  1.0000 -0.5589618516
O   O14       1.0  0.58833  0.48806  0.71491  1.0000 -0.5589618516
O   O15       1.0  0.58833  0.01194  0.21491  1.0000 -0.5589618516
O   O16       1.0  0.41167  0.51194  0.28509  1.0000 -0.5589618516
O   O17       1.0  0.65560  0.91557  0.80581  1.0000 -0.5589618516
O   O18       1.0  0.34440  0.41557  0.69419  1.0000 -0.5589618516
O   O19       1.0  0.34440  0.08443  0.19419  1.0000 -0.5589618516
O   O20       1.0  0.65560  0.58443  0.30581  1.0000 -0.5589618516
O   O21       1.0  0.83698  0.15559  0.93236  1.0000 -0.5478763652
O   O22       1.0  0.16302  0.65559  0.56764  1.0000 -0.5478763652
O   O23       1.0  0.16302  0.84441  0.06764  1.0000 -0.5478763652
O   O24       1.0  0.83698  0.34441  0.43236  1.0000 -0.5478763652
O   O25       1.0  0.55420  0.19488  0.75006  1.0000 -0.5589618516
O   O26       1.0  0.44580  0.69488  0.74994  1.0000 -0.5589618516
O   O27       1.0  0.44580  0.80512  0.24994  1.0000 -0.5589618516
O   O28       1.0  0.55420  0.30512  0.25006  1.0000 -0.5589618516
O   O29       1.0  0.66578  0.97048  0.97931  1.0000 -0.5589618516
O   O30       1.0  0.33422  0.47048  0.52069  1.0000 -0.5589618516
O   O31       1.0  0.33422  0.02952  0.02069  1.0000 -0.5589618516
O   O32       1.0  0.66578  0.52952  0.47931  1.0000 -0.5589618516
O   O33       1.0  0.54662  0.25528  0.89028  1.0000 -0.5589618516
O   O34       1.0  0.45338  0.75528  0.60972  1.0000 -0.5589618516
O   O35       1.0  0.45338  0.74472  0.10972  1.0000 -0.5589618516
O   O36       1.0  0.54662  0.24472  0.39028  1.0000 -0.5589618516
O   O37       1.0  0.44280  0.06016  0.63438  1.0000 -0.5008243568
O   O38       1.0  0.55720  0.56016  0.86562  1.0000 -0.5008243568
O   O39       1.0  0.55720  0.93984  0.36562  1.0000 -0.5008243568
O   O40       1.0  0.44280  0.43984  0.13438  1.0000 -0.5008243568
O   O41       1.0  0.88796  0.87495  0.88553  1.0000 -0.483011618
O   O42       1.0  0.11204  0.37495  0.61447  1.0000 -0.483011618
O   O43       1.0  0.11204  0.12505  0.11447  1.0000 -0.483011618
O   O44       1.0  0.88796  0.62505  0.38553  1.0000 -0.483011618
O   O45       1.0  0.32356  0.99240  0.86155  1.0000 -0.4897987058
O   O46       1.0  0.67644  0.49240  0.63845  1.0000 -0.4897987058
O   O47       1.0  0.67644  0.00760  0.13845  1.0000 -0.4897987058
O   O48       1.0  0.32356  0.50760  0.36155  1.0000 -0.4897987058
