# DDEC6 charges by PACMAN v1.1 (https://github.com/mtap-research/PACMAN-charge/)
data_2008[ZnPd][nan]3[ASR]1
_chemical_formula_sum              "Zn16 H48 Pd8 C112 N16 Cl16 O72"
_cell_length_a       13.51
_cell_length_b       27.37
_cell_length_c       27.991
_cell_angle_alpha    90
_cell_angle_beta     90
_cell_angle_gamma    90

_symmetry_space_group_name_H-M    "P 1"
_symmetry_Int_Tables_number       1

loop_
  _symmetry_equiv_pos_as_xyz
  'x, y, z'

loop_
  _atom_site_type_symbol
  _atom_site_label
  _atom_site_symmetry_multiplicity
  _atom_site_fract_x
  _atom_site_fract_y
  _atom_site_fract_z
  _atom_site_occupancy
  _atom_site_charge
Zn  Zn1       1.0  0.61598  0.49630  0.95858  1.0000 1.0200513167
Zn  Zn2       1.0  0.88402  0.50370  0.45858  1.0000 1.0200513167
Zn  Zn3       1.0  0.11598  0.00370  0.04142  1.0000 1.0200513167
Zn  Zn4       1.0  0.38402  0.99630  0.54142  1.0000 1.0200513167
Zn  Zn5       1.0  0.40809  0.53620  0.02705  1.0000 1.0439502673
Zn  Zn6       1.0  0.09191  0.46380  0.52705  1.0000 1.0439502673
Zn  Zn7       1.0  0.90809  0.96380  0.97295  1.0000 1.0439502673
Zn  Zn8       1.0  0.59191  0.03620  0.47295  1.0000 1.0439502673
Zn  Zn9       1.0  0.73999  0.31300  0.25520  1.0000 1.0439502673
Zn  Zn10      1.0  0.76001  0.68700  0.75520  1.0000 1.0439502673
Zn  Zn11      1.0  0.23999  0.18700  0.74480  1.0000 1.0454834861
Zn  Zn12      1.0  0.26001  0.81300  0.24480  1.0000 1.0439502673
Zn  Zn13      1.0  0.93618  0.23522  0.21517  1.0000 1.060079412
Zn  Zn14      1.0  0.56382  0.76478  0.71517  1.0000 1.060079412
Zn  Zn15      1.0  0.43618  0.26478  0.78483  1.0000 1.060079412
Zn  Zn16      1.0  0.06382  0.73522  0.28483  1.0000 1.060079412
H   H1        1.0  0.97700  0.31900  0.09300  1.0000 0.13008644
H   H2        1.0  0.52300  0.68100  0.59300  1.0000 0.13008644
H   H3        1.0  0.47700  0.18100  0.90700  1.0000 0.13008644
H   H4        1.0  0.02300  0.81900  0.40700  1.0000 0.13008644
H   H5        1.0  0.71960  0.38830  0.12100  1.0000 0.13008644
H   H6        1.0  0.78040  0.61170  0.62100  1.0000 0.13008644
H   H7        1.0  0.21960  0.11170  0.87900  1.0000 0.13008644
H   H8        1.0  0.28040  0.88830  0.37900  1.0000 0.13008644
H   H9        1.0  0.86840  0.41100  0.99740  1.0000 0.1219922773
H   H10       1.0  0.63160  0.58900  0.49740  1.0000 0.1219922773
H   H11       1.0  0.36840  0.08900  0.00260  1.0000 0.1219922773
H   H12       1.0  0.13160  0.91100  0.50260  1.0000 0.1219922773
H   H13       1.0  0.30890  0.62570  0.92460  1.0000 0.13008644
H   H14       1.0  0.19110  0.37430  0.42460  1.0000 0.13008644
H   H15       1.0  0.80890  0.87430  0.07540  1.0000 0.13008644
H   H16       1.0  0.69110  0.12570  0.57540  1.0000 0.13008644
H   H17       1.0  0.56630  0.61030  0.85450  1.0000 0.1525759859
H   H18       1.0  0.93370  0.38970  0.35450  1.0000 0.1525759859
H   H19       1.0  0.06630  0.88970  0.14550  1.0000 0.1525759859
H   H20       1.0  0.43370  0.11030  0.64550  1.0000 0.1525759859
H   H21       1.0  0.37240  0.71720  0.82040  1.0000 0.1219922773
H   H22       1.0  0.12760  0.28280  0.32040  1.0000 0.1219922773
H   H23       1.0  0.87240  0.78280  0.17960  1.0000 0.1219922773
H   H24       1.0  0.62760  0.21720  0.67960  1.0000 0.1219922773
H   H25       1.0  0.25410  0.41530  0.00980  1.0000 0.1219922773
H   H26       1.0  0.24590  0.58470  0.50980  1.0000 0.1219922773
H   H27       1.0  0.75410  0.08470  0.99020  1.0000 0.1219922773
H   H28       1.0  0.74590  0.91530  0.49020  1.0000 0.1219922773
H   H29       1.0  0.43080  0.37790  0.89990  1.0000 0.1402038498
H   H30       1.0  0.06920  0.62210  0.39990  1.0000 0.1402038498
H   H31       1.0  0.93080  0.12210  0.10010  1.0000 0.1402038498
H   H32       1.0  0.56920  0.87790  0.60010  1.0000 0.1402038498
H   H33       1.0  0.16000  0.31640  0.91580  1.0000 0.1219922773
H   H34       1.0  0.34000  0.68360  0.41580  1.0000 0.1219922773
H   H35       1.0  0.66000  0.18360  0.08420  1.0000 0.1219922773
H   H36       1.0  0.84000  0.81640  0.58420  1.0000 0.1219922773
H   H37       1.0  0.49440  0.79320  0.14890  1.0000 0.1219922773
H   H38       1.0  0.00560  0.20680  0.64890  1.0000 0.1219922773
H   H39       1.0  0.99440  0.70680  0.85110  1.0000 0.1219922773
H   H40       1.0  0.50560  0.29320  0.35110  1.0000 0.1219922773
H   H41       1.0  0.35160  0.67020  0.10730  1.0000 0.13008644
H   H42       1.0  0.14840  0.32980  0.60730  1.0000 0.13008644
H   H43       1.0  0.85160  0.82980  0.89270  1.0000 0.13008644
H   H44       1.0  0.64840  0.17020  0.39270  1.0000 0.13008644
H   H45       1.0  0.62810  0.70130  0.06220  1.0000 0.1219922773
H   H46       1.0  0.87190  0.29870  0.56220  1.0000 0.1219922773
H   H47       1.0  0.12810  0.79870  0.93780  1.0000 0.1219922773
H   H48       1.0  0.37190  0.20130  0.43780  1.0000 0.1219922773
Pd  Pd1       1.0  0.06508  0.36275  0.00432  1.0000 0.5209537459
Pd  Pd2       1.0  0.43492  0.63725  0.50432  1.0000 0.5209537459
Pd  Pd3       1.0  0.56508  0.13725  0.99568  1.0000 0.5209537459
Pd  Pd4       1.0  0.93492  0.86275  0.49568  1.0000 0.5209537459
Pd  Pd5       1.0  0.20022  0.71132  0.88543  1.0000 0.499122457
Pd  Pd6       1.0  0.29978  0.28868  0.38543  1.0000 0.499122457
Pd  Pd7       1.0  0.70022  0.78868  0.11457  1.0000 0.499122457
Pd  Pd8       1.0  0.79978  0.21132  0.61457  1.0000 0.499122457
C   C1        1.0  0.92740  0.34180  0.08390  1.0000 0.0570828748
C   C2        1.0  0.57260  0.65820  0.58390  1.0000 0.0570828748
C   C3        1.0  0.42740  0.15820  0.91610  1.0000 0.0570828748
C   C4        1.0  0.07260  0.84180  0.41610  1.0000 0.0570828748
C   C5        1.0  0.84770  0.34880  0.11410  1.0000 -0.038649211
C   C6        1.0  0.65230  0.65120  0.61410  1.0000 -0.038649211
C   C7        1.0  0.34770  0.15120  0.88590  1.0000 -0.038649211
C   C8        1.0  0.15230  0.84880  0.38590  1.0000 -0.038649211
C   C9        1.0  0.77400  0.38170  0.10050  1.0000 -0.038649211
C   C10       1.0  0.72600  0.61830  0.60050  1.0000 -0.038649211
C   C11       1.0  0.27400  0.11830  0.89950  1.0000 -0.038649211
C   C12       1.0  0.22600  0.88170  0.39950  1.0000 -0.038649211
C   C13       1.0  0.78190  0.40450  0.05650  1.0000 -0.038649211
C   C14       1.0  0.71810  0.59550  0.55650  1.0000 -0.038649211
C   C15       1.0  0.28190  0.09550  0.94350  1.0000 -0.038649211
C   C16       1.0  0.21810  0.90450  0.44350  1.0000 -0.038649211
C   C17       1.0  0.86400  0.39570  0.02770  1.0000 0.0382072175
C   C18       1.0  0.63600  0.60430  0.52770  1.0000 0.0382072175
C   C19       1.0  0.36400  0.10430  0.97230  1.0000 0.0382072175
C   C20       1.0  0.13600  0.89570  0.47230  1.0000 0.0382072175
C   C21       1.0  0.84340  0.32270  0.16150  1.0000 0.6080918585
C   C22       1.0  0.65660  0.67730  0.66150  1.0000 0.6080918585
C   C23       1.0  0.34340  0.17730  0.83850  1.0000 0.6080918585
C   C24       1.0  0.15660  0.82270  0.33850  1.0000 0.6080918585
C   C25       1.0  0.70370  0.44060  0.03870  1.0000 0.5690419488
C   C26       1.0  0.79630  0.55940  0.53870  1.0000 0.5690419488
C   C27       1.0  0.20370  0.05940  0.96130  1.0000 0.5690419488
C   C28       1.0  0.29630  0.94060  0.46130  1.0000 0.5690419488
C   C29       1.0  0.35330  0.63650  0.90060  1.0000 0.074321709
C   C30       1.0  0.14670  0.36350  0.40060  1.0000 0.074321709
C   C31       1.0  0.85330  0.86350  0.09940  1.0000 0.074321709
C   C32       1.0  0.64670  0.13650  0.59940  1.0000 0.074321709
C   C33       1.0  0.44360  0.61200  0.89410  1.0000 -0.038649211
C   C34       1.0  0.05640  0.38800  0.39410  1.0000 -0.038649211
C   C35       1.0  0.94360  0.88800  0.10590  1.0000 -0.038649211
C   C36       1.0  0.55640  0.11200  0.60590  1.0000 -0.038649211
C   C37       1.0  0.50560  0.62710  0.85960  1.0000 -0.038649211
C   C38       1.0  0.99440  0.37290  0.35960  1.0000 -0.038649211
C   C39       1.0  0.00560  0.87290  0.14040  1.0000 -0.038649211
C   C40       1.0  0.49440  0.12710  0.64040  1.0000 -0.038649211
C   C41       1.0  0.48150  0.66710  0.83150  1.0000 -0.038649211
C   C42       1.0  0.01850  0.33290  0.33150  1.0000 -0.038649211
C   C43       1.0  0.98150  0.83290  0.16850  1.0000 -0.038649211
C   C44       1.0  0.51850  0.16710  0.66850  1.0000 -0.038649211
C   C45       1.0  0.39080  0.69010  0.83950  1.0000 0.0529688304
C   C46       1.0  0.10920  0.30990  0.33950  1.0000 0.0529688304
C   C47       1.0  0.89080  0.80990  0.16050  1.0000 0.0529688304
C   C48       1.0  0.60920  0.19010  0.66050  1.0000 0.0529688304
C   C49       1.0  0.46880  0.56940  0.92650  1.0000 0.6080918585
C   C50       1.0  0.03120  0.43060  0.42650  1.0000 0.6080918585
C   C51       1.0  0.96880  0.93060  0.07350  1.0000 0.6080918585
C   C52       1.0  0.53120  0.06940  0.57350  1.0000 0.6080918585
C   C53       1.0  0.54770  0.68760  0.79310  1.0000 0.6080918585
C   C54       1.0  0.95230  0.31240  0.29310  1.0000 0.6080918585
C   C55       1.0  0.04770  0.81240  0.20690  1.0000 0.6080918585
C   C56       1.0  0.45230  0.18760  0.70690  1.0000 0.6080918585
C   C57       1.0  0.26500  0.39640  0.98180  1.0000 0.0529688304
C   C58       1.0  0.23500  0.60360  0.48180  1.0000 0.0529688304
C   C59       1.0  0.76500  0.10360  0.01820  1.0000 0.0529688304
C   C60       1.0  0.73500  0.89640  0.51820  1.0000 0.0529688304
C   C61       1.0  0.35270  0.40220  0.95740  1.0000 -0.038649211
C   C62       1.0  0.14730  0.59780  0.45740  1.0000 -0.0454448209
C   C63       1.0  0.85270  0.09780  0.04260  1.0000 -0.0454448209
C   C64       1.0  0.64730  0.90220  0.54260  1.0000 -0.0454448209
C   C65       1.0  0.37040  0.37480  0.91700  1.0000 -0.0454448209
C   C66       1.0  0.12960  0.62520  0.41700  1.0000 -0.0454448209
C   C67       1.0  0.87040  0.12520  0.08300  1.0000 -0.0454448209
C   C68       1.0  0.62960  0.87480  0.58300  1.0000 -0.0454448209
C   C69       1.0  0.29720  0.34210  0.90190  1.0000 -0.038649211
C   C70       1.0  0.20280  0.65790  0.40190  1.0000 -0.038649211
C   C71       1.0  0.79720  0.15790  0.09810  1.0000 -0.038649211
C   C72       1.0  0.70280  0.84210  0.59810  1.0000 -0.038649211
C   C73       1.0  0.21000  0.33800  0.92690  1.0000 0.0331638133
C   C74       1.0  0.29000  0.66200  0.42690  1.0000 0.0331638133
C   C75       1.0  0.71000  0.16200  0.07310  1.0000 0.0331638133
C   C76       1.0  0.79000  0.83800  0.57310  1.0000 0.0331638133
C   C77       1.0  0.30930  0.31300  0.85630  1.0000 0.5690419488
C   C78       1.0  0.19070  0.68700  0.35630  1.0000 0.5690419488
C   C79       1.0  0.80930  0.18700  0.14370  1.0000 0.5690419488
C   C80       1.0  0.69070  0.81300  0.64370  1.0000 0.5690419488
C   C81       1.0  0.42430  0.44070  0.97540  1.0000 0.6080918585
C   C82       1.0  0.07570  0.55930  0.47540  1.0000 0.6080918585
C   C83       1.0  0.92430  0.05930  0.02460  1.0000 0.6080918585
C   C84       1.0  0.57570  0.94070  0.52460  1.0000 0.6080918585
C   C85       1.0  0.49310  0.76350  0.13130  1.0000 0.0529688304
C   C86       1.0  0.00690  0.23650  0.63130  1.0000 0.0529688304
C   C87       1.0  0.99310  0.73650  0.86870  1.0000 0.0529688304
C   C88       1.0  0.50690  0.26350  0.36870  1.0000 0.0529688304
C   C89       1.0  0.40810  0.73400  0.13240  1.0000 -0.038649211
C   C90       1.0  0.09190  0.26600  0.63240  1.0000 -0.038649211
C   C91       1.0  0.90810  0.76600  0.86760  1.0000 -0.038649211
C   C92       1.0  0.59190  0.23400  0.36760  1.0000 -0.038649211
C   C93       1.0  0.40760  0.69120  0.10650  1.0000 -0.0577598499
C   C94       1.0  0.09240  0.30880  0.60650  1.0000 -0.0577598499
C   C95       1.0  0.90760  0.80880  0.89350  1.0000 -0.0577598499
C   C96       1.0  0.59240  0.19120  0.39350  1.0000 -0.0577598499
C   C97       1.0  0.48900  0.67910  0.07920  1.0000 -0.038649211
C   C98       1.0  0.01100  0.32090  0.57920  1.0000 -0.038649211
C   C99       1.0  0.98900  0.82090  0.92080  1.0000 -0.0343662227
C   C100      1.0  0.51100  0.17910  0.42080  1.0000 -0.038649211
C   C101      1.0  0.57120  0.70980  0.08030  1.0000 0.0570828748
C   C102      1.0  0.92880  0.29020  0.58030  1.0000 0.0529688304
C   C103      1.0  0.07120  0.79020  0.91970  1.0000 0.0529688304
C   C104      1.0  0.42880  0.20980  0.41970  1.0000 0.0529688304
C   C105      1.0  0.32550  0.74670  0.16700  1.0000 0.5643167956
C   C106      1.0  0.17450  0.25330  0.66700  1.0000 0.5643167956
C   C107      1.0  0.82550  0.75330  0.83300  1.0000 0.5643167956
C   C108      1.0  0.67450  0.24670  0.33300  1.0000 0.5643167956
C   C109      1.0  0.49520  0.63140  0.05260  1.0000 0.5690419488
C   C110      1.0  0.00480  0.36860  0.55260  1.0000 0.5690419488
C   C111      1.0  0.99520  0.86860  0.94740  1.0000 0.5690419488
C   C112      1.0  0.50480  0.13140  0.44740  1.0000 0.5690419488
N   N1        1.0  0.93830  0.36550  0.04240  1.0000 -0.1318495956
N   N2        1.0  0.56170  0.63450  0.54240  1.0000 -0.1318495956
N   N3        1.0  0.43830  0.13450  0.95760  1.0000 -0.1318495956
N   N4        1.0  0.06170  0.86550  0.45760  1.0000 -0.1318495956
N   N5        1.0  0.19420  0.36500  0.96790  1.0000 -0.1318495956
N   N6        1.0  0.30580  0.63500  0.46790  1.0000 -0.1318495956
N   N7        1.0  0.69420  0.13500  0.03210  1.0000 -0.1318495956
N   N8        1.0  0.80580  0.86500  0.53210  1.0000 -0.1318495956
N   N9        1.0  0.32910  0.67440  0.87400  1.0000 -0.1318495956
N   N10       1.0  0.17090  0.32560  0.37400  1.0000 -0.1318495956
N   N11       1.0  0.82910  0.82560  0.12600  1.0000 -0.1318495956
N   N12       1.0  0.67090  0.17440  0.62600  1.0000 -0.1318495956
N   N13       1.0  0.57250  0.75030  0.10560  1.0000 -0.1367040264
N   N14       1.0  0.92750  0.24970  0.60560  1.0000 -0.1367040264
N   N15       1.0  0.07250  0.74970  0.89440  1.0000 -0.1367040264
N   N16       1.0  0.42750  0.25030  0.39440  1.0000 -0.1367040264
Cl  Cl1       1.0  0.15236  0.36782  0.07548  1.0000 -0.3508222798
Cl  Cl2       1.0  0.34764  0.63218  0.57548  1.0000 -0.3508222798
Cl  Cl3       1.0  0.65236  0.13218  0.92452  1.0000 -0.3508222798
Cl  Cl4       1.0  0.84764  0.86782  0.42452  1.0000 -0.3508222798
Cl  Cl5       1.0  0.97827  0.35961  0.93409  1.0000 -0.3618886786
Cl  Cl6       1.0  0.52173  0.64039  0.43409  1.0000 -0.3618886786
Cl  Cl7       1.0  0.47827  0.14039  0.06591  1.0000 -0.3618886786
Cl  Cl8       1.0  0.02173  0.85961  0.56591  1.0000 -0.3618886786
Cl  Cl9       1.0  0.11693  0.63890  0.89416  1.0000 -0.3654735225
Cl  Cl10      1.0  0.38307  0.36110  0.39416  1.0000 -0.3654735225
Cl  Cl11      1.0  0.61693  0.86110  0.10584  1.0000 -0.3618886786
Cl  Cl12      1.0  0.88307  0.13890  0.60584  1.0000 -0.3654735225
Cl  Cl13      1.0  0.28190  0.78374  0.87548  1.0000 -0.3508222798
Cl  Cl14      1.0  0.21810  0.21626  0.37548  1.0000 -0.3508222798
Cl  Cl15      1.0  0.78190  0.71626  0.12452  1.0000 -0.3508222798
Cl  Cl16      1.0  0.71810  0.28374  0.62452  1.0000 -0.3508222798
O   O1        1.0  0.91220  0.29290  0.16900  1.0000 -0.5391455094
O   O2        1.0  0.58780  0.70710  0.66900  1.0000 -0.5391455094
O   O3        1.0  0.41220  0.20710  0.83100  1.0000 -0.5391455094
O   O4        1.0  0.08780  0.79290  0.33100  1.0000 -0.5391455094
O   O5        1.0  0.77480  0.33520  0.18889  1.0000 -0.5511881133
O   O6        1.0  0.72520  0.66480  0.68889  1.0000 -0.5511881133
O   O7        1.0  0.27480  0.16480  0.81111  1.0000 -0.5511881133
O   O8        1.0  0.22520  0.83520  0.31111  1.0000 -0.5511881133
O   O9        1.0  0.70620  0.45020  0.99570  1.0000 -0.5391455094
O   O10       1.0  0.79380  0.54980  0.49570  1.0000 -0.5391455094
O   O11       1.0  0.20620  0.04980  0.00430  1.0000 -0.5391455094
O   O12       1.0  0.29380  0.95020  0.50430  1.0000 -0.5391455094
O   O13       1.0  0.64570  0.45700  0.06910  1.0000 -0.4116819563
O   O14       1.0  0.85430  0.54300  0.56910  1.0000 -0.4116819563
O   O15       1.0  0.14570  0.04300  0.93090  1.0000 -0.4116819563
O   O16       1.0  0.35430  0.95700  0.43090  1.0000 -0.4116819563
O   O17       1.0  0.54900  0.54910  0.91934  1.0000 -0.5391455094
O   O18       1.0  0.95100  0.45090  0.41934  1.0000 -0.5391455094
O   O19       1.0  0.04900  0.95090  0.08066  1.0000 -0.5391455094
O   O20       1.0  0.45100  0.04910  0.58066  1.0000 -0.5391455094
O   O21       1.0  0.40310  0.55790  0.95716  1.0000 -0.5511881133
O   O22       1.0  0.09690  0.44210  0.45716  1.0000 -0.5511881133
O   O23       1.0  0.90310  0.94210  0.04284  1.0000 -0.5511881133
O   O24       1.0  0.59690  0.05790  0.54284  1.0000 -0.5511881133
O   O25       1.0  0.63140  0.66730  0.78890  1.0000 -0.5511881133
O   O26       1.0  0.86860  0.33270  0.28890  1.0000 -0.5511881133
O   O27       1.0  0.13140  0.83270  0.21110  1.0000 -0.5511881133
O   O28       1.0  0.36860  0.16730  0.71110  1.0000 -0.5511881133
O   O29       1.0  0.51510  0.72310  0.77030  1.0000 -0.5698195385
O   O30       1.0  0.98490  0.27690  0.27030  1.0000 -0.5698195385
O   O31       1.0  0.01510  0.77690  0.22970  1.0000 -0.5698195385
O   O32       1.0  0.48490  0.22310  0.72970  1.0000 -0.5698195385
O   O33       1.0  0.39390  0.31220  0.83790  1.0000 -0.5511881133
O   O34       1.0  0.10610  0.68780  0.33790  1.0000 -0.5511881133
O   O35       1.0  0.89390  0.18780  0.16210  1.0000 -0.5511881133
O   O36       1.0  0.60610  0.81220  0.66210  1.0000 -0.5511881133
O   O37       1.0  0.23360  0.29180  0.84100  1.0000 -0.4207204418
O   O38       1.0  0.26640  0.70820  0.34100  1.0000 -0.4207204418
O   O39       1.0  0.73360  0.20820  0.15900  1.0000 -0.4207204418
O   O40       1.0  0.76640  0.79180  0.65900  1.0000 -0.4207204418
O   O41       1.0  0.50210  0.44620  0.95300  1.0000 -0.519731118
O   O42       1.0  0.99790  0.55380  0.45300  1.0000 -0.519731118
O   O43       1.0  0.00210  0.05380  0.04700  1.0000 -0.519731118
O   O44       1.0  0.49790  0.94620  0.54700  1.0000 -0.519731118
O   O45       1.0  0.39450  0.46430  0.01117  1.0000 -0.5511881133
O   O46       1.0  0.10550  0.53570  0.51117  1.0000 -0.5511881133
O   O47       1.0  0.89450  0.03570  0.98883  1.0000 -0.5603672343
O   O48       1.0  0.60550  0.96430  0.48883  1.0000 -0.5511881133
O   O49       1.0  0.32680  0.78900  0.18320  1.0000 -0.5391455094
O   O50       1.0  0.17320  0.21100  0.68320  1.0000 -0.5391455094
O   O51       1.0  0.82680  0.71100  0.81680  1.0000 -0.5391455094
O   O52       1.0  0.67320  0.28900  0.31680  1.0000 -0.5391455094
O   O53       1.0  0.26930  0.71260  0.17750  1.0000 -0.4116819563
O   O54       1.0  0.23070  0.28740  0.67750  1.0000 -0.4116819563
O   O55       1.0  0.76930  0.78740  0.82250  1.0000 -0.4116819563
O   O56       1.0  0.73070  0.21260  0.32250  1.0000 -0.4116819563
O   O57       1.0  0.57830  0.62060  0.03460  1.0000 -0.4440133186
O   O58       1.0  0.92170  0.37940  0.53460  1.0000 -0.4440133186
O   O59       1.0  0.07830  0.87940  0.96540  1.0000 -0.4440133186
O   O60       1.0  0.42170  0.12060  0.46540  1.0000 -0.4440133186
O   O61       1.0  0.41840  0.60620  0.05060  1.0000 -0.5511881133
O   O62       1.0  0.08160  0.39380  0.55060  1.0000 -0.5511881133
O   O63       1.0  0.91840  0.89380  0.94940  1.0000 -0.5511881133
O   O64       1.0  0.58160  0.10620  0.44940  1.0000 -0.5511881133
O   O65       1.0  0.56360  0.52780  0.02443  1.0000 -0.5603672343
O   O66       1.0  0.93640  0.47220  0.52443  1.0000 -0.5603672343
O   O67       1.0  0.06360  0.97220  0.97557  1.0000 -0.5603672343
O   O68       1.0  0.43640  0.02780  0.47557  1.0000 -0.5603672343
O   O69       1.0  0.78820  0.24100  0.23960  1.0000 -0.5954816776
O   O70       1.0  0.71180  0.75900  0.73960  1.0000 -0.5944230991
O   O71       1.0  0.28820  0.25900  0.76040  1.0000 -0.5954816776
O   O72       1.0  0.21180  0.74100  0.26040  1.0000 -0.5944230991
