# DDEC6 charges by PACMAN v1.1 (https://github.com/mtap-research/PACMAN-charge/)
data_2008[Th][nan]3[ASR]1
_chemical_formula_sum              "Th4 H24 C56 N8 O32"
_cell_length_a       6.6602
_cell_length_b       11.6941
_cell_length_c       22.788
_cell_angle_alpha    90
_cell_angle_beta     90
_cell_angle_gamma    90

_symmetry_space_group_name_H-M    "P 1"
_symmetry_Int_Tables_number       1

loop_
  _symmetry_equiv_pos_as_xyz
  'x, y, z'

loop_
  _atom_site_type_symbol
  _atom_site_label
  _atom_site_symmetry_multiplicity
  _atom_site_fract_x
  _atom_site_fract_y
  _atom_site_fract_z
  _atom_site_occupancy
  _atom_site_charge
Th  Th1       1.0  0.23300  0.59587  0.13799  1.0000 2.1006843698
Th  Th2       1.0  0.26700  0.40413  0.63799  1.0000 2.1006843698
Th  Th3       1.0  0.76700  0.09587  0.36201  1.0000 2.1006843698
Th  Th4       1.0  0.73300  0.90413  0.86201  1.0000 2.1006843698
H   H1        1.0  0.24840  0.02950  0.96940  1.0000 0.1457945732
H   H2        1.0  0.25160  0.97050  0.46940  1.0000 0.1457945732
H   H3        1.0  0.75160  0.52950  0.53060  1.0000 0.1457945732
H   H4        1.0  0.74840  0.47050  0.03060  1.0000 0.1457945732
H   H5        1.0  0.25710  0.90210  0.13110  1.0000 0.1127942231
H   H6        1.0  0.24290  0.09790  0.63110  1.0000 0.1127942231
H   H7        1.0  0.74290  0.40210  0.36890  1.0000 0.1127942231
H   H8        1.0  0.75710  0.59790  0.86890  1.0000 0.1127942231
H   H9        1.0  0.78920  0.53080  0.22480  1.0000 0.1127942231
H   H10       1.0  0.71080  0.46920  0.72480  1.0000 0.1127942231
H   H11       1.0  0.21080  0.03080  0.27520  1.0000 0.1127942231
H   H12       1.0  0.28920  0.96920  0.77520  1.0000 0.1127942231
H   H13       1.0  0.60130  0.58260  0.30390  1.0000 0.1382888526
H   H14       1.0  0.89870  0.41740  0.80390  1.0000 0.1382888526
H   H15       1.0  0.39870  0.08260  0.19610  1.0000 0.1382888526
H   H16       1.0  0.10130  0.91740  0.69610  1.0000 0.1382888526
H   H17       1.0  0.26190  0.05720  0.07120  1.0000 0.1329251778
H   H18       1.0  0.23810  0.94280  0.57120  1.0000 0.1329251778
H   H19       1.0  0.73810  0.55720  0.42880  1.0000 0.1329251778
H   H20       1.0  0.76190  0.44280  0.92880  1.0000 0.1329251778
H   H21       1.0  0.71060  0.72030  0.36530  1.0000 0.1382888526
H   H22       1.0  0.78940  0.27970  0.86530  1.0000 0.1382888526
H   H23       1.0  0.28940  0.22030  0.13470  1.0000 0.1382888526
H   H24       1.0  0.21060  0.77970  0.63470  1.0000 0.1382888526
C   C1        1.0  0.24600  0.76820  0.01310  1.0000 0.0611006756
C   C2        1.0  0.25400  0.23180  0.51310  1.0000 0.0611006756
C   C3        1.0  0.75400  0.26820  0.48690  1.0000 0.0611006756
C   C4        1.0  0.74600  0.73180  0.98690  1.0000 0.0611006756
C   C5        1.0  0.23400  0.64570  0.99460  1.0000 0.549182984
C   C6        1.0  0.26600  0.35430  0.49460  1.0000 0.549182984
C   C7        1.0  0.76600  0.14570  0.50540  1.0000 0.549182984
C   C8        1.0  0.73400  0.85430  0.00540  1.0000 0.549182984
C   C9        1.0  0.23900  0.85800  0.97310  1.0000 -0.0957016173
C   C10       1.0  0.26100  0.14200  0.47310  1.0000 -0.0957016173
C   C11       1.0  0.76100  0.35800  0.52690  1.0000 -0.0957016173
C   C12       1.0  0.73900  0.64200  0.02690  1.0000 -0.0957016173
C   C13       1.0  0.24000  0.84450  0.90800  1.0000 0.6560958874
C   C14       1.0  0.26000  0.15550  0.40800  1.0000 0.6560958874
C   C15       1.0  0.76000  0.34450  0.59200  1.0000 0.6560958874
C   C16       1.0  0.74000  0.65550  0.09200  1.0000 0.6560958874
C   C17       1.0  0.24800  0.96730  0.99470  1.0000 -0.0216511163
C   C18       1.0  0.25200  0.03270  0.49470  1.0000 -0.0216511163
C   C19       1.0  0.75200  0.46730  0.50530  1.0000 -0.0216511163
C   C20       1.0  0.74800  0.53270  0.00530  1.0000 -0.0216511163
C   C21       1.0  0.25500  0.89060  0.09070  1.0000 0.1029180548
C   C22       1.0  0.24500  0.10940  0.59070  1.0000 0.1029180548
C   C23       1.0  0.74500  0.39060  0.40930  1.0000 0.1029180548
C   C24       1.0  0.75500  0.60940  0.90930  1.0000 0.1029180548
C   C25       1.0  0.83630  0.58880  0.24900  1.0000 0.1029180548
C   C26       1.0  0.66370  0.41120  0.74900  1.0000 0.1029180548
C   C27       1.0  0.16370  0.08880  0.25100  1.0000 0.1029180548
C   C28       1.0  0.33630  0.91120  0.75100  1.0000 0.1029180548
C   C29       1.0  0.72300  0.61880  0.29690  1.0000 -0.1214561287
C   C30       1.0  0.77700  0.38120  0.79690  1.0000 -0.1214561287
C   C31       1.0  0.27700  0.11880  0.20310  1.0000 -0.1214561287
C   C32       1.0  0.22300  0.88120  0.70310  1.0000 -0.1214561287
C   C33       1.0  0.25600  0.98390  0.05540  1.0000 -0.1106143791
C   C34       1.0  0.24400  0.01610  0.55540  1.0000 -0.1106143791
C   C35       1.0  0.74400  0.48390  0.44460  1.0000 -0.1106143791
C   C36       1.0  0.75600  0.51610  0.94460  1.0000 -0.1106143791
C   C37       1.0  0.27700  0.77550  0.25390  1.0000 0.549182984
C   C38       1.0  0.22300  0.22450  0.75390  1.0000 0.549182984
C   C39       1.0  0.72300  0.27550  0.24610  1.0000 0.549182984
C   C40       1.0  0.77700  0.72450  0.74610  1.0000 0.549182984
C   C41       1.0  0.08300  0.71880  0.27280  1.0000 0.0611006756
C   C42       1.0  0.41700  0.28120  0.77280  1.0000 0.0611006756
C   C43       1.0  0.91700  0.21880  0.22720  1.0000 0.0611006756
C   C44       1.0  0.58300  0.78120  0.72720  1.0000 0.0611006756
C   C45       1.0  0.97700  0.75310  0.32210  1.0000 -0.0459763903
C   C46       1.0  0.52300  0.24690  0.82210  1.0000 -0.0459763903
C   C47       1.0  0.02300  0.25310  0.17790  1.0000 -0.0459763903
C   C48       1.0  0.47700  0.74690  0.67790  1.0000 -0.0459763903
C   C49       1.0  0.78700  0.69910  0.33310  1.0000 -0.0624023491
C   C50       1.0  0.71300  0.30090  0.83310  1.0000 -0.0624023491
C   C51       1.0  0.21300  0.19910  0.16690  1.0000 -0.0624023491
C   C52       1.0  0.28700  0.80090  0.66690  1.0000 -0.0624023491
C   C53       1.0  0.05330  0.84030  0.36500  1.0000 0.6163866174
C   C54       1.0  0.44670  0.15970  0.86500  1.0000 0.6163866174
C   C55       1.0  0.94670  0.34030  0.13500  1.0000 0.6163866174
C   C56       1.0  0.55330  0.65970  0.63500  1.0000 0.6163866174
N   N1        1.0  0.25100  0.78350  0.07100  1.0000 -0.2908930975
N   N2        1.0  0.24900  0.21650  0.57100  1.0000 -0.2908930975
N   N3        1.0  0.74900  0.28350  0.42900  1.0000 -0.2908930975
N   N4        1.0  0.75100  0.71650  0.92900  1.0000 -0.2908930975
N   N5        1.0  0.01050  0.63860  0.23540  1.0000 -0.3182543862
N   N6        1.0  0.48950  0.36140  0.73540  1.0000 -0.3182543862
N   N7        1.0  0.98950  0.13860  0.26460  1.0000 -0.3182543862
N   N8        1.0  0.51050  0.86140  0.76460  1.0000 -0.3182543862
O   O1        1.0  0.22960  0.57210  0.03610  1.0000 -0.59019537
O   O2        1.0  0.27040  0.42790  0.53610  1.0000 -0.59019537
O   O3        1.0  0.77040  0.07210  0.46390  1.0000 -0.59019537
O   O4        1.0  0.72960  0.92790  0.96390  1.0000 -0.59019537
O   O5        1.0  0.22610  0.62190  0.94220  1.0000 -0.4797962952
O   O6        1.0  0.27390  0.37810  0.44220  1.0000 -0.4797962952
O   O7        1.0  0.77390  0.12190  0.55780  1.0000 -0.4797962952
O   O8        1.0  0.72610  0.87810  0.05780  1.0000 -0.4797962952
O   O9        1.0  0.36060  0.84020  0.28720  1.0000 -0.4904145423
O   O10       1.0  0.13940  0.15980  0.78720  1.0000 -0.4904145423
O   O11       1.0  0.63940  0.34020  0.21280  1.0000 -0.4904145423
O   O12       1.0  0.86060  0.65980  0.71280  1.0000 -0.4904145423
O   O13       1.0  0.33030  0.74870  0.20080  1.0000 -0.6173656184
O   O14       1.0  0.16970  0.25130  0.70080  1.0000 -0.6173656184
O   O15       1.0  0.66970  0.24870  0.29920  1.0000 -0.6173656184
O   O16       1.0  0.83030  0.75130  0.79920  1.0000 -0.6173656184
O   O17       1.0  0.41090  0.83140  0.88330  1.0000 -0.59019537
O   O18       1.0  0.08910  0.16860  0.38330  1.0000 -0.59019537
O   O19       1.0  0.58910  0.33140  0.61670  1.0000 -0.59019537
O   O20       1.0  0.91090  0.66860  0.11670  1.0000 -0.59019537
O   O21       1.0  0.99390  0.94220  0.36100  1.0000 -0.6264964688
O   O22       1.0  0.50610  0.05780  0.86100  1.0000 -0.6264964688
O   O23       1.0  0.00610  0.44220  0.13900  1.0000 -0.6264964688
O   O24       1.0  0.49390  0.55780  0.63900  1.0000 -0.6264964688
O   O25       1.0  0.08230  0.85570  0.88030  1.0000 -0.5659802753
O   O26       1.0  0.41770  0.14430  0.38030  1.0000 -0.5659802753
O   O27       1.0  0.91770  0.35570  0.61970  1.0000 -0.5659802753
O   O28       1.0  0.58230  0.64430  0.11970  1.0000 -0.5659802753
O   O29       1.0  0.17140  0.80660  0.40510  1.0000 -0.5530628014
O   O30       1.0  0.32860  0.19340  0.90510  1.0000 -0.5530628014
O   O31       1.0  0.82860  0.30660  0.09490  1.0000 -0.5530628014
O   O32       1.0  0.67140  0.69340  0.59490  1.0000 -0.5530628014
