# DDEC6 charges by PACMAN v1.1 (https://github.com/mtap-research/PACMAN-charge/)
data_2008[Zn][nan]3[ASR]12
_chemical_formula_sum              "Zn4 H52 C80 N12 O18"
_cell_length_a       11.129
_cell_length_b       13.988
_cell_length_c       16.141
_cell_angle_alpha    82.895
_cell_angle_beta     88.392
_cell_angle_gamma    66.718

_symmetry_space_group_name_H-M    "P 1"
_symmetry_Int_Tables_number       1

loop_
  _symmetry_equiv_pos_as_xyz
  'x, y, z'

loop_
  _atom_site_type_symbol
  _atom_site_label
  _atom_site_symmetry_multiplicity
  _atom_site_fract_x
  _atom_site_fract_y
  _atom_site_fract_z
  _atom_site_occupancy
  _atom_site_charge
Zn  Zn1       1.0  0.98796  0.48367  0.76379  1.0000 0.6827658592
Zn  Zn2       1.0  0.01204  0.51633  0.23621  1.0000 0.6827658592
Zn  Zn3       1.0  0.78287  0.13523  0.91497  1.0000 0.9198383269
Zn  Zn4       1.0  0.21713  0.86477  0.08503  1.0000 0.9198383269
H   H1        1.0  0.24000  0.24979  0.74099  1.0000 0.1273525869
H   H2        1.0  0.76000  0.75021  0.25901  1.0000 0.1273525869
H   H3        1.0  0.38111  0.23754  0.59266  1.0000 0.1273525869
H   H4        1.0  0.61889  0.76246  0.40734  1.0000 0.1273525869
H   H5        1.0  0.10352  0.60872  0.45974  1.0000 0.1183453783
H   H6        1.0  0.89648  0.39128  0.54026  1.0000 0.1183453783
H   H7        1.0  0.92910  0.78433  0.43918  1.0000 0.1183453783
H   H8        1.0  0.07090  0.21567  0.56082  1.0000 0.1183453783
H   H9        1.0  0.76772  0.84945  0.55503  1.0000 0.1183453783
H   H10       1.0  0.23228  0.15055  0.44497  1.0000 0.1183453783
H   H11       1.0  0.79604  0.72429  0.68853  1.0000 0.0993253404
H   H12       1.0  0.20396  0.27571  0.31147  1.0000 0.0993253404
H   H13       1.0  0.21805  0.47501  0.44173  1.0000 0.0918064779
H   H14       1.0  0.78195  0.52499  0.55827  1.0000 0.0918064779
H   H15       1.0  0.33724  0.34630  0.45767  1.0000 0.0918064779
H   H16       1.0  0.66276  0.65370  0.54233  1.0000 0.0918064779
H   H17       1.0  0.29029  0.61508  0.42505  1.0000 0.1112923631
H   H18       1.0  0.70971  0.38492  0.57495  1.0000 0.1112923631
H   H19       1.0  0.53714  0.31839  0.56264  1.0000 0.0993253404
H   H20       1.0  0.46286  0.68161  0.43736  1.0000 0.0993253404
H   H21       1.0  0.32628  0.65512  0.92185  1.0000 0.0993253404
H   H22       1.0  0.67372  0.34488  0.07815  1.0000 0.0993253404
H   H23       1.0  0.43966  0.37758  0.10100  1.0000 0.0993253404
H   H24       1.0  0.56034  0.62242  0.89900  1.0000 0.0993253404
H   H25       1.0  0.21231  0.47572  0.06851  1.0000 0.0993253404
H   H26       1.0  0.78769  0.52428  0.93149  1.0000 0.0993253404
H   H27       1.0  0.18711  0.60803  0.06786  1.0000 0.1273525869
H   H28       1.0  0.81289  0.39197  0.93214  1.0000 0.1273525869
H   H29       1.0  0.08976  0.73886  0.94542  1.0000 0.1448985366
H   H30       1.0  0.91024  0.26114  0.05458  1.0000 0.1448985366
H   H31       1.0  0.95994  0.73480  0.79928  1.0000 0.1112923631
H   H32       1.0  0.04006  0.26520  0.20072  1.0000 0.1112923631
H   H33       1.0  0.29555  0.34247  0.01765  1.0000 0.1112923631
H   H34       1.0  0.70445  0.65753  0.98235  1.0000 0.1112923631
H   H35       1.0  0.31097  0.15817  0.03529  1.0000 0.1273525869
H   H36       1.0  0.68903  0.84183  0.96471  1.0000 0.1273525869
H   H37       1.0  0.16753  0.10824  0.94421  1.0000 0.1482438398
H   H38       1.0  0.83247  0.89176  0.05579  1.0000 0.1482438398
H   H39       1.0  0.01978  0.24780  0.83643  1.0000 0.1183453783
H   H40       1.0  0.98022  0.75220  0.16357  1.0000 0.1183453783
H   H41       1.0  0.37491  0.74754  0.80088  1.0000 0.1183453783
H   H42       1.0  0.62509  0.25246  0.19912  1.0000 0.1183453783
H   H43       1.0  0.91434  0.94229  0.69313  1.0000 0.0993253404
H   H44       1.0  0.08566  0.05771  0.30687  1.0000 0.0993253404
H   H45       1.0  0.08078  0.80907  0.61106  1.0000 0.1112923631
H   H46       1.0  0.91922  0.19093  0.38894  1.0000 0.1112923631
H   H47       1.0  0.57866  0.63571  0.68162  1.0000 0.1183453783
H   H48       1.0  0.42134  0.36429  0.31838  1.0000 0.1183453783
H   H49       1.0  0.39939  0.37427  0.79966  1.0000 0.0993253404
H   H50       1.0  0.60061  0.62573  0.20034  1.0000 0.0993253404
H   H51       1.0  0.24735  0.55227  0.72831  1.0000 0.1112923631
H   H52       1.0  0.75265  0.44773  0.27169  1.0000 0.1112923631
C   C1        1.0  0.22742  0.30843  0.68720  1.0000 0.002540667
C   C2        1.0  0.77258  0.69157  0.31280  1.0000 0.002540667
C   C3        1.0  0.29742  0.30102  0.61448  1.0000 -0.1091258107
C   C4        1.0  0.70258  0.69898  0.38552  1.0000 -0.1091258107
C   C5        1.0  0.13953  0.46149  0.60931  1.0000 0.1896304665
C   C6        1.0  0.86047  0.53851  0.39069  1.0000 0.1896304665
C   C7        1.0  0.04510  0.57003  0.58662  1.0000 0.1601408673
C   C8        1.0  0.95490  0.42997  0.41338  1.0000 0.1601408673
C   C9        1.0  0.03630  0.63460  0.51079  1.0000 -0.1547869267
C   C10       1.0  0.96370  0.36540  0.48921  1.0000 -0.1547869267
C   C11       1.0  0.93616  0.73548  0.49893  1.0000 -0.0207222784
C   C12       1.0  0.06384  0.26452  0.50107  1.0000 -0.0207222784
C   C13       1.0  0.84686  0.77132  0.56233  1.0000 -0.1636593612
C   C14       1.0  0.15314  0.22868  0.43767  1.0000 -0.1636593612
C   C15       1.0  0.86237  0.70269  0.63618  1.0000 0.0918064779
C   C16       1.0  0.13763  0.29731  0.36382  1.0000 0.0918064779
C   C17       1.0  0.29656  0.42094  0.48526  1.0000 -0.1029597679
C   C18       1.0  0.70344  0.57906  0.51474  1.0000 -0.1029597679
C   C19       1.0  0.40118  0.46252  0.49422  1.0000 0.0840642927
C   C20       1.0  0.59882  0.53748  0.50578  1.0000 0.0840642927
C   C21       1.0  0.38125  0.56490  0.45913  1.0000 -0.1187382443
C   C22       1.0  0.61875  0.43510  0.54087  1.0000 -0.1187382443
C   C23       1.0  0.52025  0.39825  0.53478  1.0000 -0.1187382443
C   C24       1.0  0.47975  0.60175  0.46522  1.0000 -0.1187382443
C   C25       1.0  0.40249  0.58669  0.95590  1.0000 -0.1187382443
C   C26       1.0  0.59751  0.41331  0.04410  1.0000 -0.1187382443
C   C27       1.0  0.46586  0.43132  0.05608  1.0000 -0.1269697519
C   C28       1.0  0.53414  0.56868  0.94392  1.0000 -0.1269697519
C   C29       1.0  0.36708  0.51809  0.01211  1.0000 0.0918064779
C   C30       1.0  0.63292  0.48191  0.98789  1.0000 0.0918064779
C   C31       1.0  0.22467  0.54173  0.03016  1.0000 -0.1187382443
C   C32       1.0  0.77533  0.45827  0.96984  1.0000 -0.1187382443
C   C33       1.0  0.08036  0.67470  0.91746  1.0000 -0.0694829198
C   C34       1.0  0.91964  0.32530  0.08254  1.0000 -0.0694829198
C   C35       1.0  0.01822  0.67093  0.84572  1.0000 -0.0119134761
C   C36       1.0  0.98178  0.32907  0.15428  1.0000 -0.0119134761
C   C37       1.0  0.11517  0.50808  0.90580  1.0000 0.1721467329
C   C38       1.0  0.88483  0.49192  0.09420  1.0000 0.1721467329
C   C39       1.0  0.14483  0.39503  0.92003  1.0000 0.1482438398
C   C40       1.0  0.85517  0.60497  0.07997  1.0000 0.1482438398
C   C41       1.0  0.23285  0.32051  0.97963  1.0000 -0.1636593612
C   C42       1.0  0.76715  0.67949  0.02037  1.0000 -0.1636593612
C   C43       1.0  0.24223  0.21651  0.98887  1.0000 -0.0119134761
C   C44       1.0  0.75777  0.78349  0.01113  1.0000 -0.0119134761
C   C45       1.0  0.16397  0.18800  0.93887  1.0000 -0.1091258107
C   C46       1.0  0.83603  0.81200  0.06113  1.0000 -0.1091258107
C   C47       1.0  0.08249  0.26520  0.87807  1.0000 0.1112923631
C   C48       1.0  0.91751  0.73480  0.12193  1.0000 0.1112923631
C   C49       1.0  0.22738  0.89162  0.90414  1.0000 0.5786990849
C   C50       1.0  0.77262  0.10838  0.09586  1.0000 0.5786990849
C   C51       1.0  0.95713  0.00058  0.84208  1.0000 0.5602459091
C   C52       1.0  0.04287  0.99942  0.15792  1.0000 0.5651974855
C   C53       1.0  0.27341  0.79172  0.77848  1.0000 -0.223405798
C   C54       1.0  0.72659  0.20828  0.22152  1.0000 -0.223405798
C   C55       1.0  0.18358  0.86774  0.82334  1.0000 0.002540667
C   C56       1.0  0.81642  0.13226  0.17666  1.0000 0.002540667
C   C57       1.0  0.05187  0.91978  0.79379  1.0000 -0.0502741681
C   C58       1.0  0.94813  0.08022  0.20621  1.0000 -0.0502741681
C   C59       1.0  0.01543  0.89917  0.71730  1.0000 -0.0872549759
C   C60       1.0  0.98457  0.10083  0.28270  1.0000 -0.0872549759
C   C61       1.0  0.10635  0.82620  0.67095  1.0000 -0.2056565704
C   C62       1.0  0.89365  0.17380  0.32905  1.0000 -0.2056565704
C   C63       1.0  0.23415  0.77132  0.70330  1.0000 0.2589968918
C   C64       1.0  0.76585  0.22868  0.29670  1.0000 0.2589968918
C   C65       1.0  0.40540  0.60196  0.69856  1.0000 0.2589968918
C   C66       1.0  0.59460  0.39804  0.30144  1.0000 0.2589968918
C   C67       1.0  0.53954  0.57700  0.70483  1.0000 -0.223405798
C   C68       1.0  0.46046  0.42300  0.29517  1.0000 -0.223405798
C   C69       1.0  0.62400  0.47825  0.74304  1.0000 0.002540667
C   C70       1.0  0.37600  0.52175  0.25696  1.0000 0.002540667
C   C71       1.0  0.76710  0.45918  0.73936  1.0000 0.5786990849
C   C72       1.0  0.23290  0.54082  0.26064  1.0000 0.5786990849
C   C73       1.0  0.57261  0.40539  0.77890  1.0000 -0.0694829198
C   C74       1.0  0.42739  0.59461  0.22110  1.0000 -0.0694829198
C   C75       1.0  0.65528  0.30469  0.82987  1.0000 0.5602459091
C   C76       1.0  0.34472  0.69531  0.17013  1.0000 0.5602459091
C   C77       1.0  0.43695  0.43241  0.77184  1.0000 -0.0641803565
C   C78       1.0  0.56305  0.56759  0.22816  1.0000 -0.0641803565
C   C79       1.0  0.35333  0.52936  0.73173  1.0000 -0.2011686685
C   C80       1.0  0.64667  0.47064  0.26827  1.0000 -0.2011686685
N   N1        1.0  0.24172  0.39749  0.56564  1.0000 0.0135964947
N   N2        1.0  0.75828  0.60251  0.43436  1.0000 0.0135964947
N   N3        1.0  0.13004  0.40769  0.68324  1.0000 -0.3195895301
N   N4        1.0  0.86996  0.59231  0.31676  1.0000 -0.3195895301
N   N5        1.0  0.95765  0.60538  0.64844  1.0000 -0.2687868895
N   N6        1.0  0.04235  0.39462  0.35156  1.0000 -0.2687868895
N   N7        1.0  0.03998  0.56795  0.83909  1.0000 -0.3195895301
N   N8        1.0  0.96002  0.43205  0.16091  1.0000 -0.3195895301
N   N9        1.0  0.14124  0.57173  0.95463  1.0000 0.021928356
N   N10       1.0  0.85876  0.42827  0.04537  1.0000 0.021928356
N   N11       1.0  0.07334  0.36546  0.86794  1.0000 -0.2805334749
N   N12       1.0  0.92666  0.63454  0.13206  1.0000 -0.2805334749
O   O1        1.0  0.18877  0.84747  0.97029  1.0000 -0.5795612158
O   O2        1.0  0.81123  0.15253  0.02971  1.0000 -0.5795612158
O   O3        1.0  0.29496  0.94426  0.90275  1.0000 -0.5272917869
O   O4        1.0  0.70504  0.05574  0.09725  1.0000 -0.5272917869
O   O5        1.0  0.99045  0.07009  0.86520  1.0000 -0.5198634388
O   O6        1.0  0.00955  0.92991  0.13480  1.0000 -0.5198634388
O   O7        1.0  0.84232  0.99924  0.85857  1.0000 -0.5605418356
O   O8        1.0  0.15768  0.00076  0.14143  1.0000 -0.5605418356
O   O9        1.0  0.76961  0.29045  0.85452  1.0000 -0.5272917869
O   O10       1.0  0.23039  0.70955  0.14548  1.0000 -0.5272917869
O   O11       1.0  0.60834  0.23389  0.84960  1.0000 -0.5605418356
O   O12       1.0  0.39166  0.76611  0.15040  1.0000 -0.5605418356
O   O13       1.0  0.84549  0.39248  0.69703  1.0000 -0.5507955375
O   O14       1.0  0.15451  0.60752  0.30297  1.0000 -0.5507955375
O   O15       1.0  0.79730  0.52481  0.77643  1.0000 -0.5507955375
O   O16       1.0  0.20270  0.47519  0.22357  1.0000 -0.5507955375
O   O17       1.0  0.32428  0.69892  0.65516  1.0000 -0.231935692
O   O18       1.0  0.67572  0.30108  0.34484  1.0000 -0.231935692
