# DDEC6 charges by PACMAN v1.1 (https://github.com/mtap-research/PACMAN-charge/)
data_2008[CuW][acs]3[ASR]1
_chemical_formula_sum              "Cu6 W2 C6 S6 N6 O2"
_cell_length_a       13.532
_cell_length_b       13.532
_cell_length_c       8.7172
_cell_angle_alpha    90
_cell_angle_beta     90
_cell_angle_gamma    120

_symmetry_space_group_name_H-M    "P 1"
_symmetry_Int_Tables_number       1

loop_
  _symmetry_equiv_pos_as_xyz
  'x, y, z'

loop_
  _atom_site_type_symbol
  _atom_site_label
  _atom_site_symmetry_multiplicity
  _atom_site_fract_x
  _atom_site_fract_y
  _atom_site_fract_z
  _atom_site_occupancy
  _atom_site_charge
Cu  Cu1       1.0  0.88131  0.44066  0.69245  1.0000 0.4108934626
Cu  Cu2       1.0  0.55934  0.44066  0.69245  1.0000 0.4108934626
Cu  Cu3       1.0  0.55934  0.11869  0.69245  1.0000 0.4108934626
Cu  Cu4       1.0  0.11869  0.55934  0.19245  1.0000 0.4158713743
Cu  Cu5       1.0  0.44066  0.55934  0.19245  1.0000 0.4158713743
Cu  Cu6       1.0  0.44066  0.88131  0.19245  1.0000 0.4158713743
W   W1        1.0  0.66667  0.33333  0.56114  1.0000 0.8746623322
W   W2        1.0  0.33333  0.66667  0.06114  1.0000 0.8828216717
C   C1        1.0  0.97281  0.48646  0.87573  1.0000 0.2102188145
C   C2        1.0  0.51354  0.48636  0.87573  1.0000 0.2102188145
C   C3        1.0  0.51364  0.02719  0.87573  1.0000 0.2102188145
C   C4        1.0  0.02719  0.51354  0.37573  1.0000 0.2102188145
C   C5        1.0  0.48646  0.51364  0.37573  1.0000 0.2102188145
C   C6        1.0  0.48636  0.97281  0.37573  1.0000 0.2102188145
S   S1        1.0  0.75676  0.51352  0.65272  1.0000 -0.4255520776
S   S2        1.0  0.48648  0.24323  0.65272  1.0000 -0.4255520776
S   S3        1.0  0.75677  0.24324  0.65272  1.0000 -0.4120622948
S   S4        1.0  0.24324  0.48648  0.15272  1.0000 -0.4244180992
S   S5        1.0  0.51352  0.75677  0.15272  1.0000 -0.4244180992
S   S6        1.0  0.24323  0.75676  0.15272  1.0000 -0.4244180992
N   N1        1.0  0.97546  0.48778  0.49237  1.0000 -0.3389054413
N   N2        1.0  0.51222  0.48768  0.49237  1.0000 -0.3268045758
N   N3        1.0  0.51232  0.02454  0.49237  1.0000 -0.3268045758
N   N4        1.0  0.02454  0.51222  0.99237  1.0000 -0.3268045758
N   N5        1.0  0.48778  0.51232  0.99237  1.0000 -0.3389054413
N   N6        1.0  0.48768  0.97546  0.99237  1.0000 -0.3389054413
O   O1        1.0  0.66667  0.33333  0.36427  1.0000 -0.4870232716
O   O2        1.0  0.33333  0.66667  0.86427  1.0000 -0.4785173312
