# DDEC6 charges by PACMAN v1.1 (https://github.com/mtap-research/PACMAN-charge/)
data_2008[Y][nan]3[ASR]1
_chemical_formula_sum              "Y4 H12 C36 O24"
_cell_length_a       10.223
_cell_length_b       10.223
_cell_length_c       14.493
_cell_angle_alpha    90
_cell_angle_beta     90
_cell_angle_gamma    90

_symmetry_space_group_name_H-M    "P 1"
_symmetry_Int_Tables_number       1

loop_
  _symmetry_equiv_pos_as_xyz
  'x, y, z'

loop_
  _atom_site_type_symbol
  _atom_site_label
  _atom_site_symmetry_multiplicity
  _atom_site_fract_x
  _atom_site_fract_y
  _atom_site_fract_z
  _atom_site_occupancy
  _atom_site_charge
Y   Y1        1.0  0.65023  0.65023  0.87500  1.0000 1.8302833399
Y   Y2        1.0  0.34977  0.34977  0.37500  1.0000 1.8302833399
Y   Y3        1.0  0.34977  0.65023  0.12500  1.0000 1.8302833399
Y   Y4        1.0  0.65023  0.34977  0.62500  1.0000 1.8302833399
H   H1        1.0  0.94160  0.57570  0.12140  1.0000 0.1375058999
H   H2        1.0  0.05840  0.42430  0.62140  1.0000 0.1375058999
H   H3        1.0  0.42430  0.94160  0.37140  1.0000 0.1375058999
H   H4        1.0  0.57570  0.05840  0.87140  1.0000 0.1375058999
H   H5        1.0  0.05840  0.57570  0.87860  1.0000 0.1375058999
H   H6        1.0  0.94160  0.42430  0.37860  1.0000 0.1375058999
H   H7        1.0  0.57570  0.94160  0.62860  1.0000 0.1375058999
H   H8        1.0  0.42430  0.05840  0.12860  1.0000 0.1375058999
H   H9        1.0  0.60320  0.50000  0.25000  1.0000 0.1167737281
H   H10       1.0  0.39680  0.50000  0.75000  1.0000 0.1167737281
H   H11       1.0  0.50000  0.60320  0.50000  1.0000 0.1167737281
H   H12       1.0  0.50000  0.39680  0.00000  1.0000 0.1167737281
C   C1        1.0  0.75500  0.54900  0.17140  1.0000 -0.0583137015
C   C2        1.0  0.89400  0.54700  0.17210  1.0000 -0.0824032912
C   C3        1.0  0.67400  0.58900  0.09300  1.0000 0.6246865054
C   C4        1.0  0.24500  0.45100  0.67140  1.0000 -0.0583137015
C   C5        1.0  0.10600  0.45300  0.67210  1.0000 -0.0824032912
C   C6        1.0  0.32600  0.41100  0.59300  1.0000 0.6246865054
C   C7        1.0  0.45100  0.75500  0.42140  1.0000 -0.0583137015
C   C8        1.0  0.45300  0.89400  0.42210  1.0000 -0.0824032912
C   C9        1.0  0.41100  0.67400  0.34300  1.0000 0.6246865054
C   C10       1.0  0.54900  0.24500  0.92140  1.0000 -0.0583137015
C   C11       1.0  0.54700  0.10600  0.92210  1.0000 -0.0824032912
C   C12       1.0  0.58900  0.32600  0.84300  1.0000 0.6246865054
C   C13       1.0  0.24500  0.54900  0.82860  1.0000 -0.0583137015
C   C14       1.0  0.10600  0.54700  0.82790  1.0000 -0.0824032912
C   C15       1.0  0.32600  0.58900  0.90700  1.0000 0.6246865054
C   C16       1.0  0.75500  0.45100  0.32860  1.0000 -0.0583137015
C   C17       1.0  0.89400  0.45300  0.32790  1.0000 -0.0824032912
C   C18       1.0  0.67400  0.41100  0.40700  1.0000 0.6246865054
C   C19       1.0  0.54900  0.75500  0.57860  1.0000 -0.0583137015
C   C20       1.0  0.54700  0.89400  0.57790  1.0000 -0.0824032912
C   C21       1.0  0.58900  0.67400  0.65700  1.0000 0.6246865054
C   C22       1.0  0.45100  0.24500  0.07860  1.0000 -0.0583137015
C   C23       1.0  0.45300  0.10600  0.07790  1.0000 -0.0824032912
C   C24       1.0  0.41100  0.32600  0.15700  1.0000 0.6246865054
C   C25       1.0  0.69400  0.50000  0.25000  1.0000 -0.1101485753
C   C26       1.0  0.95700  0.50000  0.25000  1.0000 -0.0329128841
C   C27       1.0  0.11400  0.50000  0.25000  1.0000 0.6577584406
C   C28       1.0  0.30600  0.50000  0.75000  1.0000 -0.1101485753
C   C29       1.0  0.04300  0.50000  0.75000  1.0000 -0.0329128841
C   C30       1.0  0.88600  0.50000  0.75000  1.0000 0.6577584406
C   C31       1.0  0.50000  0.69400  0.50000  1.0000 -0.1101485753
C   C32       1.0  0.50000  0.95700  0.50000  1.0000 -0.0329128841
C   C33       1.0  0.50000  0.11400  0.50000  1.0000 0.6577584406
C   C34       1.0  0.50000  0.30600  0.00000  1.0000 -0.1101485753
C   C35       1.0  0.50000  0.04300  0.00000  1.0000 -0.0329128841
C   C36       1.0  0.50000  0.88600  0.00000  1.0000 0.6577584406
O   O1        1.0  0.73900  0.59480  0.01440  1.0000 -0.6470751951
O   O2        1.0  0.56100  0.61600  0.10200  1.0000 -0.5733370671
O   O3        1.0  0.16460  0.42210  0.30750  1.0000 -0.631940175
O   O4        1.0  0.26100  0.40520  0.51440  1.0000 -0.6470751951
O   O5        1.0  0.43900  0.38400  0.60200  1.0000 -0.5733370671
O   O6        1.0  0.83540  0.57790  0.80750  1.0000 -0.631940175
O   O7        1.0  0.40520  0.73900  0.26440  1.0000 -0.6470751951
O   O8        1.0  0.38400  0.56100  0.35200  1.0000 -0.5733370671
O   O9        1.0  0.57790  0.16460  0.55750  1.0000 -0.631940175
O   O10       1.0  0.59480  0.26100  0.76440  1.0000 -0.6470751951
O   O11       1.0  0.61600  0.43900  0.85200  1.0000 -0.5733370671
O   O12       1.0  0.42210  0.83540  0.05750  1.0000 -0.631940175
O   O13       1.0  0.26100  0.59480  0.98560  1.0000 -0.6470751951
O   O14       1.0  0.43900  0.61600  0.89800  1.0000 -0.5733370671
O   O15       1.0  0.83540  0.42210  0.69250  1.0000 -0.631940175
O   O16       1.0  0.73900  0.40520  0.48560  1.0000 -0.6470751951
O   O17       1.0  0.56100  0.38400  0.39800  1.0000 -0.5733370671
O   O18       1.0  0.16460  0.57790  0.19250  1.0000 -0.631940175
O   O19       1.0  0.59480  0.73900  0.73560  1.0000 -0.6470751951
O   O20       1.0  0.61600  0.56100  0.64800  1.0000 -0.5733370671
O   O21       1.0  0.42210  0.16460  0.44250  1.0000 -0.631940175
O   O22       1.0  0.40520  0.26100  0.23560  1.0000 -0.6470751951
O   O23       1.0  0.38400  0.43900  0.14800  1.0000 -0.5733370671
O   O24       1.0  0.57790  0.83540  0.94250  1.0000 -0.631940175
