# DDEC6 charges by PACMAN v1.1 (https://github.com/mtap-research/PACMAN-charge/)
data_2008[CoGd][nan]3[ASR]1
_chemical_formula_sum              "Gd8 Co4 H52 C84 N12 O60"
_cell_length_a       11.9248
_cell_length_b       16.1606
_cell_length_c       17.5254
_cell_angle_alpha    90.088
_cell_angle_beta     98.563
_cell_angle_gamma    109.939

_symmetry_space_group_name_H-M    "P 1"
_symmetry_Int_Tables_number       1

loop_
  _symmetry_equiv_pos_as_xyz
  'x, y, z'

loop_
  _atom_site_type_symbol
  _atom_site_label
  _atom_site_symmetry_multiplicity
  _atom_site_fract_x
  _atom_site_fract_y
  _atom_site_fract_z
  _atom_site_occupancy
  _atom_site_charge
Gd  Gd1       1.0  0.56283  0.41604  0.33627  1.0000 2.0875330479
Gd  Gd2       1.0  0.43717  0.58396  0.66373  1.0000 2.0875330479
Gd  Gd3       1.0  0.53038  0.80274  0.78885  1.0000 2.1016641171
Gd  Gd4       1.0  0.46962  0.19726  0.21115  1.0000 2.1016641171
Gd  Gd5       1.0  0.77613  0.72318  0.73687  1.0000 2.050547889
Gd  Gd6       1.0  0.22387  0.27682  0.26313  1.0000 2.050547889
Gd  Gd7       1.0  0.57011  0.79374  0.57543  1.0000 1.9869460972
Gd  Gd8       1.0  0.42989  0.20626  0.42457  1.0000 1.9869460972
Co  Co1       1.0  0.85610  0.67967  0.39936  1.0000 0.8910981329
Co  Co2       1.0  0.14390  0.32033  0.60064  1.0000 0.8910981329
Co  Co3       1.0  0.05705  0.68658  0.13092  1.0000 0.7005971582
Co  Co4       1.0  0.94295  0.31342  0.86908  1.0000 0.7005971582
H   H1        1.0  0.48640  0.94470  0.45340  1.0000 0.1172969638
H   H2        1.0  0.51360  0.05530  0.54660  1.0000 0.1172969638
H   H3        1.0  0.70450  0.86130  0.29600  1.0000 0.1370849633
H   H4        1.0  0.29550  0.13870  0.70400  1.0000 0.1370849633
H   H5        1.0  0.64350  0.98130  0.26540  1.0000 0.129130179
H   H6        1.0  0.35650  0.01870  0.73460  1.0000 0.129130179
H   H7        1.0  0.66667  0.37830  0.02200  1.0000 0.129130179
H   H8        1.0  0.33333  0.62170  0.97800  1.0000 0.129130179
H   H9        1.0  0.79110  0.46820  0.94280  1.0000 0.129130179
H   H10       1.0  0.20890  0.53180  0.05720  1.0000 0.129130179
H   H11       1.0  0.87820  0.53070  0.20560  1.0000 0.1172969638
H   H12       1.0  0.12180  0.46930  0.79440  1.0000 0.1172969638
H   H13       1.0  0.71340  0.75440  0.17870  1.0000 0.146440527
H   H14       1.0  0.28660  0.24560  0.82130  1.0000 0.146440527
H   H15       1.0  0.64310  0.77580  0.05280  1.0000 0.129130179
H   H16       1.0  0.35690  0.22420  0.94720  1.0000 0.129130179
H   H17       1.0  0.92930  0.74510  0.98460  1.0000 0.129130179
H   H18       1.0  0.07070  0.25490  0.01540  1.0000 0.129130179
H   H19       1.0  0.15100  0.53340  0.19580  1.0000 0.129130179
H   H20       1.0  0.84900  0.46660  0.80420  1.0000 0.129130179
H   H21       1.0  0.48250  0.78880  0.21600  1.0000 0.1172969638
H   H22       1.0  0.51750  0.21120  0.78400  1.0000 0.1172969638
H   H23       1.0  0.50930  0.65810  0.25750  1.0000 0.129130179
H   H24       1.0  0.49070  0.34190  0.74250  1.0000 0.129130179
H   H25       1.0  0.01010  0.43090  0.38740  1.0000 0.1370849633
H   H26       1.0  0.98990  0.56910  0.61260  1.0000 0.1370849633
H   H27       1.0  0.21350  0.50190  0.43820  1.0000 0.1370849633
H   H28       1.0  0.78650  0.49810  0.56180  1.0000 0.1370849633
H   H29       1.0  0.14420  0.72510  0.45650  1.0000 0.1172969638
H   H30       1.0  0.85580  0.27490  0.54350  1.0000 0.1172969638
H   H31       1.0  0.05560  0.89560  0.61890  1.0000 0.1370849633
H   H32       1.0  0.94440  0.10440  0.38110  1.0000 0.1370849633
H   H33       1.0  0.16720  0.00920  0.55430  1.0000 0.1172969638
H   H34       1.0  0.83280  0.99080  0.44570  1.0000 0.1172969638
H   H35       1.0  0.01740  0.86630  0.35630  1.0000 0.1172969638
H   H36       1.0  0.98260  0.13370  0.64370  1.0000 0.1172969638
H   H37       1.0  0.35330  0.35310  0.40830  1.0000 0.4005418431
H   H38       1.0  0.64670  0.64690  0.59170  1.0000 0.4005418431
H   H39       1.0  0.72390  0.87750  0.70290  1.0000 0.3812788041
H   H40       1.0  0.27610  0.12250  0.29710  1.0000 0.3812788041
H   H41       1.0  0.41050  0.35060  0.18890  1.0000 0.4005418431
H   H42       1.0  0.58950  0.64940  0.81110  1.0000 0.4005418431
H   H43       1.0  0.62010  0.25950  0.35740  1.0000 0.4005418431
H   H44       1.0  0.37990  0.74050  0.64260  1.0000 0.4005418431
H   H45       1.0  0.96130  0.83940  0.73950  1.0000 0.2609178485
H   H46       1.0  0.03870  0.16060  0.26050  1.0000 0.2609178485
H   H47       1.0  0.93460  0.91040  0.73500  1.0000 0.3130645962
H   H48       1.0  0.06540  0.08960  0.26500  1.0000 0.3130645962
H   H49       1.0  0.96010  0.67030  0.75450  1.0000 0.280189863
H   H50       1.0  0.03990  0.32970  0.24550  1.0000 0.280189863
H   H51       1.0  0.97600  0.67880  0.82890  1.0000 0.3402575464
H   H52       1.0  0.02400  0.32120  0.17110  1.0000 0.3402575464
C   C1        1.0  0.52020  0.05680  0.34300  1.0000 0.6371361525
C   C2        1.0  0.47980  0.94320  0.65700  1.0000 0.6371361525
C   C3        1.0  0.55740  0.97560  0.35830  1.0000 -0.0589122792
C   C4        1.0  0.44260  0.02440  0.64170  1.0000 -0.0589122792
C   C5        1.0  0.53100  0.92810  0.42100  1.0000 0.1005664641
C   C6        1.0  0.46900  0.07190  0.57900  1.0000 0.1005664641
C   C7        1.0  0.62790  0.83440  0.39110  1.0000 0.0831552805
C   C8        1.0  0.37210  0.16560  0.60890  1.0000 0.0831552805
C   C9        1.0  0.65930  0.87890  0.32730  1.0000 -0.1507695778
C   C10       1.0  0.34070  0.12110  0.67270  1.0000 -0.1507695778
C   C11       1.0  0.62380  0.95060  0.30910  1.0000 -0.0414522149
C   C12       1.0  0.37620  0.04940  0.69090  1.0000 -0.0414522149
C   C13       1.0  0.65780  0.75550  0.41520  1.0000 0.5557444902
C   C14       1.0  0.34220  0.24450  0.58480  1.0000 0.5557444902
C   C15       1.0  0.67570  0.39490  0.17610  1.0000 0.6281718822
C   C16       1.0  0.32430  0.60510  0.82390  1.0000 0.6281718822
C   C17       1.0  0.76100  0.44620  0.12150  1.0000 -0.0414522149
C   C18       1.0  0.23900  0.55380  0.87850  1.0000 -0.0414522149
C   C19       1.0  0.73390  0.42630  0.04290  1.0000 -0.0589122792
C   C20       1.0  0.26610  0.57370  0.95710  1.0000 -0.0589122792
C   C21       1.0  0.80850  0.47900  0.99610  1.0000 -0.1241251057
C   C22       1.0  0.19150  0.52100  0.00390  1.0000 -0.1241251057
C   C23       1.0  0.90810  0.54710  0.02890  1.0000 0.0697128722
C   C24       1.0  0.09190  0.45290  0.97110  1.0000 0.0697128722
C   C25       1.0  0.86170  0.51740  0.15250  1.0000 0.0697128722
C   C26       1.0  0.13830  0.48260  0.84750  1.0000 0.0697128722
C   C27       1.0  0.99620  0.61040  0.98460  1.0000 0.5075003715
C   C28       1.0  0.00380  0.38960  0.01540  1.0000 0.5075003715
C   C29       1.0  0.91510  0.71260  0.23050  1.0000 0.5173998983
C   C30       1.0  0.08490  0.28740  0.76950  1.0000 0.5173998983
C   C31       1.0  0.86160  0.73180  0.15260  1.0000 0.1005664641
C   C32       1.0  0.13840  0.26820  0.84740  1.0000 0.1005664641
C   C33       1.0  0.75540  0.75100  0.13890  1.0000 -0.1396598643
C   C34       1.0  0.24460  0.24900  0.86110  1.0000 -0.1396598643
C   C35       1.0  0.71510  0.76460  0.06420  1.0000 -0.0589122792
C   C36       1.0  0.28490  0.23540  0.93580  1.0000 -0.0589122792
C   C37       1.0  0.78040  0.76200  0.00480  1.0000 -0.0503477682
C   C38       1.0  0.21960  0.23800  0.99520  1.0000 -0.0503477682
C   C39       1.0  0.88410  0.74570  0.02340  1.0000 0.0636064918
C   C40       1.0  0.11590  0.25430  0.97660  1.0000 0.0636064918
C   C41       1.0  0.73720  0.77360  0.92030  1.0000 0.6281718822
C   C42       1.0  0.26280  0.22640  0.07970  1.0000 0.6281718822
C   C43       1.0  0.34630  0.49580  0.25680  1.0000 0.6170750768
C   C44       1.0  0.65370  0.50420  0.74320  1.0000 0.6170750768
C   C45       1.0  0.32740  0.58120  0.23230  1.0000 -0.0589122792
C   C46       1.0  0.67260  0.41880  0.76770  1.0000 -0.0589122792
C   C47       1.0  0.21800  0.58500  0.20150  1.0000 0.0531071113
C   C48       1.0  0.78200  0.41500  0.79850  1.0000 0.0531071113
C   C49       1.0  0.30210  0.73600  0.18660  1.0000 0.0864818902
C   C50       1.0  0.69790  0.26400  0.81340  1.0000 0.0864818902
C   C51       1.0  0.41660  0.73680  0.21380  1.0000 -0.1507695778
C   C52       1.0  0.58340  0.26320  0.78620  1.0000 -0.1507695778
C   C53       1.0  0.43300  0.65930  0.23820  1.0000 -0.068090565
C   C54       1.0  0.56700  0.34070  0.76180  1.0000 -0.068090565
C   C55       1.0  0.27580  0.81750  0.16560  1.0000 0.5325964601
C   C56       1.0  0.72420  0.18250  0.83440  1.0000 0.5325964601
C   C57       1.0  0.82860  0.49770  0.37190  1.0000 0.5325964601
C   C58       1.0  0.17140  0.50230  0.62810  1.0000 0.5325964601
C   C59       1.0  0.96380  0.53930  0.39610  1.0000 0.1005664641
C   C60       1.0  0.03620  0.46070  0.60390  1.0000 0.1005664641
C   C61       1.0  0.03930  0.49050  0.40290  1.0000 -0.1396598643
C   C62       1.0  0.96070  0.50950  0.59710  1.0000 -0.1396598643
C   C63       1.0  0.15960  0.53250  0.43320  1.0000 -0.0414522149
C   C64       1.0  0.84040  0.46750  0.56680  1.0000 -0.0414522149
C   C65       1.0  0.19900  0.62240  0.45620  1.0000 -0.0503477682
C   C66       1.0  0.80100  0.37760  0.54380  1.0000 -0.0503477682
C   C67       1.0  0.11670  0.66490  0.44370  1.0000 0.0697128722
C   C68       1.0  0.88330  0.33510  0.55630  1.0000 0.0697128722
C   C69       1.0  0.32480  0.66870  0.49910  1.0000 0.597617975
C   C70       1.0  0.67520  0.33130  0.50090  1.0000 0.597617975
C   C71       1.0  0.89140  0.73450  0.56110  1.0000 0.5691049607
C   C72       1.0  0.10860  0.26550  0.43890  1.0000 0.5691049607
C   C73       1.0  0.97290  0.81380  0.52520  1.0000 0.1005664641
C   C74       1.0  0.02710  0.18620  0.47480  1.0000 0.1005664641
C   C75       1.0  0.04910  0.89020  0.56540  1.0000 -0.130022285
C   C76       1.0  0.95090  0.10980  0.43460  1.0000 -0.130022285
C   C77       1.0  0.11490  0.95800  0.52670  1.0000 -0.0589122792
C   C78       1.0  0.88510  0.04200  0.47330  1.0000 -0.0589122792
C   C79       1.0  0.10550  0.95210  0.44730  1.0000 -0.0589122792
C   C80       1.0  0.89450  0.04790  0.55270  1.0000 -0.0589122792
C   C81       1.0  0.02690  0.87230  0.40990  1.0000 0.0697128722
C   C82       1.0  0.97310  0.12770  0.59010  1.0000 0.0697128722
C   C83       1.0  0.17120  0.02610  0.40090  1.0000 0.5785081298
C   C84       1.0  0.82880  0.97390  0.59910  1.0000 0.5785081298
N   N1        1.0  0.56460  0.85970  0.43910  1.0000 -0.3200586526
N   N2        1.0  0.43540  0.14030  0.56090  1.0000 -0.3200586526
N   N3        1.0  0.93570  0.56700  0.10660  1.0000 -0.2231615497
N   N4        1.0  0.06430  0.43300  0.89340  1.0000 -0.2231615497
N   N5        1.0  0.92460  0.73040  0.09520  1.0000 -0.2033155835
N   N6        1.0  0.07540  0.26960  0.90480  1.0000 -0.2033155835
N   N7        1.0  0.00090  0.62680  0.41470  1.0000 -0.2812641649
N   N8        1.0  0.99910  0.37320  0.58530  1.0000 -0.2812641649
N   N9        1.0  0.96490  0.80460  0.44770  1.0000 -0.2812641649
N   N10       1.0  0.03510  0.19540  0.55230  1.0000 -0.2812641649
N   N11       1.0  0.20260  0.66140  0.17870  1.0000 -0.2033155835
N   N12       1.0  0.79740  0.33860  0.82130  1.0000 -0.2033155835
O   O1        1.0  0.37670  0.32950  0.37550  1.0000 -1.0932021229
O   O2        1.0  0.62330  0.67050  0.62450  1.0000 -1.0932021229
O   O3        1.0  0.67850  0.82720  0.70740  1.0000 -1.1137747257
O   O4        1.0  0.32150  0.17280  0.29260  1.0000 -1.1137747257
O   O5        1.0  0.41980  0.32690  0.22940  1.0000 -1.1238743751
O   O6        1.0  0.58020  0.67310  0.77060  1.0000 -1.1310156672
O   O7        1.0  0.56290  0.27030  0.33340  1.0000 -1.1390802352
O   O8        1.0  0.43710  0.72970  0.66667  1.0000 -1.1310156672
O   O9        1.0  0.47620  0.08130  0.39570  1.0000 -0.6404381483
O   O10       1.0  0.52380  0.91870  0.60430  1.0000 -0.6404381483
O   O11       1.0  0.53520  0.09150  0.28040  1.0000 -0.648802786
O   O12       1.0  0.46480  0.90850  0.71960  1.0000 -0.648802786
O   O13       1.0  0.62690  0.72230  0.47670  1.0000 -0.589135
O   O14       1.0  0.37310  0.27770  0.52330  1.0000 -0.589135
O   O15       1.0  0.70870  0.72370  0.37030  1.0000 -0.5271901874
O   O16       1.0  0.29130  0.27630  0.62970  1.0000 -0.5271901874
O   O17       1.0  0.25620  0.42950  0.25020  1.0000 -0.6210951297
O   O18       1.0  0.74380  0.57050  0.74980  1.0000 -0.6210951297
O   O19       1.0  0.45410  0.50360  0.28070  1.0000 -0.6404381483
O   O20       1.0  0.54590  0.49640  0.71930  1.0000 -0.6404381483
O   O21       1.0  0.35730  0.88870  0.17540  1.0000 -0.4771921922
O   O22       1.0  0.64270  0.11130  0.82460  1.0000 -0.4771921922
O   O23       1.0  0.16370  0.80630  0.14110  1.0000 -0.4694285282
O   O24       1.0  0.83630  0.19370  0.85890  1.0000 -0.4694285282
O   O25       1.0  0.76390  0.54580  0.36970  1.0000 -0.6047026603
O   O26       1.0  0.23610  0.45420  0.63030  1.0000 -0.6056751101
O   O27       1.0  0.78290  0.41500  0.36060  1.0000 -0.5706545799
O   O28       1.0  0.21710  0.58500  0.63940  1.0000 -0.5706545799
O   O29       1.0  0.36190  0.75080  0.50580  1.0000 -0.6056751101
O   O30       1.0  0.63810  0.24920  0.49420  1.0000 -0.6056751101
O   O31       1.0  0.38600  0.62210  0.52740  1.0000 -0.6684329151
O   O32       1.0  0.61400  0.37790  0.47260  1.0000 -0.6684329151
O   O33       1.0  0.84020  0.66650  0.51810  1.0000 -0.5118300258
O   O34       1.0  0.15980  0.33350  0.48190  1.0000 -0.5118300258
O   O35       1.0  0.88390  0.74270  0.63060  1.0000 -0.6404381483
O   O36       1.0  0.11610  0.25730  0.36940  1.0000 -0.6404381483
O   O37       1.0  0.15060  0.01340  0.32970  1.0000 -0.5271901874
O   O38       1.0  0.84940  0.98660  0.67030  1.0000 -0.5271901874
O   O39       1.0  0.24150  0.09570  0.43820  1.0000 -0.648802786
O   O40       1.0  0.75850  0.90430  0.56180  1.0000 -0.648802786
O   O41       1.0  0.63000  0.31330  0.16640  1.0000 -0.648802786
O   O42       1.0  0.37000  0.68670  0.83360  1.0000 -0.648802786
O   O43       1.0  0.65780  0.44340  0.22500  1.0000 -0.6264635711
O   O44       1.0  0.34220  0.55660  0.77500  1.0000 -0.6264635711
O   O45       1.0  0.08140  0.67150  0.02600  1.0000 -0.4694285282
O   O46       1.0  0.91860  0.32850  0.97400  1.0000 -0.4694285282
O   O47       1.0  0.98350  0.59770  0.91270  1.0000 -0.5118300258
O   O48       1.0  0.01650  0.40230  0.08730  1.0000 -0.5118300258
O   O49       1.0  0.86700  0.71450  0.28620  1.0000 -0.4771921922
O   O50       1.0  0.13300  0.28550  0.71380  1.0000 -0.4694285282
O   O51       1.0  0.01190  0.69450  0.23110  1.0000 -0.4643663256
O   O52       1.0  0.98810  0.30550  0.76890  1.0000 -0.4694285282
O   O53       1.0  0.64280  0.79280  0.90810  1.0000 -0.6684329151
O   O54       1.0  0.35720  0.20720  0.09190  1.0000 -0.6684329151
O   O55       1.0  0.79810  0.76170  0.87230  1.0000 -0.6210951297
O   O56       1.0  0.20190  0.23830  0.12770  1.0000 -0.6210951297
O   O57       1.0  0.93730  0.87130  0.76420  1.0000 -0.7163233845
O   O58       1.0  0.06270  0.12870  0.23580  1.0000 -0.7163233845
O   O59       1.0  0.96990  0.70630  0.79010  1.0000 -0.7092968016
O   O60       1.0  0.03010  0.29370  0.20990  1.0000 -0.7092968016
