# DDEC6 charges by PACMAN v1.1 (https://github.com/mtap-research/PACMAN-charge/)
data_2008[Zn][nan]3[ASR]3
_chemical_formula_sum              "Zn20 H16 C16 N72 O16"
_cell_length_a       16.0871
_cell_length_b       8.5505
_cell_length_c       17.1886
_cell_angle_alpha    90
_cell_angle_beta     129.569
_cell_angle_gamma    90

_symmetry_space_group_name_H-M    "P 1"
_symmetry_Int_Tables_number       1

loop_
  _symmetry_equiv_pos_as_xyz
  'x, y, z'

loop_
  _atom_site_type_symbol
  _atom_site_label
  _atom_site_symmetry_multiplicity
  _atom_site_fract_x
  _atom_site_fract_y
  _atom_site_fract_z
  _atom_site_occupancy
  _atom_site_charge
Zn  Zn1       1.0  0.10716  0.31985  0.13437  1.0000 0.8223955843
Zn  Zn2       1.0  0.87386  0.56452  0.02872  1.0000 0.786912209
Zn  Zn3       1.0  0.60716  0.81985  0.13437  1.0000 0.8223955843
Zn  Zn4       1.0  0.37386  0.06452  0.02872  1.0000 0.786912209
Zn  Zn5       1.0  0.89284  0.31985  0.36563  1.0000 0.8223955843
Zn  Zn6       1.0  0.12614  0.56452  0.47128  1.0000 0.786912209
Zn  Zn7       1.0  0.39284  0.81985  0.36563  1.0000 0.8223955843
Zn  Zn8       1.0  0.62614  0.06452  0.47128  1.0000 0.786912209
Zn  Zn9       1.0  0.89284  0.68015  0.86563  1.0000 0.8223955843
Zn  Zn10      1.0  0.12614  0.43548  0.97128  1.0000 0.786912209
Zn  Zn11      1.0  0.39284  0.18015  0.86563  1.0000 0.8223955843
Zn  Zn12      1.0  0.62614  0.93548  0.97128  1.0000 0.786912209
Zn  Zn13      1.0  0.10716  0.68015  0.63437  1.0000 0.8223955843
Zn  Zn14      1.0  0.87386  0.43548  0.52872  1.0000 0.786912209
Zn  Zn15      1.0  0.60716  0.18015  0.63437  1.0000 0.8223955843
Zn  Zn16      1.0  0.37386  0.93548  0.52872  1.0000 0.786912209
Zn  Zn17      1.0  0.00000  0.37327  0.25000  1.0000 0.7136000606
Zn  Zn18      1.0  0.50000  0.87327  0.25000  1.0000 0.7136000606
Zn  Zn19      1.0  1.00000  0.62673  0.75000  1.0000 0.7136000606
Zn  Zn20      1.0  0.50000  0.12673  0.75000  1.0000 0.7136000606
H   H1        1.0  0.54204  0.79291  0.55928  1.0000 0.3624075881
H   H2        1.0  0.59135  0.79073  0.42205  1.0000 0.3624075881
H   H3        1.0  0.04204  0.29291  0.55928  1.0000 0.3624075881
H   H4        1.0  0.09135  0.29073  0.42205  1.0000 0.3624075881
H   H5        1.0  0.45796  0.79291  0.94072  1.0000 0.3624075881
H   H6        1.0  0.40865  0.79073  0.07795  1.0000 0.3624075881
H   H7        1.0  0.95796  0.29291  0.94072  1.0000 0.3624075881
H   H8        1.0  0.90865  0.29073  0.07795  1.0000 0.3624075881
H   H9        1.0  0.45796  0.20709  0.44072  1.0000 0.3624075881
H   H10       1.0  0.40865  0.20927  0.57795  1.0000 0.3624075881
H   H11       1.0  0.95796  0.70709  0.44072  1.0000 0.3624075881
H   H12       1.0  0.90865  0.70927  0.57795  1.0000 0.3624075881
H   H13       1.0  0.54204  0.20709  0.05928  1.0000 0.3624075881
H   H14       1.0  0.59135  0.20927  0.92205  1.0000 0.3624075881
H   H15       1.0  0.04204  0.70709  0.05928  1.0000 0.3624075881
H   H16       1.0  0.09135  0.70927  0.92205  1.0000 0.3624075881
C   C1        1.0  0.24610  0.59240  0.18100  1.0000 0.436828871
C   C2        1.0  0.18640  0.59420  0.27510  1.0000 0.436828871
C   C3        1.0  0.74610  0.09240  0.18100  1.0000 0.436828871
C   C4        1.0  0.68640  0.09420  0.27510  1.0000 0.436828871
C   C5        1.0  0.75390  0.59240  0.31900  1.0000 0.436828871
C   C6        1.0  0.81360  0.59420  0.22490  1.0000 0.436828871
C   C7        1.0  0.25390  0.09240  0.31900  1.0000 0.436828871
C   C8        1.0  0.31360  0.09420  0.22490  1.0000 0.436828871
C   C9        1.0  0.75390  0.40760  0.81900  1.0000 0.436828871
C   C10       1.0  0.81360  0.40580  0.72490  1.0000 0.436828871
C   C11       1.0  0.25390  0.90760  0.81900  1.0000 0.436828871
C   C12       1.0  0.31360  0.90580  0.72490  1.0000 0.436828871
C   C13       1.0  0.24610  0.40760  0.68100  1.0000 0.436828871
C   C14       1.0  0.18640  0.40580  0.77510  1.0000 0.436828871
C   C15       1.0  0.74610  0.90760  0.68100  1.0000 0.436828871
C   C16       1.0  0.68640  0.90580  0.77510  1.0000 0.436828871
N   N1        1.0  0.33440  0.68640  0.24150  1.0000 -0.3079764446
N   N2        1.0  0.37680  0.69880  0.19490  1.0000 -0.0387230514
N   N3        1.0  0.32070  0.62010  0.11150  1.0000 -0.0702397817
N   N4        1.0  0.23850  0.55240  0.10010  1.0000 -0.3079764446
N   N5        1.0  0.26090  0.69970  0.34390  1.0000 -0.3033656043
N   N6        1.0  0.24610  0.71270  0.41230  1.0000 -0.0502910105
N   N7        1.0  0.16620  0.62070  0.38450  1.0000 -0.0580984111
N   N8        1.0  0.12660  0.54360  0.29860  1.0000 -0.2926715364
N   N9        1.0  0.17740  0.53870  0.19410  1.0000 -0.5042995003
N   N10       1.0  0.83440  0.18640  0.24150  1.0000 -0.3079764446
N   N11       1.0  0.87680  0.19880  0.19490  1.0000 -0.0387230514
N   N12       1.0  0.82070  0.12010  0.11150  1.0000 -0.0702397817
N   N13       1.0  0.73850  0.05240  0.10010  1.0000 -0.3079764446
N   N14       1.0  0.76090  0.19970  0.34390  1.0000 -0.3033656043
N   N15       1.0  0.74610  0.21270  0.41230  1.0000 -0.0502910105
N   N16       1.0  0.66620  0.12070  0.38450  1.0000 -0.0580984111
N   N17       1.0  0.62660  0.04360  0.29860  1.0000 -0.2926715364
N   N18       1.0  0.67740  0.03870  0.19410  1.0000 -0.5042995003
N   N19       1.0  0.66560  0.68640  0.25850  1.0000 -0.3079764446
N   N20       1.0  0.62320  0.69880  0.30510  1.0000 -0.0387230514
N   N21       1.0  0.67930  0.62010  0.38850  1.0000 -0.0702397817
N   N22       1.0  0.76150  0.55240  0.39990  1.0000 -0.3079764446
N   N23       1.0  0.73910  0.69970  0.15610  1.0000 -0.3033656043
N   N24       1.0  0.75390  0.71270  0.08770  1.0000 -0.0502910105
N   N25       1.0  0.83380  0.62070  0.11550  1.0000 -0.0580984111
N   N26       1.0  0.87340  0.54360  0.20140  1.0000 -0.2926715364
N   N27       1.0  0.82260  0.53870  0.30590  1.0000 -0.5042995003
N   N28       1.0  0.16560  0.18640  0.25850  1.0000 -0.3079764446
N   N29       1.0  0.12320  0.19880  0.30510  1.0000 -0.0387230514
N   N30       1.0  0.17930  0.12010  0.38850  1.0000 -0.0702397817
N   N31       1.0  0.26150  0.05240  0.39990  1.0000 -0.3079764446
N   N32       1.0  0.23910  0.19970  0.15610  1.0000 -0.3033656043
N   N33       1.0  0.25390  0.21270  0.08770  1.0000 -0.0502910105
N   N34       1.0  0.33380  0.12070  0.11550  1.0000 -0.0580984111
N   N35       1.0  0.37340  0.04360  0.20140  1.0000 -0.2926715364
N   N36       1.0  0.32260  0.03870  0.30590  1.0000 -0.5042995003
N   N37       1.0  0.66560  0.31360  0.75850  1.0000 -0.3079764446
N   N38       1.0  0.62320  0.30120  0.80510  1.0000 -0.0387230514
N   N39       1.0  0.67930  0.37990  0.88850  1.0000 -0.0702397817
N   N40       1.0  0.76150  0.44760  0.89990  1.0000 -0.3079764446
N   N41       1.0  0.73910  0.30030  0.65610  1.0000 -0.3033656043
N   N42       1.0  0.75390  0.28730  0.58770  1.0000 -0.0502910105
N   N43       1.0  0.83380  0.37930  0.61550  1.0000 -0.0580984111
N   N44       1.0  0.87340  0.45640  0.70140  1.0000 -0.2926715364
N   N45       1.0  0.82260  0.46130  0.80590  1.0000 -0.5042995003
N   N46       1.0  0.16560  0.81360  0.75850  1.0000 -0.3079764446
N   N47       1.0  0.12320  0.80120  0.80510  1.0000 -0.0387230514
N   N48       1.0  0.17930  0.87990  0.88850  1.0000 -0.0702397817
N   N49       1.0  0.26150  0.94760  0.89990  1.0000 -0.3079764446
N   N50       1.0  0.23910  0.80030  0.65610  1.0000 -0.3033656043
N   N51       1.0  0.25390  0.78730  0.58770  1.0000 -0.0502910105
N   N52       1.0  0.33380  0.87930  0.61550  1.0000 -0.0580984111
N   N53       1.0  0.37340  0.95640  0.70140  1.0000 -0.2926715364
N   N54       1.0  0.32260  0.96130  0.80590  1.0000 -0.5042995003
N   N55       1.0  0.33440  0.31360  0.74150  1.0000 -0.3079764446
N   N56       1.0  0.37680  0.30120  0.69490  1.0000 -0.0387230514
N   N57       1.0  0.32070  0.37990  0.61150  1.0000 -0.0702397817
N   N58       1.0  0.23850  0.44760  0.60010  1.0000 -0.3079764446
N   N59       1.0  0.26090  0.30030  0.84390  1.0000 -0.3033656043
N   N60       1.0  0.24610  0.28730  0.91230  1.0000 -0.0502910105
N   N61       1.0  0.16620  0.37930  0.88450  1.0000 -0.0580984111
N   N62       1.0  0.12660  0.45640  0.79860  1.0000 -0.2926715364
N   N63       1.0  0.17740  0.46130  0.69410  1.0000 -0.5042995003
N   N64       1.0  0.83440  0.81360  0.74150  1.0000 -0.3079764446
N   N65       1.0  0.87680  0.80120  0.69490  1.0000 -0.0387230514
N   N66       1.0  0.82070  0.87990  0.61150  1.0000 -0.0702397817
N   N67       1.0  0.73850  0.94760  0.60010  1.0000 -0.3079764446
N   N68       1.0  0.76090  0.80030  0.84390  1.0000 -0.3033656043
N   N69       1.0  0.74610  0.78730  0.91230  1.0000 -0.0502910105
N   N70       1.0  0.66620  0.87930  0.88450  1.0000 -0.0580984111
N   N71       1.0  0.62660  0.95640  0.79860  1.0000 -0.2926715364
N   N72       1.0  0.67740  0.96130  0.69410  1.0000 -0.5042995003
O   O1        1.0  0.96510  0.37260  0.11160  1.0000 -0.7933366087
O   O2        1.0  0.03860  0.31630  0.98880  1.0000 -0.8376023483
O   O3        1.0  0.46510  0.87260  0.11160  1.0000 -0.7933366087
O   O4        1.0  0.53860  0.81630  0.98880  1.0000 -0.8376023483
O   O5        1.0  0.03490  0.37260  0.38840  1.0000 -0.7933366087
O   O6        1.0  0.96140  0.31630  0.51120  1.0000 -0.8376023483
O   O7        1.0  0.53490  0.87260  0.38840  1.0000 -0.7933366087
O   O8        1.0  0.46140  0.81630  0.51120  1.0000 -0.8376023483
O   O9        1.0  0.03490  0.62740  0.88840  1.0000 -0.7933366087
O   O10       1.0  0.96140  0.68370  0.01120  1.0000 -0.8376023483
O   O11       1.0  0.53490  0.12740  0.88840  1.0000 -0.7933366087
O   O12       1.0  0.46140  0.18370  0.01120  1.0000 -0.8376023483
O   O13       1.0  0.96510  0.62740  0.61160  1.0000 -0.7933366087
O   O14       1.0  0.03860  0.68370  0.48880  1.0000 -0.8376023483
O   O15       1.0  0.46510  0.12740  0.61160  1.0000 -0.7933366087
O   O16       1.0  0.53860  0.18370  0.48880  1.0000 -0.8376023483
