# DDEC6 charges by PACMAN v1.1 (https://github.com/mtap-research/PACMAN-charge/)
data_2008[Cu][nan]3[ASR]3
_chemical_formula_sum              "Cu8 H24 C16 O24"
_cell_length_a       9.732
_cell_length_b       10.596
_cell_length_c       12.592
_cell_angle_alpha    111.37
_cell_angle_beta     106.05
_cell_angle_gamma    96.36

_symmetry_space_group_name_H-M    "P 1"
_symmetry_Int_Tables_number       1

loop_
  _symmetry_equiv_pos_as_xyz
  'x, y, z'

loop_
  _atom_site_type_symbol
  _atom_site_label
  _atom_site_symmetry_multiplicity
  _atom_site_fract_x
  _atom_site_fract_y
  _atom_site_fract_z
  _atom_site_occupancy
  _atom_site_charge
Cu  Cu1       1.0  0.35613  0.00712  0.40434  1.0000 0.9388172202
Cu  Cu2       1.0  0.64387  0.99288  0.59566  1.0000 0.9388172202
Cu  Cu3       1.0  0.06698  0.89069  0.41221  1.0000 0.9991884403
Cu  Cu4       1.0  0.93302  0.10931  0.58779  1.0000 0.9991884403
Cu  Cu5       1.0  0.24215  0.20603  0.58546  1.0000 0.9388172202
Cu  Cu6       1.0  0.75785  0.79397  0.41454  1.0000 0.9388172202
Cu  Cu7       1.0  0.65971  0.10660  0.39411  1.0000 0.9199478202
Cu  Cu8       1.0  0.34029  0.89340  0.60589  1.0000 0.9199478202
H   H1        1.0  0.36000  0.51300  0.95670  1.0000 0.1290961924
H   H2        1.0  0.64000  0.48700  0.04330  1.0000 0.1290961924
H   H3        1.0  0.40260  0.39940  0.00270  1.0000 0.1290961924
H   H4        1.0  0.59740  0.60060  0.99730  1.0000 0.1290961924
H   H5        1.0  0.87590  0.55810  0.50170  1.0000 0.1412451836
H   H6        1.0  0.12410  0.44190  0.49830  1.0000 0.1412451836
H   H7        1.0  0.00540  0.58210  0.61920  1.0000 0.1412451836
H   H8        1.0  0.99460  0.41790  0.38080  1.0000 0.1412451836
H   H9        1.0  0.63420  0.99040  0.98290  1.0000 0.1246394985
H   H10       1.0  0.36580  0.00960  0.01710  1.0000 0.1246394985
H   H11       1.0  0.51990  0.86510  0.97020  1.0000 0.1290961924
H   H12       1.0  0.48010  0.13490  0.02980  1.0000 0.1290961924
H   H13       1.0  0.62060  0.43990  0.50280  1.0000 0.1412451836
H   H14       1.0  0.37940  0.56010  0.49720  1.0000 0.1412451836
H   H15       1.0  0.49140  0.41060  0.38410  1.0000 0.1502828099
H   H16       1.0  0.50860  0.58940  0.61590  1.0000 0.1502828099
H   H17       1.0  0.15110  0.10900  0.37070  1.0000 0.3955252193
H   H18       1.0  0.84890  0.89100  0.62930  1.0000 0.3955252193
H   H19       1.0  0.83450  0.95230  0.32470  1.0000 0.3707338296
H   H20       1.0  0.16550  0.04770  0.67530  1.0000 0.3707338296
H   H21       1.0  0.29880  0.80270  0.40180  1.0000 0.3707338296
H   H22       1.0  0.70120  0.19730  0.59820  1.0000 0.3707338296
H   H23       1.0  0.51540  0.87290  0.33120  1.0000 0.3563244216
H   H24       1.0  0.48460  0.12710  0.66880  1.0000 0.3563244216
C   C1        1.0  0.41590  0.35810  0.83490  1.0000 0.6157272332
C   C2        1.0  0.58410  0.64190  0.16510  1.0000 0.6157272332
C   C3        1.0  0.43040  0.45560  0.96270  1.0000 -0.2718585632
C   C4        1.0  0.56960  0.54440  0.03730  1.0000 -0.2718585632
C   C5        1.0  0.06460  0.69010  0.52570  1.0000 0.6394224934
C   C6        1.0  0.93540  0.30990  0.47430  1.0000 0.6394224934
C   C7        1.0  0.98080  0.56670  0.53470  1.0000 -0.2856912591
C   C8        1.0  0.01920  0.43330  0.46530  1.0000 -0.2856912591
C   C9        1.0  0.63440  0.99680  0.14670  1.0000 0.6115356856
C   C10       1.0  0.36560  0.00320  0.85330  1.0000 0.6115356856
C   C11       1.0  0.55970  0.96510  0.01400  1.0000 -0.2718585632
C   C12       1.0  0.44030  0.03490  0.98600  1.0000 -0.2718585632
C   C13       1.0  0.43450  0.31170  0.48230  1.0000 0.6341414027
C   C14       1.0  0.56550  0.68830  0.51770  1.0000 0.6341414027
C   C15       1.0  0.51580  0.43190  0.46980  1.0000 -0.2856912591
C   C16       1.0  0.48420  0.56810  0.53020  1.0000 -0.2856912591
O   O1        1.0  0.29650  0.34190  0.75310  1.0000 -0.5716530509
O   O2        1.0  0.70350  0.65810  0.24690  1.0000 -0.5716530509
O   O3        1.0  0.51780  0.30050  0.81850  1.0000 -0.5638243384
O   O4        1.0  0.48220  0.69950  0.18150  1.0000 -0.5638243384
O   O5        1.0  0.99480  0.73720  0.45470  1.0000 -0.5907162852
O   O6        1.0  0.00520  0.26280  0.54530  1.0000 -0.5907162852
O   O7        1.0  0.19930  0.73390  0.58890  1.0000 -0.5374141015
O   O8        1.0  0.80070  0.26610  0.41110  1.0000 -0.5374141015
O   O9        1.0  0.75260  0.96300  0.17520  1.0000 -0.5510509736
O   O10       1.0  0.24740  0.03700  0.82480  1.0000 -0.5510509736
O   O11       1.0  0.57280  0.05740  0.22050  1.0000 -0.5510509736
O   O12       1.0  0.42720  0.94260  0.77950  1.0000 -0.5510509736
O   O13       1.0  0.35660  0.33620  0.54840  1.0000 -0.5374141015
O   O14       1.0  0.64340  0.66380  0.45160  1.0000 -0.5374141015
O   O15       1.0  0.45360  0.19340  0.42470  1.0000 -0.597283227
O   O16       1.0  0.54640  0.80660  0.57530  1.0000 -0.597283227
O   O17       1.0  0.17480  0.06420  0.41600  1.0000 -0.8183060713
O   O18       1.0  0.82520  0.93580  0.58400  1.0000 -0.8183060713
O   O19       1.0  0.87460  0.93120  0.38670  1.0000 -0.8805165715
O   O20       1.0  0.12540  0.06880  0.61330  1.0000 -0.8805165715
O   O21       1.0  0.25980  0.84920  0.43050  1.0000 -0.7297060318
O   O22       1.0  0.74020  0.15080  0.56950  1.0000 -0.7297060318
O   O23       1.0  0.53160  0.94550  0.38470  1.0000 -0.832825882
O   O24       1.0  0.46840  0.05450  0.61530  1.0000 -0.832825882
