# DDEC6 charges by PACMAN v1.1 (https://github.com/mtap-research/PACMAN-charge/)
data_2008[Ga][nan]3[ASR]1
_chemical_formula_sum              "Ga6 H28 C48 O30"
_cell_length_a       21.1869
_cell_length_b       21.1869
_cell_length_c       6.7423
_cell_angle_alpha    90
_cell_angle_beta     90
_cell_angle_gamma    59.966

_symmetry_space_group_name_H-M    "P 1"
_symmetry_Int_Tables_number       1

loop_
  _symmetry_equiv_pos_as_xyz
  'x, y, z'

loop_
  _atom_site_type_symbol
  _atom_site_label
  _atom_site_symmetry_multiplicity
  _atom_site_fract_x
  _atom_site_fract_y
  _atom_site_fract_z
  _atom_site_occupancy
  _atom_site_charge
Ga  Ga1       1.0  0.50000  0.00000  0.00000  1.0000 1.4302760763
Ga  Ga2       1.0  0.50000  0.00000  0.50000  1.0000 1.4302760763
Ga  Ga3       1.0  0.00000  0.50000  0.50000  1.0000 1.4302760763
Ga  Ga4       1.0  0.00000  0.50000  0.00000  1.0000 1.4302760763
Ga  Ga5       1.0  0.00000  0.00000  0.00000  1.0000 1.3112153811
Ga  Ga6       1.0  0.00000  0.00000  0.50000  1.0000 1.3112153811
H   H1        1.0  0.32147  0.20907  0.94430  1.0000 0.1215307852
H   H2        1.0  0.67752  0.02892  0.94430  1.0000 0.1215307852
H   H3        1.0  0.79232  0.02380  0.94430  1.0000 0.1215307852
H   H4        1.0  0.50000  0.90680  0.25000  1.0000 0.41650037
H   H5        1.0  0.67853  0.79093  0.44430  1.0000 0.1215307852
H   H6        1.0  0.32248  0.97108  0.44430  1.0000 0.1215307852
H   H7        1.0  0.20768  0.97620  0.44430  1.0000 0.1215307852
H   H8        1.0  0.50000  0.09320  0.75000  1.0000 0.41650037
H   H9        1.0  0.20907  0.32147  0.55570  1.0000 0.1215307852
H   H10       1.0  0.02892  0.67752  0.55570  1.0000 0.1215307852
H   H11       1.0  0.02380  0.79232  0.55570  1.0000 0.1215307852
H   H12       1.0  0.90680  0.50000  0.25000  1.0000 0.41650037
H   H13       1.0  0.79093  0.67853  0.05570  1.0000 0.1215307852
H   H14       1.0  0.97108  0.32248  0.05570  1.0000 0.1215307852
H   H15       1.0  0.97620  0.20768  0.05570  1.0000 0.1215307852
H   H16       1.0  0.09320  0.50000  0.75000  1.0000 0.41650037
H   H17       1.0  0.67853  0.79093  0.05570  1.0000 0.1215307852
H   H18       1.0  0.32248  0.97108  0.05570  1.0000 0.1215307852
H   H19       1.0  0.20768  0.97620  0.05570  1.0000 0.1215307852
H   H20       1.0  0.32147  0.20907  0.55570  1.0000 0.1215307852
H   H21       1.0  0.67752  0.02892  0.55570  1.0000 0.1215307852
H   H22       1.0  0.79232  0.02380  0.55570  1.0000 0.1215307852
H   H23       1.0  0.79093  0.67853  0.44430  1.0000 0.1215307852
H   H24       1.0  0.97108  0.32248  0.44430  1.0000 0.1215307852
H   H25       1.0  0.97620  0.20768  0.44430  1.0000 0.1215307852
H   H26       1.0  0.20907  0.32147  0.94430  1.0000 0.1215307852
H   H27       1.0  0.02892  0.67752  0.94430  1.0000 0.1215307852
H   H28       1.0  0.02380  0.79232  0.94430  1.0000 0.1215307852
C   C1        1.0  0.29833  0.23221  0.07018  1.0000 -0.109637124
C   C2        1.0  0.70115  0.02787  0.07018  1.0000 -0.109637124
C   C3        1.0  0.76868  0.02486  0.07018  1.0000 -0.1007692348
C   C4        1.0  0.70167  0.76779  0.57018  1.0000 -0.109637124
C   C5        1.0  0.29885  0.97213  0.57018  1.0000 -0.109637124
C   C6        1.0  0.23132  0.97514  0.57018  1.0000 -0.1007692348
C   C7        1.0  0.23221  0.29833  0.42982  1.0000 -0.109637124
C   C8        1.0  0.02787  0.70115  0.42982  1.0000 -0.109637124
C   C9        1.0  0.02486  0.76868  0.42982  1.0000 -0.1007692348
C   C10       1.0  0.76779  0.70167  0.92982  1.0000 -0.109637124
C   C11       1.0  0.97213  0.29885  0.92982  1.0000 -0.109637124
C   C12       1.0  0.97514  0.23132  0.92982  1.0000 -0.1007692348
C   C13       1.0  0.70167  0.76779  0.92982  1.0000 -0.109637124
C   C14       1.0  0.29885  0.97213  0.92982  1.0000 -0.109637124
C   C15       1.0  0.23132  0.97514  0.92982  1.0000 -0.1007692348
C   C16       1.0  0.29833  0.23221  0.42982  1.0000 -0.109637124
C   C17       1.0  0.70115  0.02787  0.42982  1.0000 -0.109637124
C   C18       1.0  0.76868  0.02486  0.42982  1.0000 -0.1007692348
C   C19       1.0  0.76779  0.70167  0.57018  1.0000 -0.109637124
C   C20       1.0  0.97213  0.29885  0.57018  1.0000 -0.109637124
C   C21       1.0  0.97514  0.23132  0.57018  1.0000 -0.1007692348
C   C22       1.0  0.23221  0.29833  0.07018  1.0000 -0.109637124
C   C23       1.0  0.02787  0.70115  0.07018  1.0000 -0.109637124
C   C24       1.0  0.02486  0.76868  0.07018  1.0000 -0.1007692348
C   C25       1.0  0.40222  0.12832  0.25000  1.0000 0.6108960314
C   C26       1.0  0.33138  0.19916  0.25000  1.0000 -0.0282425983
C   C27       1.0  0.59502  0.03260  0.25000  1.0000 0.6108960314
C   C28       1.0  0.66739  0.02937  0.25000  1.0000 -0.0368397767
C   C29       1.0  0.80245  0.02335  0.25000  1.0000 -0.0282425983
C   C30       1.0  0.87481  0.02013  0.25000  1.0000 0.5909370287
C   C31       1.0  0.59778  0.87168  0.75000  1.0000 0.6108960314
C   C32       1.0  0.66862  0.80084  0.75000  1.0000 -0.0282425983
C   C33       1.0  0.40498  0.96740  0.75000  1.0000 0.6108960314
C   C34       1.0  0.33261  0.97063  0.75000  1.0000 -0.0368397767
C   C35       1.0  0.19755  0.97665  0.75000  1.0000 -0.0282425983
C   C36       1.0  0.12519  0.97987  0.75000  1.0000 0.5909370287
C   C37       1.0  0.12832  0.40222  0.25000  1.0000 0.6108960314
C   C38       1.0  0.19916  0.33138  0.25000  1.0000 -0.0282425983
C   C39       1.0  0.03260  0.59502  0.25000  1.0000 0.6108960314
C   C40       1.0  0.02937  0.66739  0.25000  1.0000 -0.0368397767
C   C41       1.0  0.02335  0.80245  0.25000  1.0000 -0.0282425983
C   C42       1.0  0.02013  0.87481  0.25000  1.0000 0.5909370287
C   C43       1.0  0.87168  0.59778  0.75000  1.0000 0.6108960314
C   C44       1.0  0.80084  0.66862  0.75000  1.0000 -0.0282425983
C   C45       1.0  0.96740  0.40498  0.75000  1.0000 0.6108960314
C   C46       1.0  0.97063  0.33261  0.75000  1.0000 -0.0368397767
C   C47       1.0  0.97665  0.19755  0.75000  1.0000 -0.0282425983
C   C48       1.0  0.97987  0.12519  0.75000  1.0000 0.5909370287
O   O1        1.0  0.43173  0.09881  0.08944  1.0000 -0.5364599722
O   O2        1.0  0.56488  0.03394  0.08944  1.0000 -0.5341094779
O   O3        1.0  0.90496  0.01878  0.08944  1.0000 -0.4799251417
O   O4        1.0  0.56827  0.90119  0.58944  1.0000 -0.5364599722
O   O5        1.0  0.43512  0.96606  0.58944  1.0000 -0.5341094779
O   O6        1.0  0.09504  0.98122  0.58944  1.0000 -0.4799251417
O   O7        1.0  0.09881  0.43173  0.41056  1.0000 -0.5364599722
O   O8        1.0  0.03394  0.56488  0.41056  1.0000 -0.5341094779
O   O9        1.0  0.01878  0.90496  0.41056  1.0000 -0.4799251417
O   O10       1.0  0.90119  0.56827  0.91056  1.0000 -0.5364599722
O   O11       1.0  0.96606  0.43512  0.91056  1.0000 -0.5341094779
O   O12       1.0  0.98122  0.09504  0.91056  1.0000 -0.4799251417
O   O13       1.0  0.56827  0.90119  0.91056  1.0000 -0.5364599722
O   O14       1.0  0.43512  0.96606  0.91056  1.0000 -0.5341094779
O   O15       1.0  0.09504  0.98122  0.91056  1.0000 -0.4799251417
O   O16       1.0  0.43173  0.09881  0.41056  1.0000 -0.5364599722
O   O17       1.0  0.56488  0.03394  0.41056  1.0000 -0.5341094779
O   O18       1.0  0.90496  0.01878  0.41056  1.0000 -0.4799251417
O   O19       1.0  0.90119  0.56827  0.58944  1.0000 -0.5364599722
O   O20       1.0  0.96606  0.43512  0.58944  1.0000 -0.5341094779
O   O21       1.0  0.98122  0.09504  0.58944  1.0000 -0.4799251417
O   O22       1.0  0.09881  0.43173  0.08944  1.0000 -0.5364599722
O   O23       1.0  0.03394  0.56488  0.08944  1.0000 -0.5341094779
O   O24       1.0  0.01878  0.90496  0.08944  1.0000 -0.4799251417
O   O25       1.0  0.50000  0.95400  0.25000  1.0000 -0.9048149781
O   O26       1.0  0.50000  0.04600  0.75000  1.0000 -0.9048149781
O   O27       1.0  0.95400  0.50000  0.25000  1.0000 -0.9048149781
O   O28       1.0  0.04600  0.50000  0.75000  1.0000 -0.9048149781
O   O29       1.0  0.02563  0.02563  0.25000  1.0000 -0.6101636784
O   O30       1.0  0.97437  0.97437  0.75000  1.0000 -0.6101636784
