# DDEC6 charges by PACMAN v1.1 (https://github.com/mtap-research/PACMAN-charge/)
data_2008[Cd][pcu]3[ASR]2
_chemical_formula_sum              "Cd8 H128 C148 N24 O36"
_cell_length_a       16.893
_cell_length_b       16.155
_cell_length_c       20.514
_cell_angle_alpha    90
_cell_angle_beta     110.628
_cell_angle_gamma    90

_symmetry_space_group_name_H-M    "P 1"
_symmetry_Int_Tables_number       1

loop_
  _symmetry_equiv_pos_as_xyz
  'x, y, z'

loop_
  _atom_site_type_symbol
  _atom_site_label
  _atom_site_symmetry_multiplicity
  _atom_site_fract_x
  _atom_site_fract_y
  _atom_site_fract_z
  _atom_site_occupancy
  _atom_site_charge
Cd  Cd1       1.0  0.25336  0.91792  0.25552  1.0000 0.9935371739
Cd  Cd2       1.0  0.74664  0.41792  0.24448  1.0000 0.9935371739
Cd  Cd3       1.0  0.17751  0.98509  0.06599  1.0000 0.9257766616
Cd  Cd4       1.0  0.82249  0.48509  0.43401  1.0000 0.9257766616
Cd  Cd5       1.0  0.74664  0.08208  0.74448  1.0000 0.9935371739
Cd  Cd6       1.0  0.25336  0.58208  0.75552  1.0000 0.9935371739
Cd  Cd7       1.0  0.82249  0.01491  0.93401  1.0000 0.9257766616
Cd  Cd8       1.0  0.17751  0.51491  0.56599  1.0000 0.9257766616
H   H1        1.0  0.14590  0.84730  0.13380  1.0000 0.3823638422
H   H2        1.0  0.85410  0.34730  0.36620  1.0000 0.3823638422
H   H3        1.0  0.23790  0.83660  0.13310  1.0000 0.3907953364
H   H4        1.0  0.76210  0.33660  0.36690  1.0000 0.3907953364
H   H5        1.0  0.16940  0.95400  0.36470  1.0000 0.1115129439
H   H6        1.0  0.83060  0.45400  0.13530  1.0000 0.1115129439
H   H7        1.0  0.17720  0.03590  0.45710  1.0000 0.1397903846
H   H8        1.0  0.82280  0.53590  0.04290  1.0000 0.1397903846
H   H9        1.0  0.40570  0.10000  0.47320  1.0000 0.1397903846
H   H10       1.0  0.59430  0.60000  0.02680  1.0000 0.1397903846
H   H11       1.0  0.39430  0.02470  0.37940  1.0000 0.1115129439
H   H12       1.0  0.60570  0.52470  0.12060  1.0000 0.1115129439
H   H13       1.0  0.10410  0.17460  0.49660  1.0000 0.1590934408
H   H14       1.0  0.89590  0.67460  0.00340  1.0000 0.1590934408
H   H15       1.0  0.14690  0.19700  0.44240  1.0000 0.1397903846
H   H16       1.0  0.85310  0.69700  0.05760  1.0000 0.1397903846
H   H17       1.0  0.13680  0.26480  0.49350  1.0000 0.1397903846
H   H18       1.0  0.86320  0.76480  0.00650  1.0000 0.1397903846
H   H19       1.0  0.47690  0.10770  0.67410  1.0000 0.1590934408
H   H20       1.0  0.52310  0.60770  0.82590  1.0000 0.1590934408
H   H21       1.0  0.47760  0.11100  0.59790  1.0000 0.1397903846
H   H22       1.0  0.52240  0.61100  0.90210  1.0000 0.1397903846
H   H23       1.0  0.43770  0.03480  0.62240  1.0000 0.1397903846
H   H24       1.0  0.56230  0.53480  0.87760  1.0000 0.1397903846
H   H25       1.0  0.16470  0.29150  0.60020  1.0000 0.1276530996
H   H26       1.0  0.83530  0.79150  0.89980  1.0000 0.1276530996
H   H27       1.0  0.24750  0.31050  0.66400  1.0000 0.1276530996
H   H28       1.0  0.75250  0.81050  0.83600  1.0000 0.1276530996
H   H29       1.0  0.32010  0.27140  0.79520  1.0000 0.1590934408
H   H30       1.0  0.67990  0.77140  0.70480  1.0000 0.1590934408
H   H31       1.0  0.27690  0.25290  0.84990  1.0000 0.1397903846
H   H32       1.0  0.72310  0.75290  0.65010  1.0000 0.1397903846
H   H33       1.0  0.24420  0.32600  0.79690  1.0000 0.1497818076
H   H34       1.0  0.75580  0.82600  0.70310  1.0000 0.1497818076
H   H35       1.0  0.98670  0.08120  0.70070  1.0000 0.1397903846
H   H36       1.0  0.01330  0.58120  0.79930  1.0000 0.1397903846
H   H37       1.0  0.05360  0.00950  0.71890  1.0000 0.1497818076
H   H38       1.0  0.94640  0.50950  0.78110  1.0000 0.1497818076
H   H39       1.0  0.01110  0.03900  0.64150  1.0000 0.1497818076
H   H40       1.0  0.98890  0.53900  0.85850  1.0000 0.1497818076
H   H41       1.0  0.28480  0.14200  0.89340  1.0000 0.1276530996
H   H42       1.0  0.71520  0.64200  0.60660  1.0000 0.1276530996
H   H43       1.0  0.28650  0.08090  0.99480  1.0000 0.1115129439
H   H44       1.0  0.71350  0.58090  0.50520  1.0000 0.1115129439
H   H45       1.0  0.04340  0.06680  0.91910  1.0000 0.1115129439
H   H46       1.0  0.95660  0.56680  0.58090  1.0000 0.1115129439
H   H47       1.0  0.03510  0.09680  0.80710  1.0000 0.1194389036
H   H48       1.0  0.96490  0.59680  0.69290  1.0000 0.1194389036
H   H49       1.0  0.98620  0.67860  0.16670  1.0000 0.1194389036
H   H50       1.0  0.01380  0.17860  0.33333  1.0000 0.1194389036
H   H51       1.0  0.90190  0.59520  0.20500  1.0000 0.1194389036
H   H52       1.0  0.09810  0.09520  0.29500  1.0000 0.1194389036
H   H53       1.0  0.02280  0.67000  0.39880  1.0000 0.1194389036
H   H54       1.0  0.97720  0.17000  0.10120  1.0000 0.1194389036
H   H55       1.0  0.09130  0.76790  0.36000  1.0000 0.1194389036
H   H56       1.0  0.90870  0.26790  0.14000  1.0000 0.1194389036
H   H57       1.0  0.46900  0.08010  0.30500  1.0000 0.1194389036
H   H58       1.0  0.53100  0.58010  0.19500  1.0000 0.1194389036
H   H59       1.0  0.58420  0.16790  0.33900  1.0000 0.1194389036
H   H60       1.0  0.41580  0.66790  0.16100  1.0000 0.1194389036
H   H61       1.0  0.52700  0.22980  0.13700  1.0000 0.1194389036
H   H62       1.0  0.47300  0.72980  0.36300  1.0000 0.1194389036
H   H63       1.0  0.41640  0.13740  0.10560  1.0000 0.1194389036
H   H64       1.0  0.58360  0.63740  0.39440  1.0000 0.1194389036
H   H65       1.0  0.85410  0.15270  0.86620  1.0000 0.3823638422
H   H66       1.0  0.14590  0.65270  0.63380  1.0000 0.3823638422
H   H67       1.0  0.76210  0.16340  0.86690  1.0000 0.3907953364
H   H68       1.0  0.23790  0.66340  0.63310  1.0000 0.3907953364
H   H69       1.0  0.83060  0.04600  0.63530  1.0000 0.1115129439
H   H70       1.0  0.16940  0.54600  0.86470  1.0000 0.1115129439
H   H71       1.0  0.82280  0.96410  0.54290  1.0000 0.1397903846
H   H72       1.0  0.17720  0.46410  0.95710  1.0000 0.1397903846
H   H73       1.0  0.59430  0.90000  0.52680  1.0000 0.1397903846
H   H74       1.0  0.40570  0.40000  0.97320  1.0000 0.1397903846
H   H75       1.0  0.60570  0.97530  0.62060  1.0000 0.1115129439
H   H76       1.0  0.39430  0.47530  0.87940  1.0000 0.1115129439
H   H77       1.0  0.89590  0.82540  0.50340  1.0000 0.1590934408
H   H78       1.0  0.10410  0.32540  0.99660  1.0000 0.1590934408
H   H79       1.0  0.85310  0.80300  0.55760  1.0000 0.1397903846
H   H80       1.0  0.14690  0.30300  0.94240  1.0000 0.1397903846
H   H81       1.0  0.86320  0.73520  0.50650  1.0000 0.1397903846
H   H82       1.0  0.13680  0.23520  0.99350  1.0000 0.1397903846
H   H83       1.0  0.52310  0.89230  0.32590  1.0000 0.1590934408
H   H84       1.0  0.47690  0.39230  0.17410  1.0000 0.1590934408
H   H85       1.0  0.52240  0.88900  0.40210  1.0000 0.1397903846
H   H86       1.0  0.47760  0.38900  0.09790  1.0000 0.1397903846
H   H87       1.0  0.56230  0.96520  0.37760  1.0000 0.1397903846
H   H88       1.0  0.43770  0.46520  0.12240  1.0000 0.1397903846
H   H89       1.0  0.83530  0.70850  0.39980  1.0000 0.1276530996
H   H90       1.0  0.16470  0.20850  0.10020  1.0000 0.1276530996
H   H91       1.0  0.75250  0.68950  0.33600  1.0000 0.1276530996
H   H92       1.0  0.24750  0.18950  0.16400  1.0000 0.1276530996
H   H93       1.0  0.67990  0.72860  0.20480  1.0000 0.1590934408
H   H94       1.0  0.32010  0.22860  0.29520  1.0000 0.1590934408
H   H95       1.0  0.72310  0.74710  0.15010  1.0000 0.1397903846
H   H96       1.0  0.27690  0.24710  0.34990  1.0000 0.1397903846
H   H97       1.0  0.75580  0.67400  0.20310  1.0000 0.1497818076
H   H98       1.0  0.24420  0.17400  0.29690  1.0000 0.1497818076
H   H99       1.0  0.01330  0.91880  0.29930  1.0000 0.1397903846
H   H100      1.0  0.98670  0.41880  0.20070  1.0000 0.1397903846
H   H101      1.0  0.94640  0.99050  0.28110  1.0000 0.1497818076
H   H102      1.0  0.05360  0.49050  0.21890  1.0000 0.1497818076
H   H103      1.0  0.98890  0.96100  0.35850  1.0000 0.1497818076
H   H104      1.0  0.01110  0.46100  0.14150  1.0000 0.1497818076
H   H105      1.0  0.71520  0.85800  0.10660  1.0000 0.1276530996
H   H106      1.0  0.28480  0.35800  0.39340  1.0000 0.1276530996
H   H107      1.0  0.71350  0.91910  0.00520  1.0000 0.1115129439
H   H108      1.0  0.28650  0.41910  0.49480  1.0000 0.1115129439
H   H109      1.0  0.95660  0.93320  0.08090  1.0000 0.1115129439
H   H110      1.0  0.04340  0.43320  0.41910  1.0000 0.1115129439
H   H111      1.0  0.96490  0.90320  0.19290  1.0000 0.1194389036
H   H112      1.0  0.03510  0.40320  0.30710  1.0000 0.1194389036
H   H113      1.0  0.01380  0.32140  0.83330  1.0000 0.1194389036
H   H114      1.0  0.98620  0.82140  0.66667  1.0000 0.1194389036
H   H115      1.0  0.09810  0.40480  0.79500  1.0000 0.1194389036
H   H116      1.0  0.90190  0.90480  0.70500  1.0000 0.1194389036
H   H117      1.0  0.97720  0.33000  0.60120  1.0000 0.1194389036
H   H118      1.0  0.02280  0.83000  0.89880  1.0000 0.1194389036
H   H119      1.0  0.90870  0.23210  0.64000  1.0000 0.1194389036
H   H120      1.0  0.09130  0.73210  0.86000  1.0000 0.1194389036
H   H121      1.0  0.53100  0.91990  0.69500  1.0000 0.1194389036
H   H122      1.0  0.46900  0.41990  0.80500  1.0000 0.1194389036
H   H123      1.0  0.41580  0.83210  0.66100  1.0000 0.1194389036
H   H124      1.0  0.58420  0.33210  0.83900  1.0000 0.1194389036
H   H125      1.0  0.47300  0.77020  0.86300  1.0000 0.1194389036
H   H126      1.0  0.52700  0.27020  0.63700  1.0000 0.1194389036
H   H127      1.0  0.58360  0.86260  0.89440  1.0000 0.1194389036
H   H128      1.0  0.41640  0.36260  0.60560  1.0000 0.1194389036
C   C1        1.0  0.21850  0.98440  0.38600  1.0000 0.1115129439
C   C2        1.0  0.78150  0.48440  0.11400  1.0000 0.1115129439
C   C3        1.0  0.22320  0.03470  0.44210  1.0000 -0.2172774288
C   C4        1.0  0.77680  0.53470  0.05790  1.0000 -0.2172774288
C   C5        1.0  0.29070  0.08170  0.47570  1.0000 0.1397903846
C   C6        1.0  0.70930  0.58170  0.02430  1.0000 0.1397903846
C   C7        1.0  0.35520  0.07230  0.45070  1.0000 -0.192023371
C   C8        1.0  0.64480  0.57230  0.04930  1.0000 -0.192023371
C   C9        1.0  0.34940  0.02550  0.39570  1.0000 0.0241010872
C   C10       1.0  0.65060  0.52550  0.10430  1.0000 0.0241010872
C   C11       1.0  0.29490  0.13260  0.53380  1.0000 -0.1729190486
C   C12       1.0  0.70510  0.63260  0.96620  1.0000 -0.1729190486
C   C13       1.0  0.23180  0.18400  0.54050  1.0000 0.1497818076
C   C14       1.0  0.76820  0.68400  0.95950  1.0000 0.1497818076
C   C15       1.0  0.14730  0.20700  0.48860  1.0000 -0.4906202319
C   C16       1.0  0.85270  0.70700  0.01140  1.0000 -0.4906202319
C   C17       1.0  0.35720  0.13870  0.60140  1.0000 0.2369926547
C   C18       1.0  0.64280  0.63870  0.89860  1.0000 0.2369926547
C   C19       1.0  0.44610  0.09360  0.62640  1.0000 -0.4704231533
C   C20       1.0  0.55390  0.59360  0.87360  1.0000 -0.4704231533
C   C21       1.0  0.21200  0.26660  0.63700  1.0000 -0.0790152621
C   C22       1.0  0.78800  0.76660  0.86300  1.0000 -0.0790152621
C   C23       1.0  0.20630  0.21300  0.75200  1.0000 0.1700989542
C   C24       1.0  0.79370  0.71300  0.74800  1.0000 0.1700989542
C   C25       1.0  0.26750  0.27110  0.80320  1.0000 -0.4975517305
C   C26       1.0  0.73250  0.77110  0.69680  1.0000 -0.4975517305
C   C27       1.0  0.15800  0.15070  0.77070  1.0000 -0.1359603803
C   C28       1.0  0.84200  0.65070  0.72930  1.0000 -0.1359603803
C   C29       1.0  0.10440  0.12160  0.70050  1.0000 0.2564073962
C   C30       1.0  0.89560  0.62160  0.79950  1.0000 0.2564073962
C   C31       1.0  0.03200  0.05700  0.68930  1.0000 -0.4906202319
C   C32       1.0  0.96800  0.55700  0.81070  1.0000 -0.4906202319
C   C33       1.0  0.16050  0.12340  0.83510  1.0000 0.1397903846
C   C34       1.0  0.83950  0.62340  0.66490  1.0000 0.1397903846
C   C35       1.0  0.23480  0.12030  0.89560  1.0000 -0.192023371
C   C36       1.0  0.76520  0.62030  0.60440  1.0000 -0.192023371
C   C37       1.0  0.23550  0.08630  0.95800  1.0000 0.0527685194
C   C38       1.0  0.76450  0.58630  0.54200  1.0000 0.0527685194
C   C39       1.0  0.09400  0.07420  0.91140  1.0000 0.0761340049
C   C40       1.0  0.90600  0.57420  0.58860  1.0000 0.0761340049
C   C41       1.0  0.08660  0.09800  0.84390  1.0000 -0.1797463137
C   C42       1.0  0.91340  0.59800  0.65610  1.0000 -0.1797463137
C   C43       1.0  0.10130  0.79240  0.23130  1.0000 0.5604053599
C   C44       1.0  0.89870  0.29240  0.26870  1.0000 0.5604053599
C   C45       1.0  0.05010  0.73320  0.25880  1.0000 -0.0176836026
C   C46       1.0  0.94990  0.23320  0.24120  1.0000 -0.0176836026
C   C47       1.0  0.99190  0.67960  0.21350  1.0000 -0.1209763407
C   C48       1.0  0.00810  0.17960  0.28650  1.0000 -0.1209763407
C   C49       1.0  0.94260  0.62810  0.23680  1.0000 -0.1209763407
C   C50       1.0  0.05740  0.12810  0.26320  1.0000 -0.1209763407
C   C51       1.0  0.95250  0.62430  0.30680  1.0000 -0.0360643777
C   C52       1.0  0.04750  0.12430  0.19320  1.0000 -0.0360643777
C   C53       1.0  0.01200  0.67400  0.35130  1.0000 -0.1116623177
C   C54       1.0  0.98800  0.17400  0.14870  1.0000 -0.1116623177
C   C55       1.0  0.05620  0.73040  0.32850  1.0000 -0.0991625466
C   C56       1.0  0.94380  0.23040  0.17150  1.0000 -0.0991625466
C   C57       1.0  0.90010  0.56370  0.33040  1.0000 0.571747565
C   C58       1.0  0.09990  0.06370  0.16960  1.0000 0.571747565
C   C59       1.0  0.34990  0.04410  0.18470  1.0000 0.571747565
C   C60       1.0  0.65010  0.54410  0.31530  1.0000 0.571747565
C   C61       1.0  0.42940  0.10030  0.20450  1.0000 -0.0176836026
C   C62       1.0  0.57060  0.60030  0.29550  1.0000 -0.0176836026
C   C63       1.0  0.48090  0.11030  0.27100  1.0000 -0.1116623177
C   C64       1.0  0.51910  0.61030  0.22900  1.0000 -0.1116623177
C   C65       1.0  0.55020  0.16210  0.29250  1.0000 -0.0991625466
C   C66       1.0  0.44980  0.66210  0.20750  1.0000 -0.0991625466
C   C67       1.0  0.56610  0.20770  0.23600  1.0000 -0.0124890941
C   C68       1.0  0.43390  0.70770  0.26400  1.0000 -0.0124890941
C   C69       1.0  0.63990  0.26990  0.26140  1.0000 0.5802890372
C   C70       1.0  0.36010  0.76990  0.23860  1.0000 0.5802890372
C   C71       1.0  0.51660  0.19880  0.17130  1.0000 -0.0790152621
C   C72       1.0  0.48340  0.69880  0.32870  1.0000 -0.0790152621
C   C73       1.0  0.44900  0.14480  0.15240  1.0000 -0.1116623177
C   C74       1.0  0.55100  0.64480  0.34760  1.0000 -0.1116623177
C   C75       1.0  0.78150  0.01560  0.61400  1.0000 0.1115129439
C   C76       1.0  0.21850  0.51560  0.88600  1.0000 0.1115129439
C   C77       1.0  0.77680  0.96530  0.55790  1.0000 -0.2172774288
C   C78       1.0  0.22320  0.46530  0.94210  1.0000 -0.2172774288
C   C79       1.0  0.70930  0.91830  0.52430  1.0000 0.1397903846
C   C80       1.0  0.29070  0.41830  0.97570  1.0000 0.1397903846
C   C81       1.0  0.64480  0.92770  0.54930  1.0000 -0.192023371
C   C82       1.0  0.35520  0.42770  0.95070  1.0000 -0.192023371
C   C83       1.0  0.65060  0.97450  0.60430  1.0000 0.0241010872
C   C84       1.0  0.34940  0.47450  0.89570  1.0000 0.0241010872
C   C85       1.0  0.70510  0.86740  0.46620  1.0000 -0.1729190486
C   C86       1.0  0.29490  0.36740  0.03380  1.0000 -0.1729190486
C   C87       1.0  0.76820  0.81600  0.45950  1.0000 0.1497818076
C   C88       1.0  0.23180  0.31600  0.04050  1.0000 0.1497818076
C   C89       1.0  0.85270  0.79300  0.51140  1.0000 -0.4906202319
C   C90       1.0  0.14730  0.29300  0.98860  1.0000 -0.4906202319
C   C91       1.0  0.64280  0.86130  0.39860  1.0000 0.2369926547
C   C92       1.0  0.35720  0.36130  0.10140  1.0000 0.2369926547
C   C93       1.0  0.55390  0.90640  0.37360  1.0000 -0.4704231533
C   C94       1.0  0.44610  0.40640  0.12640  1.0000 -0.4704231533
C   C95       1.0  0.78800  0.73340  0.36300  1.0000 -0.0790152621
C   C96       1.0  0.21200  0.23340  0.13700  1.0000 -0.0790152621
C   C97       1.0  0.79370  0.78700  0.24800  1.0000 0.1700989542
C   C98       1.0  0.20630  0.28700  0.25200  1.0000 0.1700989542
C   C99       1.0  0.73250  0.72890  0.19680  1.0000 -0.4975517305
C   C100      1.0  0.26750  0.22890  0.30320  1.0000 -0.4975517305
C   C101      1.0  0.84200  0.84930  0.22930  1.0000 -0.1359603803
C   C102      1.0  0.15800  0.34930  0.27070  1.0000 -0.1359603803
C   C103      1.0  0.89560  0.87840  0.29950  1.0000 0.2564073962
C   C104      1.0  0.10440  0.37840  0.20050  1.0000 0.2564073962
C   C105      1.0  0.96800  0.94300  0.31070  1.0000 -0.4906202319
C   C106      1.0  0.03200  0.44300  0.18930  1.0000 -0.4906202319
C   C107      1.0  0.83950  0.87660  0.16490  1.0000 0.1397903846
C   C108      1.0  0.16050  0.37660  0.33510  1.0000 0.1397903846
C   C109      1.0  0.76520  0.87970  0.10440  1.0000 -0.192023371
C   C110      1.0  0.23480  0.37970  0.39560  1.0000 -0.192023371
C   C111      1.0  0.76450  0.91370  0.04200  1.0000 0.0527685194
C   C112      1.0  0.23550  0.41370  0.45800  1.0000 0.0527685194
C   C113      1.0  0.90600  0.92580  0.08860  1.0000 0.0761340049
C   C114      1.0  0.09400  0.42580  0.41140  1.0000 0.0761340049
C   C115      1.0  0.91340  0.90200  0.15610  1.0000 -0.1797463137
C   C116      1.0  0.08660  0.40200  0.34390  1.0000 -0.1797463137
C   C117      1.0  0.89870  0.20760  0.76870  1.0000 0.5604053599
C   C118      1.0  0.10130  0.70760  0.73130  1.0000 0.5604053599
C   C119      1.0  0.94990  0.26680  0.74120  1.0000 -0.0176836026
C   C120      1.0  0.05010  0.76680  0.75880  1.0000 -0.0176836026
C   C121      1.0  0.00810  0.32040  0.78650  1.0000 -0.1209763407
C   C122      1.0  0.99190  0.82040  0.71350  1.0000 -0.1209763407
C   C123      1.0  0.05740  0.37190  0.76320  1.0000 -0.1209763407
C   C124      1.0  0.94260  0.87190  0.73680  1.0000 -0.1209763407
C   C125      1.0  0.04750  0.37570  0.69320  1.0000 -0.0360643777
C   C126      1.0  0.95250  0.87570  0.80680  1.0000 -0.0360643777
C   C127      1.0  0.98800  0.32600  0.64870  1.0000 -0.1116623177
C   C128      1.0  0.01200  0.82600  0.85130  1.0000 -0.1116623177
C   C129      1.0  0.94380  0.26960  0.67150  1.0000 -0.0991625466
C   C130      1.0  0.05620  0.76960  0.82850  1.0000 -0.0991625466
C   C131      1.0  0.09990  0.43630  0.66960  1.0000 0.571747565
C   C132      1.0  0.90010  0.93630  0.83040  1.0000 0.571747565
C   C133      1.0  0.65010  0.95590  0.81530  1.0000 0.571747565
C   C134      1.0  0.34990  0.45590  0.68470  1.0000 0.571747565
C   C135      1.0  0.57060  0.89970  0.79550  1.0000 -0.0176836026
C   C136      1.0  0.42940  0.39970  0.70450  1.0000 -0.0176836026
C   C137      1.0  0.51910  0.88970  0.72900  1.0000 -0.1116623177
C   C138      1.0  0.48090  0.38970  0.77100  1.0000 -0.1116623177
C   C139      1.0  0.44980  0.83790  0.70750  1.0000 -0.0991625466
C   C140      1.0  0.55020  0.33790  0.79250  1.0000 -0.0991625466
C   C141      1.0  0.43390  0.79230  0.76400  1.0000 -0.0124890941
C   C142      1.0  0.56610  0.29230  0.73600  1.0000 -0.0124890941
C   C143      1.0  0.36010  0.73010  0.73860  1.0000 0.5802890372
C   C144      1.0  0.63990  0.23010  0.76140  1.0000 0.5802890372
C   C145      1.0  0.48340  0.80120  0.82870  1.0000 -0.0790152621
C   C146      1.0  0.51660  0.30120  0.67130  1.0000 -0.0790152621
C   C147      1.0  0.55100  0.85520  0.84760  1.0000 -0.1116623177
C   C148      1.0  0.44900  0.35520  0.65240  1.0000 -0.1116623177
N   N1        1.0  0.27890  0.97820  0.36240  1.0000 -0.2335493701
N   N2        1.0  0.72110  0.47820  0.13760  1.0000 -0.2335493701
N   N3        1.0  0.25970  0.21300  0.60730  1.0000 0.0749809158
N   N4        1.0  0.74030  0.71300  0.89270  1.0000 0.0761340049
N   N5        1.0  0.33890  0.18600  0.64610  1.0000 -0.3210141199
N   N6        1.0  0.66110  0.68600  0.85390  1.0000 -0.3210141199
N   N7        1.0  0.11840  0.16140  0.65060  1.0000 -0.3061962761
N   N8        1.0  0.88160  0.66140  0.84940  1.0000 -0.3048311907
N   N9        1.0  0.18020  0.21540  0.68190  1.0000 0.0978143339
N   N10       1.0  0.81980  0.71540  0.81810  1.0000 0.0978143339
N   N11       1.0  0.16330  0.06110  0.96540  1.0000 -0.2749532002
N   N12       1.0  0.83670  0.56110  0.53460  1.0000 -0.2755843836
N   N13       1.0  0.72110  0.02180  0.63760  1.0000 -0.2335493701
N   N14       1.0  0.27890  0.52180  0.86240  1.0000 -0.2335493701
N   N15       1.0  0.74030  0.78700  0.39270  1.0000 0.0749809158
N   N16       1.0  0.25970  0.28700  0.10730  1.0000 0.0749809158
N   N17       1.0  0.66110  0.81400  0.35390  1.0000 -0.3210141199
N   N18       1.0  0.33890  0.31400  0.14610  1.0000 -0.3210141199
N   N19       1.0  0.88160  0.83860  0.34940  1.0000 -0.3061962761
N   N20       1.0  0.11840  0.33860  0.15060  1.0000 -0.3061962761
N   N21       1.0  0.81980  0.78460  0.31810  1.0000 0.0978143339
N   N22       1.0  0.18020  0.28460  0.18190  1.0000 0.0978143339
N   N23       1.0  0.83670  0.93890  0.03460  1.0000 -0.2749532002
N   N24       1.0  0.16330  0.43890  0.46540  1.0000 -0.2749532002
O   O1        1.0  0.08670  0.79120  0.16770  1.0000 -0.5471553343
O   O2        1.0  0.91330  0.29120  0.33230  1.0000 -0.5471553343
O   O3        1.0  0.15440  0.83630  0.27540  1.0000 -0.5705654534
O   O4        1.0  0.84560  0.33630  0.22460  1.0000 -0.5705654534
O   O5        1.0  0.84520  0.52360  0.28410  1.0000 -0.5705654534
O   O6        1.0  0.15480  0.02360  0.21590  1.0000 -0.5705654534
O   O7        1.0  0.90780  0.56320  0.39310  1.0000 -0.5705654534
O   O8        1.0  0.09220  0.06320  0.10690  1.0000 -0.5705654534
O   O9        1.0  0.29950  0.04910  0.12280  1.0000 -0.576742782
O   O10       1.0  0.70050  0.54910  0.37720  1.0000 -0.576742782
O   O11       1.0  0.34760  0.99780  0.23070  1.0000 -0.5329654353
O   O12       1.0  0.65240  0.49780  0.26930  1.0000 -0.5329654353
O   O13       1.0  0.67690  0.27640  0.32970  1.0000 -0.5705654534
O   O14       1.0  0.32310  0.77640  0.17030  1.0000 -0.5705654534
O   O15       1.0  0.65270  0.31190  0.21680  1.0000 -0.5329654353
O   O16       1.0  0.34730  0.81190  0.28320  1.0000 -0.5329654353
O   O17       1.0  0.19910  0.87560  0.14190  1.0000 -0.7920327472
O   O18       1.0  0.80090  0.37560  0.35810  1.0000 -0.7920327472
O   O19       1.0  0.91330  0.20880  0.83230  1.0000 -0.5471553343
O   O20       1.0  0.08670  0.70880  0.66770  1.0000 -0.5471553343
O   O21       1.0  0.84560  0.16370  0.72460  1.0000 -0.5705654534
O   O22       1.0  0.15440  0.66370  0.77540  1.0000 -0.5705654534
O   O23       1.0  0.15480  0.47640  0.71590  1.0000 -0.5705654534
O   O24       1.0  0.84520  0.97640  0.78410  1.0000 -0.5705654534
O   O25       1.0  0.09220  0.43680  0.60690  1.0000 -0.5705654534
O   O26       1.0  0.90780  0.93680  0.89310  1.0000 -0.5705654534
O   O27       1.0  0.70050  0.95090  0.87720  1.0000 -0.576742782
O   O28       1.0  0.29950  0.45090  0.62280  1.0000 -0.576742782
O   O29       1.0  0.65240  0.00220  0.76930  1.0000 -0.5329654353
O   O30       1.0  0.34760  0.50220  0.73070  1.0000 -0.5329654353
O   O31       1.0  0.32310  0.72360  0.67030  1.0000 -0.5705654534
O   O32       1.0  0.67690  0.22360  0.82970  1.0000 -0.5705654534
O   O33       1.0  0.34730  0.68810  0.78320  1.0000 -0.5329654353
O   O34       1.0  0.65270  0.18810  0.71680  1.0000 -0.5329654353
O   O35       1.0  0.80090  0.12440  0.85810  1.0000 -0.7920327472
O   O36       1.0  0.19910  0.62440  0.64190  1.0000 -0.7920327472
