# DDEC6 charges by PACMAN v1.1 (https://github.com/mtap-research/PACMAN-charge/)
data_2008[Ni][nan]3[ASR]3
_chemical_formula_sum              "Ni6 H6 C24 O18"
_cell_length_a       15.0551
_cell_length_b       15.0551
_cell_length_c       15.0551
_cell_angle_alpha    117.809
_cell_angle_beta     117.809
_cell_angle_gamma    117.809

_symmetry_space_group_name_H-M    "P 1"
_symmetry_Int_Tables_number       1

loop_
  _symmetry_equiv_pos_as_xyz
  'x, y, z'

loop_
  _atom_site_type_symbol
  _atom_site_label
  _atom_site_symmetry_multiplicity
  _atom_site_fract_x
  _atom_site_fract_y
  _atom_site_fract_z
  _atom_site_occupancy
  _atom_site_charge
Ni  Ni1       1.0  0.61675  0.02784  0.29611  1.0000 0.871721973
Ni  Ni2       1.0  0.02784  0.29611  0.61675  1.0000 0.871721973
Ni  Ni3       1.0  0.29611  0.61675  0.02784  1.0000 0.871721973
Ni  Ni4       1.0  0.38325  0.97216  0.70389  1.0000 0.871721973
Ni  Ni5       1.0  0.97216  0.70389  0.38325  1.0000 0.871721973
Ni  Ni6       1.0  0.70389  0.38325  0.97216  1.0000 0.871721973
H   H1        1.0  0.30181  0.85898  0.83896  1.0000 0.1562004288
H   H2        1.0  0.85898  0.83896  0.30181  1.0000 0.1562004288
H   H3        1.0  0.83896  0.30181  0.85898  1.0000 0.1562004288
H   H4        1.0  0.69819  0.14102  0.16104  1.0000 0.1562004288
H   H5        1.0  0.14102  0.16104  0.69819  1.0000 0.1562004288
H   H6        1.0  0.16104  0.69819  0.14102  1.0000 0.1562004288
C   C1        1.0  0.24460  0.67030  0.85040  1.0000 0.6119147738
C   C2        1.0  0.67030  0.85040  0.24460  1.0000 0.6119147738
C   C3        1.0  0.85040  0.24460  0.67030  1.0000 0.6119147738
C   C4        1.0  0.75540  0.32970  0.14960  1.0000 0.6119147738
C   C5        1.0  0.32970  0.14960  0.75540  1.0000 0.6119147738
C   C6        1.0  0.14960  0.75540  0.32970  1.0000 0.6119147738
C   C7        1.0  0.11260  0.57950  0.66850  1.0000 -0.153207615
C   C8        1.0  0.57950  0.66850  0.11260  1.0000 -0.153207615
C   C9        1.0  0.66850  0.11260  0.57950  1.0000 -0.153207615
C   C10       1.0  0.88740  0.42050  0.33150  1.0000 -0.153207615
C   C11       1.0  0.42050  0.33150  0.88740  1.0000 -0.153207615
C   C12       1.0  0.33150  0.88740  0.42050  1.0000 -0.153207615
C   C13       1.0  0.92380  0.36020  0.46370  1.0000 0.3059527576
C   C14       1.0  0.36020  0.46370  0.92380  1.0000 0.3059527576
C   C15       1.0  0.46370  0.92380  0.36020  1.0000 0.3059527576
C   C16       1.0  0.07620  0.63980  0.53630  1.0000 0.3059527576
C   C17       1.0  0.63980  0.53630  0.07620  1.0000 0.3059527576
C   C18       1.0  0.53630  0.07620  0.63980  1.0000 0.3059527576
C   C19       1.0  0.17800  0.71150  0.70150  1.0000 -0.1886532555
C   C20       1.0  0.71150  0.70150  0.17800  1.0000 -0.1886532555
C   C21       1.0  0.70150  0.17800  0.71150  1.0000 -0.1886532555
C   C22       1.0  0.82200  0.28850  0.29850  1.0000 -0.1886532555
C   C23       1.0  0.28850  0.29850  0.82200  1.0000 -0.1886532555
C   C24       1.0  0.29850  0.82200  0.28850  1.0000 -0.1886532555
O   O1        1.0  0.40390  0.87120  0.03140  1.0000 -0.5258460144
O   O2        1.0  0.87120  0.03140  0.40390  1.0000 -0.5258460144
O   O3        1.0  0.03140  0.40390  0.87120  1.0000 -0.5258460144
O   O4        1.0  0.59610  0.12880  0.96860  1.0000 -0.5258460144
O   O5        1.0  0.12880  0.96860  0.59610  1.0000 -0.5258460144
O   O6        1.0  0.96860  0.59610  0.12880  1.0000 -0.5258460144
O   O7        1.0  0.21380  0.58350  0.85430  1.0000 -0.5017306308
O   O8        1.0  0.58350  0.85430  0.21380  1.0000 -0.5017306308
O   O9        1.0  0.85430  0.21380  0.58350  1.0000 -0.5017306308
O   O10       1.0  0.78620  0.41650  0.14570  1.0000 -0.5017306308
O   O11       1.0  0.41650  0.14570  0.78620  1.0000 -0.5017306308
O   O12       1.0  0.14570  0.78620  0.41650  1.0000 -0.5017306308
O   O13       1.0  0.86550  0.22740  0.42020  1.0000 -0.5763524175
O   O14       1.0  0.22740  0.42020  0.86550  1.0000 -0.5763524175
O   O15       1.0  0.42020  0.86550  0.22740  1.0000 -0.5763524175
O   O16       1.0  0.13450  0.77260  0.57980  1.0000 -0.5763524175
O   O17       1.0  0.77260  0.57980  0.13450  1.0000 -0.5763524175
O   O18       1.0  0.57980  0.13450  0.77260  1.0000 -0.5763524175
