# DDEC6 charges by PACMAN v1.1 (https://github.com/mtap-research/PACMAN-charge/)
data_2008[Zn][srs]3[ASR]6
_chemical_formula_sum              "Zn24 H192 C288 I48 N96"
_cell_length_a       13.817
_cell_length_b       27.749
_cell_length_c       44.362
_cell_angle_alpha    90
_cell_angle_beta     90
_cell_angle_gamma    90

_symmetry_space_group_name_H-M    "P 1"
_symmetry_Int_Tables_number       1

loop_
  _symmetry_equiv_pos_as_xyz
  'x, y, z'

loop_
  _atom_site_type_symbol
  _atom_site_label
  _atom_site_symmetry_multiplicity
  _atom_site_fract_x
  _atom_site_fract_y
  _atom_site_fract_z
  _atom_site_occupancy
  _atom_site_charge
Zn  Zn1       1.0  0.62223  0.97543  0.58484  1.0000 0.4611887491
Zn  Zn2       1.0  0.37777  0.52457  0.08484  1.0000 0.4611887491
Zn  Zn3       1.0  0.12223  0.02457  0.91516  1.0000 0.4611887491
Zn  Zn4       1.0  0.87777  0.47543  0.41516  1.0000 0.4611887491
Zn  Zn5       1.0  0.85641  0.95265  0.41386  1.0000 0.454629633
Zn  Zn6       1.0  0.14359  0.54735  0.91386  1.0000 0.454629633
Zn  Zn7       1.0  0.35641  0.04735  0.08614  1.0000 0.4611887491
Zn  Zn8       1.0  0.64359  0.45265  0.58614  1.0000 0.4611887491
Zn  Zn9       1.0  0.81829  0.76049  0.68106  1.0000 0.4707610092
Zn  Zn10      1.0  0.18171  0.73951  0.18106  1.0000 0.4707610092
Zn  Zn11      1.0  0.31829  0.23951  0.81894  1.0000 0.4707610092
Zn  Zn12      1.0  0.68171  0.26049  0.31894  1.0000 0.4707610092
Zn  Zn13      1.0  0.37777  0.02457  0.41516  1.0000 0.4707610092
Zn  Zn14      1.0  0.62223  0.47543  0.91516  1.0000 0.4707610092
Zn  Zn15      1.0  0.87777  0.97543  0.08484  1.0000 0.4611887491
Zn  Zn16      1.0  0.12223  0.52457  0.58484  1.0000 0.4611887491
Zn  Zn17      1.0  0.14359  0.04735  0.58614  1.0000 0.454629633
Zn  Zn18      1.0  0.85641  0.45265  0.08614  1.0000 0.454629633
Zn  Zn19      1.0  0.64359  0.95265  0.91386  1.0000 0.454629633
Zn  Zn20      1.0  0.35641  0.54735  0.41386  1.0000 0.454629633
Zn  Zn21      1.0  0.18171  0.23951  0.31894  1.0000 0.4707610092
Zn  Zn22      1.0  0.81829  0.26049  0.81894  1.0000 0.4707610092
Zn  Zn23      1.0  0.68171  0.76049  0.18106  1.0000 0.4707610092
Zn  Zn24      1.0  0.31829  0.73951  0.68106  1.0000 0.4707610092
H   H1        1.0  0.02720  0.78990  0.66960  1.0000 0.1097540803
H   H2        1.0  0.97280  0.71010  0.16960  1.0000 0.1097540803
H   H3        1.0  0.52720  0.21010  0.83040  1.0000 0.1097540803
H   H4        1.0  0.47280  0.28990  0.33040  1.0000 0.1097540803
H   H5        1.0  0.11780  0.82890  0.63280  1.0000 0.132083069
H   H6        1.0  0.88220  0.67110  0.13280  1.0000 0.132083069
H   H7        1.0  0.61780  0.17110  0.86720  1.0000 0.132083069
H   H8        1.0  0.38220  0.32890  0.36720  1.0000 0.132083069
H   H9        1.0  0.78840  0.81120  0.62380  1.0000 0.1097540803
H   H10       1.0  0.21160  0.68880  0.12380  1.0000 0.1097540803
H   H11       1.0  0.28840  0.18880  0.87620  1.0000 0.1097540803
H   H12       1.0  0.71160  0.31120  0.37620  1.0000 0.1097540803
H   H13       1.0  0.87210  0.84940  0.58570  1.0000 0.132083069
H   H14       1.0  0.12790  0.65060  0.08570  1.0000 0.132083069
H   H15       1.0  0.37210  0.15060  0.91430  1.0000 0.132083069
H   H16       1.0  0.62790  0.34940  0.41430  1.0000 0.132083069
H   H17       1.0  0.79970  0.92300  0.47700  1.0000 0.1097540803
H   H18       1.0  0.20030  0.57700  0.97700  1.0000 0.1097540803
H   H19       1.0  0.29970  0.07700  0.02300  1.0000 0.1097540803
H   H20       1.0  0.70030  0.42300  0.52300  1.0000 0.1097540803
H   H21       1.0  0.87470  0.90170  0.52200  1.0000 0.1375020581
H   H22       1.0  0.12530  0.59830  0.02200  1.0000 0.1375020581
H   H23       1.0  0.37470  0.09830  0.97800  1.0000 0.1375020581
H   H24       1.0  0.62530  0.40170  0.47800  1.0000 0.1375020581
H   H25       1.0  0.04660  0.97150  0.44400  1.0000 0.1097540803
H   H26       1.0  0.95340  0.52850  0.94400  1.0000 0.1097540803
H   H27       1.0  0.54660  0.02850  0.05600  1.0000 0.1097540803
H   H28       1.0  0.45340  0.47150  0.55600  1.0000 0.1097540803
H   H29       1.0  0.12800  0.94930  0.48760  1.0000 0.132083069
H   H30       1.0  0.87200  0.55070  0.98760  1.0000 0.132083069
H   H31       1.0  0.62800  0.05070  0.01240  1.0000 0.132083069
H   H32       1.0  0.37200  0.44930  0.51240  1.0000 0.132083069
H   H33       1.0  0.48550  0.95650  0.53280  1.0000 0.1097540803
H   H34       1.0  0.51450  0.54350  0.03280  1.0000 0.1097540803
H   H35       1.0  0.98550  0.04350  0.96720  1.0000 0.1097540803
H   H36       1.0  0.01450  0.45650  0.46720  1.0000 0.1097540803
H   H37       1.0  0.32820  0.93160  0.52480  1.0000 0.132083069
H   H38       1.0  0.67180  0.56840  0.02480  1.0000 0.132083069
H   H39       1.0  0.82820  0.06840  0.97520  1.0000 0.132083069
H   H40       1.0  0.17180  0.43160  0.47520  1.0000 0.132083069
H   H41       1.0  0.46360  0.92640  0.61930  1.0000 0.1097540803
H   H42       1.0  0.53640  0.57360  0.11930  1.0000 0.1097540803
H   H43       1.0  0.96360  0.07360  0.88070  1.0000 0.1097540803
H   H44       1.0  0.03640  0.42640  0.38070  1.0000 0.1097540803
H   H45       1.0  0.30720  0.90050  0.61350  1.0000 0.132083069
H   H46       1.0  0.69280  0.59950  0.11350  1.0000 0.132083069
H   H47       1.0  0.80720  0.09950  0.88650  1.0000 0.132083069
H   H48       1.0  0.19280  0.40050  0.38650  1.0000 0.132083069
H   H49       1.0  0.56660  0.01200  0.64590  1.0000 0.1097540803
H   H50       1.0  0.43340  0.48800  0.14590  1.0000 0.1097540803
H   H51       1.0  0.06660  0.98800  0.85410  1.0000 0.1097540803
H   H52       1.0  0.93340  0.51200  0.35410  1.0000 0.1097540803
H   H53       1.0  0.54190  0.08330  0.67160  1.0000 0.132083069
H   H54       1.0  0.45810  0.41670  0.17160  1.0000 0.132083069
H   H55       1.0  0.04190  0.91670  0.82840  1.0000 0.132083069
H   H56       1.0  0.95810  0.58330  0.32840  1.0000 0.132083069
H   H57       1.0  0.60680  0.08130  0.56950  1.0000 0.1097540803
H   H58       1.0  0.39320  0.41870  0.06950  1.0000 0.1097540803
H   H59       1.0  0.10680  0.91870  0.93050  1.0000 0.1097540803
H   H60       1.0  0.89320  0.58130  0.43050  1.0000 0.1097540803
H   H61       1.0  0.58500  0.15490  0.59340  1.0000 0.132083069
H   H62       1.0  0.41500  0.34510  0.09340  1.0000 0.132083069
H   H63       1.0  0.08500  0.84510  0.90660  1.0000 0.132083069
H   H64       1.0  0.91500  0.65490  0.40660  1.0000 0.132083069
H   H65       1.0  0.63460  0.34700  0.56980  1.0000 0.1002365506
H   H66       1.0  0.36540  0.15300  0.06980  1.0000 0.1002365506
H   H67       1.0  0.13460  0.65300  0.93020  1.0000 0.1002365506
H   H68       1.0  0.86540  0.84700  0.43020  1.0000 0.1002365506
H   H69       1.0  0.60620  0.27280  0.59230  1.0000 0.1375020581
H   H70       1.0  0.39380  0.22720  0.09230  1.0000 0.1375020581
H   H71       1.0  0.10620  0.72720  0.90770  1.0000 0.1375020581
H   H72       1.0  0.89380  0.77280  0.40770  1.0000 0.1375020581
H   H73       1.0  0.55950  0.41600  0.64360  1.0000 0.1002365506
H   H74       1.0  0.44050  0.08400  0.14360  1.0000 0.1002365506
H   H75       1.0  0.05950  0.58400  0.85640  1.0000 0.1002365506
H   H76       1.0  0.94050  0.91600  0.35640  1.0000 0.1002365506
H   H77       1.0  0.53440  0.34450  0.66870  1.0000 0.132083069
H   H78       1.0  0.46560  0.15550  0.16870  1.0000 0.132083069
H   H79       1.0  0.03440  0.65550  0.83130  1.0000 0.132083069
H   H80       1.0  0.96560  0.84450  0.33130  1.0000 0.132083069
H   H81       1.0  0.44090  0.29690  0.77680  1.0000 0.1097540803
H   H82       1.0  0.55910  0.20310  0.27680  1.0000 0.1097540803
H   H83       1.0  0.94090  0.70310  0.72320  1.0000 0.1097540803
H   H84       1.0  0.05910  0.79690  0.22320  1.0000 0.1097540803
H   H85       1.0  0.50470  0.29120  0.72870  1.0000 0.132083069
H   H86       1.0  0.49530  0.20880  0.22870  1.0000 0.132083069
H   H87       1.0  0.00470  0.70880  0.77130  1.0000 0.132083069
H   H88       1.0  0.99530  0.79120  0.27130  1.0000 0.132083069
H   H89       1.0  0.36770  0.16040  0.77610  1.0000 0.1097540803
H   H90       1.0  0.63230  0.33960  0.27610  1.0000 0.1097540803
H   H91       1.0  0.86770  0.83960  0.72390  1.0000 0.1097540803
H   H92       1.0  0.13230  0.66040  0.22390  1.0000 0.1097540803
H   H93       1.0  0.43450  0.14980  0.72890  1.0000 0.1375020581
H   H94       1.0  0.56550  0.35020  0.22890  1.0000 0.1375020581
H   H95       1.0  0.93450  0.85020  0.77110  1.0000 0.1375020581
H   H96       1.0  0.06550  0.64980  0.27110  1.0000 0.1375020581
H   H97       1.0  0.97280  0.21010  0.33040  1.0000 0.1097540803
H   H98       1.0  0.02720  0.28990  0.83040  1.0000 0.1097540803
H   H99       1.0  0.47280  0.78990  0.16960  1.0000 0.1097540803
H   H100      1.0  0.52720  0.71010  0.66960  1.0000 0.1097540803
H   H101      1.0  0.88220  0.17110  0.36720  1.0000 0.132083069
H   H102      1.0  0.11780  0.32890  0.86720  1.0000 0.132083069
H   H103      1.0  0.38220  0.82890  0.13280  1.0000 0.132083069
H   H104      1.0  0.61780  0.67110  0.63280  1.0000 0.132083069
H   H105      1.0  0.21160  0.18880  0.37620  1.0000 0.1097540803
H   H106      1.0  0.78840  0.31120  0.87620  1.0000 0.1097540803
H   H107      1.0  0.71160  0.81120  0.12380  1.0000 0.1097540803
H   H108      1.0  0.28840  0.68880  0.62380  1.0000 0.1097540803
H   H109      1.0  0.12790  0.15060  0.41430  1.0000 0.132083069
H   H110      1.0  0.87210  0.34940  0.91430  1.0000 0.132083069
H   H111      1.0  0.62790  0.84940  0.08570  1.0000 0.132083069
H   H112      1.0  0.37210  0.65060  0.58570  1.0000 0.132083069
H   H113      1.0  0.20030  0.07700  0.52300  1.0000 0.1097540803
H   H114      1.0  0.79970  0.42300  0.02300  1.0000 0.1097540803
H   H115      1.0  0.70030  0.92300  0.97700  1.0000 0.1097540803
H   H116      1.0  0.29970  0.57700  0.47700  1.0000 0.1097540803
H   H117      1.0  0.12530  0.09830  0.47800  1.0000 0.1375020581
H   H118      1.0  0.87470  0.40170  0.97800  1.0000 0.1375020581
H   H119      1.0  0.62530  0.90170  0.02200  1.0000 0.1375020581
H   H120      1.0  0.37470  0.59830  0.52200  1.0000 0.1375020581
H   H121      1.0  0.95340  0.02850  0.55600  1.0000 0.1097540803
H   H122      1.0  0.04660  0.47150  0.05600  1.0000 0.1097540803
H   H123      1.0  0.45340  0.97150  0.94400  1.0000 0.1097540803
H   H124      1.0  0.54660  0.52850  0.44400  1.0000 0.1097540803
H   H125      1.0  0.87200  0.05070  0.51240  1.0000 0.132083069
H   H126      1.0  0.12800  0.44930  0.01240  1.0000 0.132083069
H   H127      1.0  0.37200  0.94930  0.98760  1.0000 0.132083069
H   H128      1.0  0.62800  0.55070  0.48760  1.0000 0.132083069
H   H129      1.0  0.51450  0.04350  0.46720  1.0000 0.1097540803
H   H130      1.0  0.48550  0.45650  0.96720  1.0000 0.1097540803
H   H131      1.0  0.01450  0.95650  0.03280  1.0000 0.1097540803
H   H132      1.0  0.98550  0.54350  0.53280  1.0000 0.1097540803
H   H133      1.0  0.67180  0.06840  0.47520  1.0000 0.132083069
H   H134      1.0  0.32820  0.43160  0.97520  1.0000 0.132083069
H   H135      1.0  0.17180  0.93160  0.02480  1.0000 0.132083069
H   H136      1.0  0.82820  0.56840  0.52480  1.0000 0.132083069
H   H137      1.0  0.53640  0.07360  0.38070  1.0000 0.1097540803
H   H138      1.0  0.46360  0.42640  0.88070  1.0000 0.1097540803
H   H139      1.0  0.03640  0.92640  0.11930  1.0000 0.1097540803
H   H140      1.0  0.96360  0.57360  0.61930  1.0000 0.1097540803
H   H141      1.0  0.69280  0.09950  0.38650  1.0000 0.132083069
H   H142      1.0  0.30720  0.40050  0.88650  1.0000 0.132083069
H   H143      1.0  0.19280  0.90050  0.11350  1.0000 0.132083069
H   H144      1.0  0.80720  0.59950  0.61350  1.0000 0.132083069
H   H145      1.0  0.43340  0.98800  0.35410  1.0000 0.1097540803
H   H146      1.0  0.56660  0.51200  0.85410  1.0000 0.1097540803
H   H147      1.0  0.93340  0.01200  0.14590  1.0000 0.1097540803
H   H148      1.0  0.06660  0.48800  0.64590  1.0000 0.1097540803
H   H149      1.0  0.45810  0.91670  0.32840  1.0000 0.132083069
H   H150      1.0  0.54190  0.58330  0.82840  1.0000 0.132083069
H   H151      1.0  0.95810  0.08330  0.17160  1.0000 0.132083069
H   H152      1.0  0.04190  0.41670  0.67160  1.0000 0.132083069
H   H153      1.0  0.39320  0.91870  0.43050  1.0000 0.1097540803
H   H154      1.0  0.60680  0.58130  0.93050  1.0000 0.1097540803
H   H155      1.0  0.89320  0.08130  0.06950  1.0000 0.1097540803
H   H156      1.0  0.10680  0.41870  0.56950  1.0000 0.1097540803
H   H157      1.0  0.41500  0.84510  0.40660  1.0000 0.132083069
H   H158      1.0  0.58500  0.65490  0.90660  1.0000 0.132083069
H   H159      1.0  0.91500  0.15490  0.09340  1.0000 0.132083069
H   H160      1.0  0.08500  0.34510  0.59340  1.0000 0.132083069
H   H161      1.0  0.36540  0.65300  0.43020  1.0000 0.1002365506
H   H162      1.0  0.63460  0.84700  0.93020  1.0000 0.1002365506
H   H163      1.0  0.86540  0.34700  0.06980  1.0000 0.1002365506
H   H164      1.0  0.13460  0.15300  0.56980  1.0000 0.1002365506
H   H165      1.0  0.39380  0.72720  0.40770  1.0000 0.1375020581
H   H166      1.0  0.60620  0.77280  0.90770  1.0000 0.1375020581
H   H167      1.0  0.89380  0.27280  0.09230  1.0000 0.1375020581
H   H168      1.0  0.10620  0.22720  0.59230  1.0000 0.1375020581
H   H169      1.0  0.44050  0.58400  0.35640  1.0000 0.1002365506
H   H170      1.0  0.55950  0.91600  0.85640  1.0000 0.1002365506
H   H171      1.0  0.94050  0.41600  0.14360  1.0000 0.1002365506
H   H172      1.0  0.05950  0.08400  0.64360  1.0000 0.1002365506
H   H173      1.0  0.46560  0.65550  0.33130  1.0000 0.132083069
H   H174      1.0  0.53440  0.84450  0.83130  1.0000 0.132083069
H   H175      1.0  0.96560  0.34450  0.16870  1.0000 0.132083069
H   H176      1.0  0.03440  0.15550  0.66870  1.0000 0.132083069
H   H177      1.0  0.55910  0.70310  0.22320  1.0000 0.1097540803
H   H178      1.0  0.44090  0.79690  0.72320  1.0000 0.1097540803
H   H179      1.0  0.05910  0.29690  0.27680  1.0000 0.1097540803
H   H180      1.0  0.94090  0.20310  0.77680  1.0000 0.1097540803
H   H181      1.0  0.49530  0.70880  0.27130  1.0000 0.132083069
H   H182      1.0  0.50470  0.79120  0.77130  1.0000 0.132083069
H   H183      1.0  0.99530  0.29120  0.22870  1.0000 0.132083069
H   H184      1.0  0.00470  0.20880  0.72870  1.0000 0.132083069
H   H185      1.0  0.63230  0.83960  0.22390  1.0000 0.1097540803
H   H186      1.0  0.36770  0.66040  0.72390  1.0000 0.1097540803
H   H187      1.0  0.13230  0.16040  0.27610  1.0000 0.1097540803
H   H188      1.0  0.86770  0.33960  0.77610  1.0000 0.1097540803
H   H189      1.0  0.56550  0.85020  0.27110  1.0000 0.1375020581
H   H190      1.0  0.43450  0.64980  0.77110  1.0000 0.1375020581
H   H191      1.0  0.06550  0.14980  0.22890  1.0000 0.1375020581
H   H192      1.0  0.93450  0.35020  0.72890  1.0000 0.1375020581
C   C1        1.0  0.99530  0.80210  0.65222  1.0000 0.0887087789
C   C2        1.0  0.00470  0.69790  0.15222  1.0000 0.0887087789
C   C3        1.0  0.49530  0.19790  0.84778  1.0000 0.0887087789
C   C4        1.0  0.50470  0.30210  0.34778  1.0000 0.0887087789
C   C5        1.0  0.05000  0.82510  0.63027  1.0000 -0.1220166512
C   C6        1.0  0.95000  0.67490  0.13027  1.0000 -0.1220166512
C   C7        1.0  0.55000  0.17490  0.86973  1.0000 -0.1220166512
C   C8        1.0  0.45000  0.32510  0.36973  1.0000 -0.1220166512
C   C9        1.0  0.85660  0.81440  0.62555  1.0000 0.0887087789
C   C10       1.0  0.14340  0.68560  0.12555  1.0000 0.0887087789
C   C11       1.0  0.35660  0.18560  0.87445  1.0000 0.0887087789
C   C12       1.0  0.64340  0.31440  0.37445  1.0000 0.0887087789
C   C13       1.0  0.90580  0.83730  0.60270  1.0000 -0.1220166512
C   C14       1.0  0.09420  0.66270  0.10270  1.0000 -0.1220166512
C   C15       1.0  0.40580  0.16270  0.89730  1.0000 -0.1220166512
C   C16       1.0  0.59420  0.33730  0.39730  1.0000 -0.1220166512
C   C17       1.0  0.00470  0.84230  0.60492  1.0000 0.0515743661
C   C18       1.0  0.99530  0.65770  0.10492  1.0000 0.0515743661
C   C19       1.0  0.50470  0.15770  0.89508  1.0000 0.0515743661
C   C20       1.0  0.49530  0.34230  0.39508  1.0000 0.0515743661
C   C21       1.0  0.05990  0.86720  0.58101  1.0000 0.3768660656
C   C22       1.0  0.94010  0.63280  0.08101  1.0000 0.3768660656
C   C23       1.0  0.55990  0.13280  0.91899  1.0000 0.3768660656
C   C24       1.0  0.44010  0.36720  0.41899  1.0000 0.3768660656
C   C25       1.0  0.86750  0.92790  0.47905  1.0000 0.0809526018
C   C26       1.0  0.13250  0.57210  0.97905  1.0000 0.0716459389
C   C27       1.0  0.36750  0.07210  0.02095  1.0000 0.0716459389
C   C28       1.0  0.63250  0.42790  0.52095  1.0000 0.0716459389
C   C29       1.0  0.91140  0.91500  0.50589  1.0000 -0.1398946584
C   C30       1.0  0.08860  0.58500  0.00589  1.0000 -0.1398946584
C   C31       1.0  0.41140  0.08500  0.99411  1.0000 -0.1398946584
C   C32       1.0  0.58860  0.41500  0.49411  1.0000 -0.1398946584
C   C33       1.0  0.01200  0.95590  0.45969  1.0000 0.0716459389
C   C34       1.0  0.98800  0.54410  0.95969  1.0000 0.0716459389
C   C35       1.0  0.51200  0.04410  0.04031  1.0000 0.0716459389
C   C36       1.0  0.48800  0.45590  0.54031  1.0000 0.0716459389
C   C37       1.0  0.06050  0.94330  0.48568  1.0000 -0.1398946584
C   C38       1.0  0.93950  0.55670  0.98568  1.0000 -0.1315953651
C   C39       1.0  0.56050  0.05670  0.01432  1.0000 -0.1398946584
C   C40       1.0  0.43950  0.44330  0.51432  1.0000 -0.1315953651
C   C41       1.0  0.01010  0.92200  0.50877  1.0000 0.044657842
C   C42       1.0  0.98990  0.57800  0.00877  1.0000 0.044657842
C   C43       1.0  0.51010  0.07800  0.99123  1.0000 0.044657842
C   C44       1.0  0.48990  0.42200  0.49123  1.0000 0.044657842
C   C45       1.0  0.06130  0.90610  0.53627  1.0000 0.3704281955
C   C46       1.0  0.93870  0.59390  0.03627  1.0000 0.3704281955
C   C47       1.0  0.56130  0.09390  0.96373  1.0000 0.3704281955
C   C48       1.0  0.43870  0.40610  0.46373  1.0000 0.3704281955
C   C49       1.0  0.44820  0.94540  0.54942  1.0000 0.0809526018
C   C50       1.0  0.55180  0.55460  0.04942  1.0000 0.0809526018
C   C51       1.0  0.94820  0.05460  0.95058  1.0000 0.0809526018
C   C52       1.0  0.05180  0.44540  0.45058  1.0000 0.0809526018
C   C53       1.0  0.35500  0.93040  0.54453  1.0000 -0.1315953651
C   C54       1.0  0.64500  0.56960  0.04453  1.0000 -0.1315953651
C   C55       1.0  0.85500  0.06960  0.95547  1.0000 -0.1315953651
C   C56       1.0  0.14500  0.43040  0.45547  1.0000 -0.1315953651
C   C57       1.0  0.43520  0.92770  0.59984  1.0000 0.0809526018
C   C58       1.0  0.56480  0.57230  0.09984  1.0000 0.0809526018
C   C59       1.0  0.93520  0.07230  0.90016  1.0000 0.0809526018
C   C60       1.0  0.06480  0.42770  0.40016  1.0000 0.0809526018
C   C61       1.0  0.34240  0.91210  0.59660  1.0000 -0.1220166512
C   C62       1.0  0.65760  0.58790  0.09660  1.0000 -0.1220166512
C   C63       1.0  0.84240  0.08790  0.90340  1.0000 -0.1220166512
C   C64       1.0  0.15760  0.41210  0.40340  1.0000 -0.1220166512
C   C65       1.0  0.30010  0.91340  0.56832  1.0000 0.0596195047
C   C66       1.0  0.69990  0.58660  0.06832  1.0000 0.0596195047
C   C67       1.0  0.80010  0.08660  0.93168  1.0000 0.0596195047
C   C68       1.0  0.19990  0.41340  0.43168  1.0000 0.0596195047
C   C69       1.0  0.19750  0.90020  0.56369  1.0000 0.3704281955
C   C70       1.0  0.80250  0.59980  0.06369  1.0000 0.3704281955
C   C71       1.0  0.69750  0.09980  0.93631  1.0000 0.3704281955
C   C72       1.0  0.30250  0.40020  0.43631  1.0000 0.3704281955
C   C73       1.0  0.57070  0.04150  0.63509  1.0000 0.0887087789
C   C74       1.0  0.42930  0.45850  0.13509  1.0000 0.0887087789
C   C75       1.0  0.07070  0.95850  0.86491  1.0000 0.0887087789
C   C76       1.0  0.92930  0.54150  0.36491  1.0000 0.0887087789
C   C77       1.0  0.55610  0.08370  0.65061  1.0000 -0.1580689264
C   C78       1.0  0.44390  0.41630  0.15061  1.0000 -0.1580689264
C   C79       1.0  0.05610  0.91630  0.84939  1.0000 -0.1580689264
C   C80       1.0  0.94390  0.58370  0.34939  1.0000 -0.1580689264
C   C81       1.0  0.59440  0.08190  0.59059  1.0000 0.0809526018
C   C82       1.0  0.40560  0.41810  0.09059  1.0000 0.0809526018
C   C83       1.0  0.09440  0.91810  0.90941  1.0000 0.0809526018
C   C84       1.0  0.90560  0.58190  0.40941  1.0000 0.0809526018
C   C85       1.0  0.58120  0.12580  0.60464  1.0000 -0.1398946584
C   C86       1.0  0.41880  0.37420  0.10464  1.0000 -0.1398946584
C   C87       1.0  0.08120  0.87420  0.89536  1.0000 -0.1398946584
C   C88       1.0  0.91880  0.62580  0.39536  1.0000 -0.1398946584
C   C89       1.0  0.56240  0.12690  0.63513  1.0000 0.0596195047
C   C90       1.0  0.43760  0.37310  0.13513  1.0000 0.0596195047
C   C91       1.0  0.06240  0.87310  0.86487  1.0000 0.0596195047
C   C92       1.0  0.93760  0.62690  0.36487  1.0000 0.0596195047
C   C93       1.0  0.55000  0.17380  0.65062  1.0000 0.3704281955
C   C94       1.0  0.45000  0.32620  0.15062  1.0000 0.3704281955
C   C95       1.0  0.05000  0.82620  0.84938  1.0000 0.3704281955
C   C96       1.0  0.95000  0.67380  0.34938  1.0000 0.3704281955
C   C97       1.0  0.61390  0.34620  0.59022  1.0000 0.0809526018
C   C98       1.0  0.38610  0.15380  0.09022  1.0000 0.0809526018
C   C99       1.0  0.11390  0.65380  0.90978  1.0000 0.0809526018
C   C100      1.0  0.88610  0.84620  0.40978  1.0000 0.0809526018
C   C101      1.0  0.59760  0.30180  0.60343  1.0000 -0.1580689264
C   C102      1.0  0.40240  0.19820  0.10343  1.0000 -0.1580689264
C   C103      1.0  0.09760  0.69820  0.89657  1.0000 -0.1580689264
C   C104      1.0  0.90240  0.80180  0.39657  1.0000 -0.1580689264
C   C105      1.0  0.57080  0.38640  0.63334  1.0000 0.0809526018
C   C106      1.0  0.42920  0.11360  0.13334  1.0000 0.0809526018
C   C107      1.0  0.07080  0.61360  0.86666  1.0000 0.0809526018
C   C108      1.0  0.92920  0.88640  0.36666  1.0000 0.0809526018
C   C109      1.0  0.55470  0.34420  0.64830  1.0000 -0.1580689264
C   C110      1.0  0.44530  0.15580  0.14830  1.0000 -0.1580689264
C   C111      1.0  0.05470  0.65580  0.85170  1.0000 -0.1580689264
C   C112      1.0  0.94530  0.84420  0.35170  1.0000 -0.1580689264
C   C113      1.0  0.56850  0.30060  0.63332  1.0000 0.0596195047
C   C114      1.0  0.43150  0.19940  0.13332  1.0000 0.0596195047
C   C115      1.0  0.06850  0.69940  0.86668  1.0000 0.0596195047
C   C116      1.0  0.93150  0.80060  0.36668  1.0000 0.0596195047
C   C117      1.0  0.55370  0.25440  0.64945  1.0000 0.3704281955
C   C118      1.0  0.44630  0.24560  0.14945  1.0000 0.3704281955
C   C119      1.0  0.05370  0.74560  0.85055  1.0000 0.3704281955
C   C120      1.0  0.94630  0.75440  0.35055  1.0000 0.3704281955
C   C121      1.0  0.43770  0.26680  0.76657  1.0000 0.1002365506
C   C122      1.0  0.56230  0.23320  0.26657  1.0000 0.1002365506
C   C123      1.0  0.93770  0.73320  0.73343  1.0000 0.1002365506
C   C124      1.0  0.06230  0.76680  0.23343  1.0000 0.1002365506
C   C125      1.0  0.47700  0.26360  0.73803  1.0000 -0.1398946584
C   C126      1.0  0.52300  0.23640  0.23803  1.0000 -0.1398946584
C   C127      1.0  0.97700  0.73640  0.76197  1.0000 -0.1398946584
C   C128      1.0  0.02300  0.76360  0.26197  1.0000 -0.1398946584
C   C129      1.0  0.39600  0.18720  0.76619  1.0000 0.0809526018
C   C130      1.0  0.60400  0.31280  0.26619  1.0000 0.0716459389
C   C131      1.0  0.89600  0.81280  0.73381  1.0000 0.0716459389
C   C132      1.0  0.10400  0.68720  0.23381  1.0000 0.0716459389
C   C133      1.0  0.43510  0.18070  0.73808  1.0000 -0.1580689264
C   C134      1.0  0.56490  0.31930  0.23808  1.0000 -0.1580689264
C   C135      1.0  0.93510  0.81930  0.76192  1.0000 -0.1580689264
C   C136      1.0  0.06490  0.68070  0.26192  1.0000 -0.1580689264
C   C137      1.0  0.47570  0.22020  0.72324  1.0000 0.0515743661
C   C138      1.0  0.52430  0.27980  0.22324  1.0000 0.0515743661
C   C139      1.0  0.97570  0.77980  0.77676  1.0000 0.0515743661
C   C140      1.0  0.02430  0.72020  0.27676  1.0000 0.0515743661
C   C141      1.0  0.51140  0.21640  0.69218  1.0000 0.3704281955
C   C142      1.0  0.48860  0.28360  0.19218  1.0000 0.3704281955
C   C143      1.0  0.01140  0.78360  0.80782  1.0000 0.3704281955
C   C144      1.0  0.98860  0.71640  0.30782  1.0000 0.3704281955
C   C145      1.0  0.00470  0.19790  0.34778  1.0000 0.0887087789
C   C146      1.0  0.99530  0.30210  0.84778  1.0000 0.0887087789
C   C147      1.0  0.50470  0.80210  0.15222  1.0000 0.0887087789
C   C148      1.0  0.49530  0.69790  0.65222  1.0000 0.0887087789
C   C149      1.0  0.95000  0.17490  0.36973  1.0000 -0.1220166512
C   C150      1.0  0.05000  0.32510  0.86973  1.0000 -0.1220166512
C   C151      1.0  0.45000  0.82510  0.13027  1.0000 -0.1220166512
C   C152      1.0  0.55000  0.67490  0.63027  1.0000 -0.1220166512
C   C153      1.0  0.14340  0.18560  0.37445  1.0000 0.0887087789
C   C154      1.0  0.85660  0.31440  0.87445  1.0000 0.0887087789
C   C155      1.0  0.64340  0.81440  0.12555  1.0000 0.0887087789
C   C156      1.0  0.35660  0.68560  0.62555  1.0000 0.0887087789
C   C157      1.0  0.09420  0.16270  0.39730  1.0000 -0.1220166512
C   C158      1.0  0.90580  0.33730  0.89730  1.0000 -0.1220166512
C   C159      1.0  0.59420  0.83730  0.10270  1.0000 -0.1220166512
C   C160      1.0  0.40580  0.66270  0.60270  1.0000 -0.1220166512
C   C161      1.0  0.99530  0.15770  0.39508  1.0000 0.0515743661
C   C162      1.0  0.00470  0.34230  0.89508  1.0000 0.0515743661
C   C163      1.0  0.49530  0.84230  0.10492  1.0000 0.0515743661
C   C164      1.0  0.50470  0.65770  0.60492  1.0000 0.0515743661
C   C165      1.0  0.94010  0.13280  0.41899  1.0000 0.3768660656
C   C166      1.0  0.05990  0.36720  0.91899  1.0000 0.3768660656
C   C167      1.0  0.44010  0.86720  0.08101  1.0000 0.3768660656
C   C168      1.0  0.55990  0.63280  0.58101  1.0000 0.3768660656
C   C169      1.0  0.13250  0.07210  0.52095  1.0000 0.0716459389
C   C170      1.0  0.86750  0.42790  0.02095  1.0000 0.0716459389
C   C171      1.0  0.63250  0.92790  0.97905  1.0000 0.0716459389
C   C172      1.0  0.36750  0.57210  0.47905  1.0000 0.0809526018
C   C173      1.0  0.08860  0.08500  0.49411  1.0000 -0.1398946584
C   C174      1.0  0.91140  0.41500  0.99411  1.0000 -0.1398946584
C   C175      1.0  0.58860  0.91500  0.00589  1.0000 -0.1398946584
C   C176      1.0  0.41140  0.58500  0.50589  1.0000 -0.1398946584
C   C177      1.0  0.98800  0.04410  0.54031  1.0000 0.0716459389
C   C178      1.0  0.01200  0.45590  0.04031  1.0000 0.0716459389
C   C179      1.0  0.48800  0.95590  0.95969  1.0000 0.0716459389
C   C180      1.0  0.51200  0.54410  0.45969  1.0000 0.0716459389
C   C181      1.0  0.93950  0.05670  0.51432  1.0000 -0.1315953651
C   C182      1.0  0.06050  0.44330  0.01432  1.0000 -0.1398946584
C   C183      1.0  0.43950  0.94330  0.98568  1.0000 -0.1315953651
C   C184      1.0  0.56050  0.55670  0.48568  1.0000 -0.1398946584
C   C185      1.0  0.98990  0.07800  0.49123  1.0000 0.044657842
C   C186      1.0  0.01010  0.42200  0.99123  1.0000 0.044657842
C   C187      1.0  0.48990  0.92200  0.00877  1.0000 0.044657842
C   C188      1.0  0.51010  0.57800  0.50877  1.0000 0.044657842
C   C189      1.0  0.93870  0.09390  0.46373  1.0000 0.3704281955
C   C190      1.0  0.06130  0.40610  0.96373  1.0000 0.3704281955
C   C191      1.0  0.43870  0.90610  0.03627  1.0000 0.3704281955
C   C192      1.0  0.56130  0.59390  0.53627  1.0000 0.3704281955
C   C193      1.0  0.55180  0.05460  0.45058  1.0000 0.0809526018
C   C194      1.0  0.44820  0.44540  0.95058  1.0000 0.0809526018
C   C195      1.0  0.05180  0.94540  0.04942  1.0000 0.0809526018
C   C196      1.0  0.94820  0.55460  0.54942  1.0000 0.0809526018
C   C197      1.0  0.64500  0.06960  0.45547  1.0000 -0.1315953651
C   C198      1.0  0.35500  0.43040  0.95547  1.0000 -0.1315953651
C   C199      1.0  0.14500  0.93040  0.04453  1.0000 -0.1315953651
C   C200      1.0  0.85500  0.56960  0.54453  1.0000 -0.1315953651
C   C201      1.0  0.56480  0.07230  0.40016  1.0000 0.0809526018
C   C202      1.0  0.43520  0.42770  0.90016  1.0000 0.0809526018
C   C203      1.0  0.06480  0.92770  0.09984  1.0000 0.0809526018
C   C204      1.0  0.93520  0.57230  0.59984  1.0000 0.0809526018
C   C205      1.0  0.65760  0.08790  0.40340  1.0000 -0.1220166512
C   C206      1.0  0.34240  0.41210  0.90340  1.0000 -0.1220166512
C   C207      1.0  0.15760  0.91210  0.09660  1.0000 -0.1220166512
C   C208      1.0  0.84240  0.58790  0.59660  1.0000 -0.1220166512
C   C209      1.0  0.69990  0.08660  0.43168  1.0000 0.0596195047
C   C210      1.0  0.30010  0.41340  0.93168  1.0000 0.0596195047
C   C211      1.0  0.19990  0.91340  0.06832  1.0000 0.0596195047
C   C212      1.0  0.80010  0.58660  0.56832  1.0000 0.0596195047
C   C213      1.0  0.80250  0.09980  0.43631  1.0000 0.3704281955
C   C214      1.0  0.19750  0.40020  0.93631  1.0000 0.3704281955
C   C215      1.0  0.30250  0.90020  0.06369  1.0000 0.3704281955
C   C216      1.0  0.69750  0.59980  0.56369  1.0000 0.3704281955
C   C217      1.0  0.42930  0.95850  0.36491  1.0000 0.0887087789
C   C218      1.0  0.57070  0.54150  0.86491  1.0000 0.0887087789
C   C219      1.0  0.92930  0.04150  0.13509  1.0000 0.0887087789
C   C220      1.0  0.07070  0.45850  0.63509  1.0000 0.0887087789
C   C221      1.0  0.44390  0.91630  0.34939  1.0000 -0.1580689264
C   C222      1.0  0.55610  0.58370  0.84939  1.0000 -0.1580689264
C   C223      1.0  0.94390  0.08370  0.15061  1.0000 -0.1580689264
C   C224      1.0  0.05610  0.41630  0.65061  1.0000 -0.1580689264
C   C225      1.0  0.40560  0.91810  0.40941  1.0000 0.0809526018
C   C226      1.0  0.59440  0.58190  0.90941  1.0000 0.0809526018
C   C227      1.0  0.90560  0.08190  0.09059  1.0000 0.0809526018
C   C228      1.0  0.09440  0.41810  0.59059  1.0000 0.0809526018
C   C229      1.0  0.41880  0.87420  0.39536  1.0000 -0.1398946584
C   C230      1.0  0.58120  0.62580  0.89536  1.0000 -0.1398946584
C   C231      1.0  0.91880  0.12580  0.10464  1.0000 -0.1398946584
C   C232      1.0  0.08120  0.37420  0.60464  1.0000 -0.1398946584
C   C233      1.0  0.43760  0.87310  0.36487  1.0000 0.0596195047
C   C234      1.0  0.56240  0.62690  0.86487  1.0000 0.0596195047
C   C235      1.0  0.93760  0.12690  0.13513  1.0000 0.0596195047
C   C236      1.0  0.06240  0.37310  0.63513  1.0000 0.0596195047
C   C237      1.0  0.45000  0.82620  0.34938  1.0000 0.3704281955
C   C238      1.0  0.55000  0.67380  0.84938  1.0000 0.3704281955
C   C239      1.0  0.95000  0.17380  0.15062  1.0000 0.3704281955
C   C240      1.0  0.05000  0.32620  0.65062  1.0000 0.3704281955
C   C241      1.0  0.38610  0.65380  0.40978  1.0000 0.0809526018
C   C242      1.0  0.61390  0.84620  0.90978  1.0000 0.0809526018
C   C243      1.0  0.88610  0.34620  0.09022  1.0000 0.0809526018
C   C244      1.0  0.11390  0.15380  0.59022  1.0000 0.0809526018
C   C245      1.0  0.40240  0.69820  0.39657  1.0000 -0.1580689264
C   C246      1.0  0.59760  0.80180  0.89657  1.0000 -0.1580689264
C   C247      1.0  0.90240  0.30180  0.10343  1.0000 -0.1580689264
C   C248      1.0  0.09760  0.19820  0.60343  1.0000 -0.1580689264
C   C249      1.0  0.42920  0.61360  0.36666  1.0000 0.0809526018
C   C250      1.0  0.57080  0.88640  0.86666  1.0000 0.0809526018
C   C251      1.0  0.92920  0.38640  0.13334  1.0000 0.0809526018
C   C252      1.0  0.07080  0.11360  0.63334  1.0000 0.0809526018
C   C253      1.0  0.44530  0.65580  0.35170  1.0000 -0.1580689264
C   C254      1.0  0.55470  0.84420  0.85170  1.0000 -0.1580689264
C   C255      1.0  0.94530  0.34420  0.14830  1.0000 -0.1580689264
C   C256      1.0  0.05470  0.15580  0.64830  1.0000 -0.1580689264
C   C257      1.0  0.43150  0.69940  0.36668  1.0000 0.0596195047
C   C258      1.0  0.56850  0.80060  0.86668  1.0000 0.0596195047
C   C259      1.0  0.93150  0.30060  0.13332  1.0000 0.0596195047
C   C260      1.0  0.06850  0.19940  0.63332  1.0000 0.0596195047
C   C261      1.0  0.44630  0.74560  0.35055  1.0000 0.3704281955
C   C262      1.0  0.55370  0.75440  0.85055  1.0000 0.3704281955
C   C263      1.0  0.94630  0.25440  0.14945  1.0000 0.3704281955
C   C264      1.0  0.05370  0.24560  0.64945  1.0000 0.3704281955
C   C265      1.0  0.56230  0.73320  0.23343  1.0000 0.1002365506
C   C266      1.0  0.43770  0.76680  0.73343  1.0000 0.1002365506
C   C267      1.0  0.06230  0.26680  0.26657  1.0000 0.1002365506
C   C268      1.0  0.93770  0.23320  0.76657  1.0000 0.1002365506
C   C269      1.0  0.52300  0.73640  0.26197  1.0000 -0.1398946584
C   C270      1.0  0.47700  0.76360  0.76197  1.0000 -0.1398946584
C   C271      1.0  0.02300  0.26360  0.23803  1.0000 -0.1398946584
C   C272      1.0  0.97700  0.23640  0.73803  1.0000 -0.1398946584
C   C273      1.0  0.60400  0.81280  0.23381  1.0000 0.0716459389
C   C274      1.0  0.39600  0.68720  0.73381  1.0000 0.0716459389
C   C275      1.0  0.10400  0.18720  0.26619  1.0000 0.0716459389
C   C276      1.0  0.89600  0.31280  0.76619  1.0000 0.0716459389
C   C277      1.0  0.56490  0.81930  0.26192  1.0000 -0.1580689264
C   C278      1.0  0.43510  0.68070  0.76192  1.0000 -0.1580689264
C   C279      1.0  0.06490  0.18070  0.23808  1.0000 -0.1580689264
C   C280      1.0  0.93510  0.31930  0.73808  1.0000 -0.1580689264
C   C281      1.0  0.52430  0.77980  0.27676  1.0000 0.0515743661
C   C282      1.0  0.47570  0.72020  0.77676  1.0000 0.0515743661
C   C283      1.0  0.02430  0.22020  0.22324  1.0000 0.0515743661
C   C284      1.0  0.97570  0.27980  0.72324  1.0000 0.0515743661
C   C285      1.0  0.48860  0.78360  0.30782  1.0000 0.3704281955
C   C286      1.0  0.51140  0.71640  0.80782  1.0000 0.3704281955
C   C287      1.0  0.98860  0.21640  0.19218  1.0000 0.3704281955
C   C288      1.0  0.01140  0.28360  0.69218  1.0000 0.3704281955
I   I1        1.0  0.69537  0.99435  0.53323  1.0000 -0.4692934037
I   I2        1.0  0.30463  0.50565  0.03323  1.0000 -0.4692934037
I   I3        1.0  0.19537  0.00565  0.96677  1.0000 -0.4692934037
I   I4        1.0  0.80463  0.49435  0.46677  1.0000 -0.4692934037
I   I5        1.0  0.71061  0.92598  0.62391  1.0000 -0.4328054258
I   I6        1.0  0.28939  0.57402  0.12391  1.0000 -0.4328054258
I   I7        1.0  0.21061  0.07402  0.87609  1.0000 -0.4328054258
I   I8        1.0  0.78939  0.42598  0.37609  1.0000 -0.4328054258
I   I9        1.0  0.67307  0.94594  0.41987  1.0000 -0.452794689
I   I10       1.0  0.32693  0.55406  0.91987  1.0000 -0.452794689
I   I11       1.0  0.17307  0.05406  0.08013  1.0000 -0.452794689
I   I12       1.0  0.82693  0.44594  0.58013  1.0000 -0.452794689
I   I13       1.0  0.94041  0.01748  0.38355  1.0000 -0.4354467162
I   I14       1.0  0.05959  0.48252  0.88355  1.0000 -0.4328054258
I   I15       1.0  0.44041  0.98252  0.11645  1.0000 -0.4328054258
I   I16       1.0  0.55959  0.51748  0.61645  1.0000 -0.4354467162
I   I17       1.0  0.81722  0.67129  0.66747  1.0000 -0.452794689
I   I18       1.0  0.18278  0.82871  0.16747  1.0000 -0.452794689
I   I19       1.0  0.31722  0.32871  0.83253  1.0000 -0.452794689
I   I20       1.0  0.68278  0.17129  0.33253  1.0000 -0.452794689
I   I21       1.0  0.65752  0.80415  0.68727  1.0000 -0.460435278
I   I22       1.0  0.34248  0.69585  0.18727  1.0000 -0.460435278
I   I23       1.0  0.15752  0.19585  0.81273  1.0000 -0.460435278
I   I24       1.0  0.84248  0.30415  0.31273  1.0000 -0.460435278
I   I25       1.0  0.30463  0.00565  0.46677  1.0000 -0.4692934037
I   I26       1.0  0.69537  0.49435  0.96677  1.0000 -0.4692934037
I   I27       1.0  0.80463  0.99435  0.03323  1.0000 -0.4692934037
I   I28       1.0  0.19537  0.50565  0.53323  1.0000 -0.4692934037
I   I29       1.0  0.28939  0.07402  0.37609  1.0000 -0.4328054258
I   I30       1.0  0.71061  0.42598  0.87609  1.0000 -0.4354467162
I   I31       1.0  0.78939  0.92598  0.12391  1.0000 -0.4328054258
I   I32       1.0  0.21061  0.57402  0.62391  1.0000 -0.4328054258
I   I33       1.0  0.32693  0.05406  0.58013  1.0000 -0.452794689
I   I34       1.0  0.67307  0.44594  0.08013  1.0000 -0.452794689
I   I35       1.0  0.82693  0.94594  0.91987  1.0000 -0.452794689
I   I36       1.0  0.17307  0.55406  0.41987  1.0000 -0.452794689
I   I37       1.0  0.05959  0.98252  0.61645  1.0000 -0.4328054258
I   I38       1.0  0.94041  0.51748  0.11645  1.0000 -0.4354467162
I   I39       1.0  0.55959  0.01748  0.88355  1.0000 -0.4354467162
I   I40       1.0  0.44041  0.48252  0.38355  1.0000 -0.4328054258
I   I41       1.0  0.18278  0.32871  0.33253  1.0000 -0.452794689
I   I42       1.0  0.81722  0.17129  0.83253  1.0000 -0.452794689
I   I43       1.0  0.68278  0.67129  0.16747  1.0000 -0.452794689
I   I44       1.0  0.31722  0.82871  0.66747  1.0000 -0.452794689
I   I45       1.0  0.34248  0.19585  0.31273  1.0000 -0.460435278
I   I46       1.0  0.65752  0.30415  0.81273  1.0000 -0.460435278
I   I47       1.0  0.84248  0.80415  0.18727  1.0000 -0.460435278
I   I48       1.0  0.15752  0.69585  0.68727  1.0000 -0.460435278
N   N1        1.0  0.89930  0.79659  0.64989  1.0000 -0.179955938
N   N2        1.0  0.10070  0.70341  0.14989  1.0000 -0.179955938
N   N3        1.0  0.39930  0.20341  0.85011  1.0000 -0.179955938
N   N4        1.0  0.60070  0.29659  0.35011  1.0000 -0.179955938
N   N5        1.0  0.91660  0.94679  0.45595  1.0000 -0.179955938
N   N6        1.0  0.08340  0.55321  0.95595  1.0000 -0.179955938
N   N7        1.0  0.41660  0.05321  0.04405  1.0000 -0.179955938
N   N8        1.0  0.58340  0.44679  0.54405  1.0000 -0.179955938
N   N9        1.0  0.48860  0.94481  0.57714  1.0000 -0.1729293366
N   N10       1.0  0.51140  0.55519  0.07714  1.0000 -0.1729293366
N   N11       1.0  0.98860  0.05519  0.92286  1.0000 -0.1729293366
N   N12       1.0  0.01140  0.44481  0.42286  1.0000 -0.1729293366
N   N13       1.0  0.00970  0.88192  0.55711  1.0000 -0.3916001388
N   N14       1.0  0.99030  0.61808  0.05711  1.0000 -0.3916001388
N   N15       1.0  0.50970  0.11808  0.94289  1.0000 -0.3916001388
N   N16       1.0  0.49030  0.38192  0.44289  1.0000 -0.3916001388
N   N17       1.0  0.15450  0.91670  0.53882  1.0000 -0.3791291632
N   N18       1.0  0.84550  0.58330  0.03882  1.0000 -0.3791291632
N   N19       1.0  0.65450  0.08330  0.96118  1.0000 -0.3791291632
N   N20       1.0  0.34550  0.41670  0.46118  1.0000 -0.3791291632
N   N21       1.0  0.15450  0.87453  0.58529  1.0000 -0.3701457747
N   N22       1.0  0.84550  0.62547  0.08529  1.0000 -0.3701457747
N   N23       1.0  0.65450  0.12547  0.91471  1.0000 -0.3701457747
N   N24       1.0  0.34550  0.37453  0.41471  1.0000 -0.3701457747
N   N25       1.0  0.59030  0.03970  0.60580  1.0000 -0.179955938
N   N26       1.0  0.40970  0.46030  0.10580  1.0000 -0.179955938
N   N27       1.0  0.09030  0.96030  0.89420  1.0000 -0.179955938
N   N28       1.0  0.90970  0.53970  0.39420  1.0000 -0.179955938
N   N29       1.0  0.60200  0.38761  0.60455  1.0000 -0.1851585576
N   N30       1.0  0.39800  0.11239  0.10455  1.0000 -0.179955938
N   N31       1.0  0.10200  0.61239  0.89545  1.0000 -0.1851585576
N   N32       1.0  0.89800  0.88761  0.39545  1.0000 -0.179955938
N   N33       1.0  0.39600  0.23010  0.78023  1.0000 -0.179955938
N   N34       1.0  0.60400  0.26990  0.28023  1.0000 -0.179955938
N   N35       1.0  0.89600  0.76990  0.71977  1.0000 -0.179955938
N   N36       1.0  0.10400  0.73010  0.21977  1.0000 -0.179955938
N   N37       1.0  0.56650  0.21357  0.63455  1.0000 -0.4101134358
N   N38       1.0  0.43350  0.28643  0.13455  1.0000 -0.4101134358
N   N39       1.0  0.06650  0.78643  0.86545  1.0000 -0.4101134358
N   N40       1.0  0.93350  0.71357  0.36545  1.0000 -0.4101134358
N   N41       1.0  0.52640  0.25783  0.67836  1.0000 -0.4101134358
N   N42       1.0  0.47360  0.24217  0.17836  1.0000 -0.4101134358
N   N43       1.0  0.02640  0.74217  0.82164  1.0000 -0.4101134358
N   N44       1.0  0.97360  0.75783  0.32164  1.0000 -0.4101134358
N   N45       1.0  0.52200  0.17267  0.67961  1.0000 -0.4101134358
N   N46       1.0  0.47800  0.32733  0.17961  1.0000 -0.4101134358
N   N47       1.0  0.02200  0.82733  0.82039  1.0000 -0.4101134358
N   N48       1.0  0.97800  0.67267  0.32039  1.0000 -0.4101134358
N   N49       1.0  0.10070  0.20341  0.35011  1.0000 -0.179955938
N   N50       1.0  0.89930  0.29659  0.85011  1.0000 -0.179955938
N   N51       1.0  0.60070  0.79659  0.14989  1.0000 -0.179955938
N   N52       1.0  0.39930  0.70341  0.64989  1.0000 -0.179955938
N   N53       1.0  0.08340  0.05321  0.54405  1.0000 -0.179955938
N   N54       1.0  0.91660  0.44679  0.04405  1.0000 -0.179955938
N   N55       1.0  0.58340  0.94679  0.95595  1.0000 -0.179955938
N   N56       1.0  0.41660  0.55321  0.45595  1.0000 -0.179955938
N   N57       1.0  0.51140  0.05519  0.42286  1.0000 -0.1729293366
N   N58       1.0  0.48860  0.44481  0.92286  1.0000 -0.1729293366
N   N59       1.0  0.01140  0.94481  0.07714  1.0000 -0.1729293366
N   N60       1.0  0.98860  0.55519  0.57714  1.0000 -0.1729293366
N   N61       1.0  0.99030  0.11808  0.44289  1.0000 -0.3916001388
N   N62       1.0  0.00970  0.38192  0.94289  1.0000 -0.3916001388
N   N63       1.0  0.49030  0.88192  0.05711  1.0000 -0.3916001388
N   N64       1.0  0.50970  0.61808  0.55711  1.0000 -0.3916001388
N   N65       1.0  0.84550  0.08330  0.46118  1.0000 -0.3791291632
N   N66       1.0  0.15450  0.41670  0.96118  1.0000 -0.3791291632
N   N67       1.0  0.34550  0.91670  0.03882  1.0000 -0.3791291632
N   N68       1.0  0.65450  0.58330  0.53882  1.0000 -0.3791291632
N   N69       1.0  0.84550  0.12547  0.41471  1.0000 -0.3701457747
N   N70       1.0  0.15450  0.37453  0.91471  1.0000 -0.3701457747
N   N71       1.0  0.34550  0.87453  0.08529  1.0000 -0.3701457747
N   N72       1.0  0.65450  0.62547  0.58529  1.0000 -0.3701457747
N   N73       1.0  0.40970  0.96030  0.39420  1.0000 -0.179955938
N   N74       1.0  0.59030  0.53970  0.89420  1.0000 -0.179955938
N   N75       1.0  0.90970  0.03970  0.10580  1.0000 -0.179955938
N   N76       1.0  0.09030  0.46030  0.60580  1.0000 -0.179955938
N   N77       1.0  0.39800  0.61239  0.39545  1.0000 -0.179955938
N   N78       1.0  0.60200  0.88761  0.89545  1.0000 -0.1851585576
N   N79       1.0  0.89800  0.38761  0.10455  1.0000 -0.1851585576
N   N80       1.0  0.10200  0.11239  0.60455  1.0000 -0.1851585576
N   N81       1.0  0.60400  0.76990  0.21977  1.0000 -0.179955938
N   N82       1.0  0.39600  0.73010  0.71977  1.0000 -0.179955938
N   N83       1.0  0.10400  0.23010  0.28023  1.0000 -0.179955938
N   N84       1.0  0.89600  0.26990  0.78023  1.0000 -0.179955938
N   N85       1.0  0.43350  0.78643  0.36545  1.0000 -0.4101134358
N   N86       1.0  0.56650  0.71357  0.86545  1.0000 -0.4101134358
N   N87       1.0  0.93350  0.21357  0.13455  1.0000 -0.4101134358
N   N88       1.0  0.06650  0.28643  0.63455  1.0000 -0.4101134358
N   N89       1.0  0.47360  0.74217  0.32164  1.0000 -0.4101134358
N   N90       1.0  0.52640  0.75783  0.82164  1.0000 -0.4101134358
N   N91       1.0  0.97360  0.25783  0.17836  1.0000 -0.4101134358
N   N92       1.0  0.02640  0.24217  0.67836  1.0000 -0.4101134358
N   N93       1.0  0.47800  0.82733  0.32039  1.0000 -0.4101134358
N   N94       1.0  0.52200  0.67267  0.82039  1.0000 -0.4101134358
N   N95       1.0  0.97800  0.17267  0.17961  1.0000 -0.4101134358
N   N96       1.0  0.02200  0.32733  0.67961  1.0000 -0.4101134358
