# DDEC6 charges by PACMAN v1.1 (https://github.com/mtap-research/PACMAN-charge/)
data_2008[Ce][nan]3[ASR]3
_chemical_formula_sum              "Ce6 H114 C194 N16 O36"
_cell_length_a       11.8493
_cell_length_b       13.9604
_cell_length_c       34.2738
_cell_angle_alpha    97.0961
_cell_angle_beta     99.4543
_cell_angle_gamma    100.103

_symmetry_space_group_name_H-M    "P 1"
_symmetry_Int_Tables_number       1

loop_
  _symmetry_equiv_pos_as_xyz
  'x, y, z'

loop_
  _atom_site_type_symbol
  _atom_site_label
  _atom_site_symmetry_multiplicity
  _atom_site_fract_x
  _atom_site_fract_y
  _atom_site_fract_z
  _atom_site_occupancy
  _atom_site_charge
Ce  Ce1       1.0  0.86833  0.04270  0.24982  1.0000 1.9867859083
Ce  Ce2       1.0  0.13167  0.95730  0.75018  1.0000 1.9867859083
Ce  Ce3       1.0  0.15868  0.90780  0.24743  1.0000 1.9492919641
Ce  Ce4       1.0  0.84132  0.09220  0.75257  1.0000 1.9492919641
Ce  Ce5       1.0  0.48719  0.01341  0.75374  1.0000 1.8164892393
Ce  Ce6       1.0  0.51281  0.98659  0.24626  1.0000 1.8164892393
H   H1        1.0  0.55240  0.54820  0.14580  1.0000 0.1297230893
H   H2        1.0  0.44760  0.45180  0.85420  1.0000 0.1297230893
H   H3        1.0  0.39610  0.40680  0.14960  1.0000 0.1297230893
H   H4        1.0  0.60390  0.59320  0.85040  1.0000 0.1297230893
H   H5        1.0  0.00560  0.21030  0.05100  1.0000 0.1196577423
H   H6        1.0  0.99440  0.78970  0.94900  1.0000 0.1196577423
H   H7        1.0  0.89730  0.22930  0.98590  1.0000 0.1297230893
H   H8        1.0  0.10270  0.77070  0.01410  1.0000 0.1297230893
H   H9        1.0  0.97510  0.46760  0.87940  1.0000 0.1297230893
H   H10       1.0  0.02490  0.53240  0.12060  1.0000 0.1297230893
H   H11       1.0  0.12540  0.61030  0.87640  1.0000 0.1196577423
H   H12       1.0  0.87460  0.38970  0.12360  1.0000 0.1196577423
H   H13       1.0  0.53250  0.79530  0.97070  1.0000 0.1297230893
H   H14       1.0  0.46750  0.20470  0.02930  1.0000 0.1297230893
H   H15       1.0  0.63830  0.77440  0.03620  1.0000 0.1297230893
H   H16       1.0  0.36170  0.22560  0.96380  1.0000 0.1297230893
H   H17       1.0  0.32530  0.48560  0.04010  1.0000 0.2204608554
H   H18       1.0  0.67470  0.51440  0.95990  1.0000 0.2204608554
H   H19       1.0  0.20610  0.52330  0.98330  1.0000 0.2204608554
H   H20       1.0  0.79390  0.47670  0.01670  1.0000 0.2204608554
H   H21       1.0  0.07180  0.35640  0.13060  1.0000 0.1196577423
H   H22       1.0  0.92820  0.64360  0.86940  1.0000 0.1196577423
H   H23       1.0  0.01750  0.25200  0.17510  1.0000 0.1196577423
H   H24       1.0  0.98250  0.74800  0.82490  1.0000 0.1196577423
H   H25       1.0  0.24480  0.08550  0.14500  1.0000 0.1297230893
H   H26       1.0  0.75520  0.91450  0.85500  1.0000 0.1297230893
H   H27       1.0  0.30190  0.19290  0.10170  1.0000 0.1196577423
H   H28       1.0  0.69810  0.80710  0.89830  1.0000 0.1196577423
H   H29       1.0  0.99930  0.21250  0.90880  1.0000 0.1196577423
H   H30       1.0  0.00070  0.78750  0.09120  1.0000 0.1196577423
H   H31       1.0  0.86070  0.11560  0.85690  1.0000 0.1196577423
H   H32       1.0  0.13930  0.88440  0.14310  1.0000 0.1196577423
H   H33       1.0  0.64170  0.30320  0.87200  1.0000 0.1196577423
H   H34       1.0  0.35830  0.69680  0.12800  1.0000 0.1196577423
H   H35       1.0  0.78730  0.40510  0.92180  1.0000 0.11284192
H   H36       1.0  0.21270  0.59490  0.07820  1.0000 0.11284192
H   H37       1.0  0.47270  0.69400  0.89840  1.0000 0.1196577423
H   H38       1.0  0.52730  0.30600  0.10160  1.0000 0.1196577423
H   H39       1.0  0.48970  0.78810  0.84780  1.0000 0.1196577423
H   H40       1.0  0.51030  0.21190  0.15220  1.0000 0.1196577423
H   H41       1.0  0.20070  0.88830  0.86650  1.0000 0.1297230893
H   H42       1.0  0.79930  0.11170  0.13350  1.0000 0.1297230893
H   H43       1.0  0.18690  0.79620  0.91880  1.0000 0.1196577423
H   H44       1.0  0.81310  0.20380  0.08120  1.0000 0.1196577423
H   H45       1.0  0.73020  0.57010  0.09780  1.0000 0.11284192
H   H46       1.0  0.26980  0.42990  0.90220  1.0000 0.11284192
H   H47       1.0  0.89000  0.65330  0.14500  1.0000 0.1196577423
H   H48       1.0  0.11000  0.34670  0.85500  1.0000 0.1196577423
H   H49       1.0  0.73090  0.88410  0.16480  1.0000 0.1297230893
H   H50       1.0  0.26910  0.11590  0.83520  1.0000 0.1297230893
H   H51       1.0  0.56990  0.80090  0.11560  1.0000 0.1297230893
H   H52       1.0  0.43010  0.19910  0.88440  1.0000 0.1297230893
H   H53       1.0  0.97390  0.55930  0.63930  1.0000 0.1297230893
H   H54       1.0  0.02610  0.44070  0.36070  1.0000 0.1297230893
H   H55       1.0  0.81630  0.41810  0.64040  1.0000 0.1297230893
H   H56       1.0  0.18370  0.58190  0.35960  1.0000 0.1297230893
H   H57       1.0  0.47160  0.19030  0.52950  1.0000 0.1297230893
H   H58       1.0  0.52840  0.80970  0.47050  1.0000 0.1297230893
H   H59       1.0  0.38740  0.20000  0.45920  1.0000 0.1297230893
H   H60       1.0  0.61260  0.80000  0.54080  1.0000 0.1297230893
H   H61       1.0  0.48080  0.43870  0.35530  1.0000 0.1297230893
H   H62       1.0  0.51920  0.56130  0.64470  1.0000 0.1297230893
H   H63       1.0  0.63970  0.58100  0.35420  1.0000 0.1297230893
H   H64       1.0  0.36030  0.41900  0.64580  1.0000 0.1297230893
H   H65       1.0  0.03200  0.76400  0.45630  1.0000 0.1297230893
H   H66       1.0  0.96800  0.23600  0.54370  1.0000 0.1297230893
H   H67       1.0  0.11810  0.75360  0.52630  1.0000 0.1297230893
H   H68       1.0  0.88190  0.24640  0.47370  1.0000 0.1297230893
H   H69       1.0  0.79200  0.47390  0.52650  1.0000 0.2204608554
H   H70       1.0  0.20800  0.52610  0.47350  1.0000 0.2204608554
H   H71       1.0  0.69600  0.49830  0.46390  1.0000 0.2204608554
H   H72       1.0  0.30400  0.50170  0.53610  1.0000 0.2204608554
H   H73       1.0  0.79650  0.22250  0.60170  1.0000 0.1196577423
H   H74       1.0  0.20350  0.77750  0.39830  1.0000 0.1196577423
H   H75       1.0  0.76140  0.12690  0.65060  1.0000 0.1196577423
H   H76       1.0  0.23860  0.87310  0.34940  1.0000 0.1196577423
H   H77       1.0  0.44370  0.19710  0.64470  1.0000 0.1196577423
H   H78       1.0  0.55630  0.80290  0.35530  1.0000 0.1196577423
H   H79       1.0  0.48390  0.30240  0.59930  1.0000 0.1196577423
H   H80       1.0  0.51610  0.69760  0.40070  1.0000 0.1196577423
H   H81       1.0  0.48980  0.19760  0.37480  1.0000 0.1297230893
H   H82       1.0  0.51020  0.80240  0.62520  1.0000 0.1297230893
H   H83       1.0  0.33540  0.10570  0.32570  1.0000 0.1297230893
H   H84       1.0  0.66460  0.89430  0.67430  1.0000 0.1297230893
H   H85       1.0  0.12900  0.28770  0.35840  1.0000 0.11284192
H   H86       1.0  0.87100  0.71230  0.64160  1.0000 0.11284192
H   H87       1.0  0.28250  0.37770  0.40790  1.0000 0.1196577423
H   H88       1.0  0.71750  0.62230  0.59210  1.0000 0.1196577423
H   H89       1.0  0.96070  0.62020  0.37770  1.0000 0.1196577423
H   H90       1.0  0.03930  0.37980  0.62230  1.0000 0.1196577423
H   H91       1.0  0.02290  0.71570  0.33210  1.0000 0.1196577423
H   H92       1.0  0.97710  0.28430  0.66790  1.0000 0.1196577423
H   H93       1.0  0.79280  0.88870  0.35420  1.0000 0.1297230893
H   H94       1.0  0.20720  0.11130  0.64580  1.0000 0.1297230893
H   H95       1.0  0.73450  0.79290  0.40150  1.0000 0.1196577423
H   H96       1.0  0.26550  0.20710  0.59850  1.0000 0.1196577423
H   H97       1.0  0.18290  0.57950  0.60370  1.0000 0.11284192
H   H98       1.0  0.81710  0.42050  0.39630  1.0000 0.11284192
H   H99       1.0  0.32000  0.67690  0.65530  1.0000 0.1196577423
H   H100      1.0  0.68000  0.32310  0.34470  1.0000 0.1196577423
H   H101      1.0  0.13860  0.89910  0.64810  1.0000 0.1297230893
H   H102      1.0  0.86140  0.10090  0.35190  1.0000 0.1297230893
H   H103      1.0  0.00980  0.80210  0.59330  1.0000 0.1196577423
H   H104      1.0  0.99020  0.19790  0.40670  1.0000 0.1196577423
H   H105      1.0  0.68130  0.76140  0.24360  1.0000 0.0805232684
H   H106      1.0  0.31870  0.23860  0.75640  1.0000 0.0805232684
H   H107      1.0  0.18860  0.43930  0.01380  1.0000 0.2204608554
H   H108      1.0  0.81140  0.56070  0.98620  1.0000 0.2204608554
H   H109      1.0  0.34070  0.57290  0.00920  1.0000 0.2278378355
H   H110      1.0  0.65930  0.42710  0.99080  1.0000 0.2278378355
H   H111      1.0  0.33490  0.57950  0.50370  1.0000 0.2278378355
H   H112      1.0  0.66510  0.42050  0.49630  1.0000 0.2278378355
H   H113      1.0  0.18310  0.44430  0.50540  1.0000 0.2204608554
H   H114      1.0  0.81690  0.55570  0.49460  1.0000 0.2204608554
C   C1        1.0  0.45900  0.54420  0.08602  1.0000 0.160008288
C   C2        1.0  0.54100  0.45580  0.91398  1.0000 0.160008288
C   C3        1.0  0.48720  0.51780  0.12541  1.0000 -0.200799273
C   C4        1.0  0.51280  0.48220  0.87459  1.0000 -0.200799273
C   C5        1.0  0.40170  0.44070  0.12740  1.0000 -0.200799273
C   C6        1.0  0.59830  0.55930  0.87260  1.0000 -0.200799273
C   C7        1.0  0.32050  0.41980  0.08930  1.0000 0.1493940043
C   C8        1.0  0.67950  0.58020  0.91070  1.0000 0.1493940043
C   C9        1.0  0.21820  0.34830  0.08062  1.0000 -0.1073880754
C   C10       1.0  0.78180  0.65170  0.91938  1.0000 -0.1073880754
C   C11       1.0  0.13180  0.33360  0.04610  1.0000 0.1493940043
C   C12       1.0  0.86820  0.66640  0.95390  1.0000 0.1493940043
C   C13       1.0  0.02890  0.25920  0.03535  1.0000 -0.200799273
C   C14       1.0  0.97110  0.74080  0.96465  1.0000 -0.200799273
C   C15       1.0  0.96990  0.26880  0.99960  1.0000 -0.206737656
C   C16       1.0  0.03010  0.73120  0.00040  1.0000 -0.206737656
C   C17       1.0  0.03690  0.35010  0.98583  1.0000 0.160008288
C   C18       1.0  0.96310  0.64990  0.01417  1.0000 0.160008288
C   C19       1.0  0.00730  0.38440  0.94954  1.0000 -0.1073880754
C   C20       1.0  0.99270  0.61560  0.05046  1.0000 -0.1073880754
C   C21       1.0  0.07090  0.46710  0.93796  1.0000 0.160008288
C   C22       1.0  0.92910  0.53290  0.06204  1.0000 0.160008288
C   C23       1.0  0.04090  0.49720  0.89974  1.0000 -0.200799273
C   C24       1.0  0.95910  0.50280  0.10026  1.0000 -0.206737656
C   C25       1.0  0.12260  0.57440  0.89819  1.0000 -0.200799273
C   C26       1.0  0.87740  0.42560  0.10181  1.0000 -0.200799273
C   C27       1.0  0.20600  0.59410  0.93526  1.0000 0.1493940043
C   C28       1.0  0.79400  0.40590  0.06474  1.0000 0.1493940043
C   C29       1.0  0.31020  0.66560  0.94368  1.0000 -0.1073880754
C   C30       1.0  0.68980  0.33440  0.05632  1.0000 -0.1073880754
C   C31       1.0  0.39900  0.67780  0.97717  1.0000 0.1493940043
C   C32       1.0  0.60100  0.32220  0.02283  1.0000 0.1493940043
C   C33       1.0  0.50650  0.74830  0.98675  1.0000 -0.1918039908
C   C34       1.0  0.49350  0.25170  0.01325  1.0000 -0.1918039908
C   C35       1.0  0.56470  0.73640  0.02252  1.0000 -0.200799273
C   C36       1.0  0.43530  0.26360  0.97748  1.0000 -0.200799273
C   C37       1.0  0.49660  0.65660  0.03647  1.0000 0.1657951546
C   C38       1.0  0.50340  0.34340  0.96353  1.0000 0.1657951546
C   C39       1.0  0.52520  0.62200  0.07282  1.0000 -0.1226924097
C   C40       1.0  0.47480  0.37800  0.92718  1.0000 -0.1226924097
C   C41       1.0  0.19060  0.28430  0.11093  1.0000 0.0896463843
C   C42       1.0  0.80940  0.71570  0.88907  1.0000 0.0896463843
C   C43       1.0  0.10750  0.30110  0.13340  1.0000 -0.1561959434
C   C44       1.0  0.89250  0.69890  0.86660  1.0000 -0.1561959434
C   C45       1.0  0.07500  0.23910  0.15997  1.0000 -0.0911808265
C   C46       1.0  0.92500  0.76090  0.84003  1.0000 -0.0911808265
C   C47       1.0  0.12630  0.15810  0.16455  1.0000 -0.0476994188
C   C48       1.0  0.87370  0.84190  0.83545  1.0000 -0.0476994188
C   C49       1.0  0.20960  0.14110  0.14238  1.0000 -0.0817548157
C   C50       1.0  0.79040  0.85890  0.85762  1.0000 -0.0817548157
C   C51       1.0  0.24260  0.20460  0.11619  1.0000 -0.1561959434
C   C52       1.0  0.75740  0.79540  0.88381  1.0000 -0.1561959434
C   C53       1.0  0.08540  0.09000  0.19168  1.0000 0.6320125458
C   C54       1.0  0.91460  0.91000  0.80832  1.0000 0.6320125458
C   C55       1.0  0.90980  0.32020  0.91921  1.0000 0.0896463843
C   C56       1.0  0.09020  0.67980  0.08079  1.0000 0.0896463843
C   C57       1.0  0.92800  0.23290  0.90051  1.0000 -0.1405142983
C   C58       1.0  0.07200  0.76710  0.09949  1.0000 -0.1405142983
C   C59       1.0  0.84530  0.17450  0.87009  1.0000 -0.096796455
C   C60       1.0  0.15470  0.82550  0.12991  1.0000 -0.096796455
C   C61       1.0  0.73920  0.20200  0.85872  1.0000 -0.0104755079
C   C62       1.0  0.26080  0.79800  0.14128  1.0000 -0.0104755079
C   C63       1.0  0.71590  0.28620  0.87864  1.0000 -0.1073880754
C   C64       1.0  0.28410  0.71380  0.12136  1.0000 -0.1073880754
C   C65       1.0  0.80220  0.34610  0.90857  1.0000 -0.1561959434
C   C66       1.0  0.19780  0.65390  0.09143  1.0000 -0.1561959434
C   C67       1.0  0.65080  0.13890  0.82407  1.0000 0.6083183336
C   C68       1.0  0.34920  0.86110  0.17593  1.0000 0.6083183336
C   C69       1.0  0.32750  0.73260  0.91298  1.0000 0.0990346916
C   C70       1.0  0.67250  0.26740  0.08702  1.0000 0.0990346916
C   C71       1.0  0.41650  0.73330  0.89193  1.0000 -0.1516007396
C   C72       1.0  0.58350  0.26670  0.10807  1.0000 -0.1561959434
C   C73       1.0  0.42690  0.78900  0.86179  1.0000 -0.0911808265
C   C74       1.0  0.57310  0.21100  0.13821  1.0000 -0.0911808265
C   C75       1.0  0.34590  0.84610  0.85195  1.0000 -0.0376697055
C   C76       1.0  0.65410  0.15390  0.14805  1.0000 -0.0376697055
C   C77       1.0  0.25630  0.84860  0.87305  1.0000 -0.096796455
C   C78       1.0  0.74370  0.15140  0.12695  1.0000 -0.096796455
C   C79       1.0  0.24740  0.79310  0.90390  1.0000 -0.1516007396
C   C80       1.0  0.75260  0.20690  0.09610  1.0000 -0.1516007396
C   C81       1.0  0.34890  0.90340  0.81820  1.0000 0.6153614121
C   C82       1.0  0.65110  0.09660  0.18180  1.0000 0.6153614121
C   C83       1.0  0.63250  0.67820  0.10174  1.0000 0.0896463843
C   C84       1.0  0.36750  0.32180  0.89826  1.0000 0.0896463843
C   C85       1.0  0.73010  0.63400  0.11115  1.0000 -0.1561959434
C   C86       1.0  0.26990  0.36600  0.88885  1.0000 -0.1561959434
C   C87       1.0  0.82410  0.68300  0.13939  1.0000 -0.0911808265
C   C88       1.0  0.17590  0.31700  0.86061  1.0000 -0.0911808265
C   C89       1.0  0.82590  0.77610  0.16030  1.0000 -0.0376697055
C   C90       1.0  0.17410  0.22390  0.83970  1.0000 -0.0376697055
C   C91       1.0  0.73090  0.82050  0.15124  1.0000 -0.0817548157
C   C92       1.0  0.26910  0.17950  0.84876  1.0000 -0.0817548157
C   C93       1.0  0.63490  0.77040  0.12180  1.0000 -0.1405142983
C   C94       1.0  0.36510  0.22960  0.87820  1.0000 -0.1405142983
C   C95       1.0  0.92870  0.82440  0.19226  1.0000 0.6083183336
C   C96       1.0  0.07130  0.17560  0.80774  1.0000 0.6083183336
C   C97       1.0  0.90910  0.54090  0.57582  1.0000 0.160008288
C   C98       1.0  0.09090  0.45910  0.42418  1.0000 0.160008288
C   C99       1.0  0.91790  0.52330  0.61693  1.0000 -0.206737656
C   C100      1.0  0.08210  0.47670  0.38307  1.0000 -0.206737656
C   C101      1.0  0.83230  0.44650  0.61756  1.0000 -0.1918039908
C   C102      1.0  0.16770  0.55350  0.38244  1.0000 -0.1918039908
C   C103      1.0  0.76880  0.41560  0.57655  1.0000 0.1493940043
C   C104      1.0  0.23120  0.58440  0.42345  1.0000 0.1493940043
C   C105      1.0  0.67340  0.33870  0.56537  1.0000 -0.1226924097
C   C106      1.0  0.32660  0.66130  0.43463  1.0000 -0.1226924097
C   C107      1.0  0.59900  0.31740  0.52796  1.0000 0.1657951546
C   C108      1.0  0.40100  0.68260  0.47204  1.0000 0.1657951546
C   C109      1.0  0.50000  0.23850  0.51424  1.0000 -0.200799273
C   C110      1.0  0.50000  0.76150  0.48576  1.0000 -0.200799273
C   C111      1.0  0.45320  0.24400  0.47556  1.0000 -0.200799273
C   C112      1.0  0.54680  0.75600  0.52444  1.0000 -0.200799273
C   C113      1.0  0.52040  0.32720  0.46409  1.0000 0.160008288
C   C114      1.0  0.47960  0.67280  0.53591  1.0000 0.160008288
C   C115      1.0  0.50100  0.35740  0.42665  1.0000 -0.1226924097
C   C116      1.0  0.49900  0.64260  0.57335  1.0000 -0.1226924097
C   C117      1.0  0.56830  0.43960  0.41580  1.0000 0.160008288
C   C118      1.0  0.43170  0.56040  0.58420  1.0000 0.160008288
C   C119      1.0  0.54440  0.46840  0.37650  1.0000 -0.200799273
C   C120      1.0  0.45560  0.53160  0.62350  1.0000 -0.200799273
C   C121      1.0  0.63050  0.54610  0.37595  1.0000 -0.200799273
C   C122      1.0  0.36950  0.45390  0.62405  1.0000 -0.200799273
C   C123      1.0  0.70620  0.56560  0.41542  1.0000 0.160008288
C   C124      1.0  0.29380  0.43440  0.58458  1.0000 0.160008288
C   C125      1.0  0.80930  0.63660  0.42563  1.0000 -0.1226924097
C   C126      1.0  0.19070  0.36340  0.57437  1.0000 -0.1226924097
C   C127      1.0  0.89020  0.65090  0.46144  1.0000 0.1657951546
C   C128      1.0  0.10980  0.34910  0.53856  1.0000 0.1657951546
C   C129      1.0  0.99910  0.72110  0.47269  1.0000 -0.206737656
C   C130      1.0  0.00090  0.27890  0.52731  1.0000 -0.206737656
C   C131      1.0  0.04670  0.71490  0.51115  1.0000 -0.206737656
C   C132      1.0  0.95330  0.28510  0.48885  1.0000 -0.206737656
C   C133      1.0  0.97120  0.64070  0.52469  1.0000 0.160008288
C   C134      1.0  0.02880  0.35930  0.47531  1.0000 0.160008288
C   C135      1.0  0.98340  0.61520  0.56300  1.0000 -0.1226924097
C   C136      1.0  0.01660  0.38480  0.43700  1.0000 -0.1226924097
C   C137      1.0  0.64620  0.27330  0.59525  1.0000 0.0990346916
C   C138      1.0  0.35380  0.72670  0.40475  1.0000 0.0990346916
C   C139      1.0  0.72500  0.21930  0.61105  1.0000 -0.1516007396
C   C140      1.0  0.27500  0.78070  0.38895  1.0000 -0.1516007396
C   C141      1.0  0.70390  0.16110  0.63979  1.0000 -0.096796455
C   C142      1.0  0.29610  0.83890  0.36021  1.0000 -0.096796455
C   C143      1.0  0.59840  0.15270  0.65287  1.0000 -0.0376697055
C   C144      1.0  0.40160  0.84730  0.34713  1.0000 -0.0376697055
C   C145      1.0  0.51720  0.20430  0.63656  1.0000 -0.0911808265
C   C146      1.0  0.48280  0.79570  0.36344  1.0000 -0.0911808265
C   C147      1.0  0.53980  0.26560  0.60896  1.0000 -0.1561959434
C   C148      1.0  0.46020  0.73440  0.39104  1.0000 -0.1561959434
C   C149      1.0  0.56910  0.08990  0.68293  1.0000 0.6031479435
C   C150      1.0  0.43090  0.91010  0.31707  1.0000 0.6031479435
C   C151      1.0  0.40170  0.29850  0.39639  1.0000 0.0896463843
C   C152      1.0  0.59830  0.70150  0.60361  1.0000 0.0896463843
C   C153      1.0  0.41600  0.21640  0.37175  1.0000 -0.1337942583
C   C154      1.0  0.58400  0.78360  0.62825  1.0000 -0.1337942583
C   C155      1.0  0.32350  0.16110  0.34248  1.0000 -0.0817548157
C   C156      1.0  0.67650  0.83890  0.65752  1.0000 -0.0817548157
C   C157      1.0  0.21640  0.18590  0.33774  1.0000 -0.0300103137
C   C158      1.0  0.78360  0.81410  0.66226  1.0000 -0.0300103137
C   C159      1.0  0.20230  0.26800  0.36180  1.0000 -0.096796455
C   C160      1.0  0.79770  0.73200  0.63820  1.0000 -0.096796455
C   C161      1.0  0.29480  0.32250  0.39118  1.0000 -0.1516007396
C   C162      1.0  0.70520  0.67750  0.60882  1.0000 -0.1516007396
C   C163      1.0  0.11510  0.12850  0.30652  1.0000 0.6320125458
C   C164      1.0  0.88490  0.87150  0.69348  1.0000 0.6320125458
C   C165      1.0  0.84350  0.69770  0.39463  1.0000 0.0990346916
C   C166      1.0  0.15650  0.30230  0.60537  1.0000 0.0990346916
C   C167      1.0  0.92720  0.67580  0.37330  1.0000 -0.1516007396
C   C168      1.0  0.07280  0.32420  0.62670  1.0000 -0.1516007396
C   C169      1.0  0.96360  0.73170  0.34589  1.0000 -0.0911808265
C   C170      1.0  0.03640  0.26830  0.65411  1.0000 -0.0911808265
C   C171      1.0  0.91380  0.81140  0.33832  1.0000 -0.0476994188
C   C172      1.0  0.08620  0.18860  0.66168  1.0000 -0.0476994188
C   C173      1.0  0.82780  0.83400  0.35923  1.0000 -0.0817548157
C   C174      1.0  0.17220  0.16600  0.64077  1.0000 -0.0817548157
C   C175      1.0  0.79300  0.77710  0.38735  1.0000 -0.1516007396
C   C176      1.0  0.20700  0.22290  0.61265  1.0000 -0.1516007396
C   C177      1.0  0.95490  0.87330  0.30920  1.0000 0.6320125458
C   C178      1.0  0.04510  0.12670  0.69080  1.0000 0.6320125458
C   C179      1.0  0.08000  0.68020  0.59384  1.0000 0.0896463843
C   C180      1.0  0.92000  0.31980  0.40616  1.0000 0.0896463843
C   C181      1.0  0.17470  0.64470  0.61254  1.0000 -0.1516007396
C   C182      1.0  0.82530  0.35530  0.38746  1.0000 -0.1516007396
C   C183      1.0  0.25550  0.70200  0.64324  1.0000 -0.096796455
C   C184      1.0  0.74450  0.29800  0.35676  1.0000 -0.096796455
C   C185      1.0  0.24350  0.79840  0.65721  1.0000 -0.0229138145
C   C186      1.0  0.75650  0.20160  0.34279  1.0000 -0.0229138145
C   C187      1.0  0.14900  0.83490  0.63878  1.0000 -0.0911808265
C   C188      1.0  0.85100  0.16510  0.36122  1.0000 -0.0911808265
C   C189      1.0  0.07130  0.77600  0.60681  1.0000 -0.1516007396
C   C190      1.0  0.92870  0.22400  0.39319  1.0000 -0.1516007396
C   C191      1.0  0.32360  0.86140  0.69290  1.0000 0.6031479435
C   C192      1.0  0.67640  0.13860  0.30710  1.0000 0.6031479435
C   C193      1.0  0.63790  0.81260  0.24300  1.0000 0.4884382086
C   C194      1.0  0.36210  0.18740  0.75700  1.0000 0.4884382086
N   N1        1.0  0.35890  0.48380  0.06478  1.0000 -0.3194793565
N   N2        1.0  0.64110  0.51620  0.93522  1.0000 -0.3194793565
N   N3        1.0  0.13400  0.38850  0.01478  1.0000 -0.3194793565
N   N4        1.0  0.86600  0.61150  0.98522  1.0000 -0.3194793565
N   N5        1.0  0.17070  0.52690  0.95899  1.0000 -0.3117121958
N   N6        1.0  0.82930  0.47310  0.04101  1.0000 -0.3117121958
N   N7        1.0  0.39690  0.62220  0.00806  1.0000 -0.3194793565
N   N8        1.0  0.60310  0.37780  0.99194  1.0000 -0.3194793565
N   N9        1.0  0.81660  0.47630  0.55237  1.0000 -0.3117121958
N   N10       1.0  0.18340  0.52370  0.44763  1.0000 -0.3117121958
N   N11       1.0  0.60990  0.36920  0.49610  1.0000 -0.3285282356
N   N12       1.0  0.39010  0.63080  0.50390  1.0000 -0.3285282356
N   N13       1.0  0.66560  0.50060  0.43884  1.0000 -0.3117121958
N   N14       1.0  0.33440  0.49940  0.56116  1.0000 -0.3117121958
N   N15       1.0  0.87610  0.60270  0.49376  1.0000 -0.3367787999
N   N16       1.0  0.12390  0.39730  0.50624  1.0000 -0.3367787999
O   O1        1.0  0.00240  0.10820  0.20841  1.0000 -0.6483787102
O   O2        1.0  0.99760  0.89180  0.79159  1.0000 -0.6483787102
O   O3        1.0  0.13970  0.02090  0.19759  1.0000 -0.6483787102
O   O4        1.0  0.86030  0.97910  0.80241  1.0000 -0.6483787102
O   O5        1.0  0.68850  0.10730  0.79371  1.0000 -0.682724799
O   O6        1.0  0.31150  0.89270  0.20629  1.0000 -0.682724799
O   O7        1.0  0.54590  0.11710  0.82635  1.0000 -0.5486581726
O   O8        1.0  0.45410  0.88290  0.17365  1.0000 -0.5486581726
O   O9        1.0  0.43140  0.89870  0.79902  1.0000 -0.6109446687
O   O10       1.0  0.56860  0.10130  0.20098  1.0000 -0.6109446687
O   O11       1.0  0.27190  0.95080  0.80894  1.0000 -0.6389254284
O   O12       1.0  0.72810  0.04920  0.19106  1.0000 -0.6389254284
O   O13       1.0  0.01640  0.78430  0.19638  1.0000 -0.5958834095
O   O14       1.0  0.98360  0.21570  0.80362  1.0000 -0.5958834095
O   O15       1.0  0.92660  0.90350  0.21449  1.0000 -0.688015799
O   O16       1.0  0.07340  0.09650  0.78551  1.0000 -0.688015799
O   O17       1.0  0.64950  0.06520  0.70695  1.0000 -0.7196007771
O   O18       1.0  0.35050  0.93480  0.29305  1.0000 -0.7196007771
O   O19       1.0  0.46270  0.05970  0.68430  1.0000 -0.5630919737
O   O20       1.0  0.53730  0.94030  0.31570  1.0000 -0.5630919737
O   O21       1.0  0.13200  0.05300  0.28513  1.0000 -0.682724799
O   O22       1.0  0.86800  0.94700  0.71487  1.0000 -0.682724799
O   O23       1.0  0.01920  0.15710  0.30170  1.0000 -0.6109446687
O   O24       1.0  0.98080  0.84290  0.69830  1.0000 -0.6109446687
O   O25       1.0  0.90590  0.94420  0.30245  1.0000 -0.6275645596
O   O26       1.0  0.09410  0.05580  0.69755  1.0000 -0.6275645596
O   O27       1.0  0.03770  0.85070  0.29302  1.0000 -0.6556770606
O   O28       1.0  0.96230  0.14930  0.70698  1.0000 -0.6483787102
O   O29       1.0  0.42770  0.84860  0.70260  1.0000 -0.5830583376
O   O30       1.0  0.57230  0.15140  0.29740  1.0000 -0.5830583376
O   O31       1.0  0.28670  0.92450  0.71400  1.0000 -0.6706247133
O   O32       1.0  0.71330  0.07550  0.28600  1.0000 -0.6706247133
O   O33       1.0  0.68470  0.90090  0.24011  1.0000 -0.6389254284
O   O34       1.0  0.31530  0.09910  0.75989  1.0000 -0.6389254284
O   O35       1.0  0.52580  0.79670  0.24515  1.0000 -0.5671151681
O   O36       1.0  0.47420  0.20330  0.75485  1.0000 -0.5671151681
