# DDEC6 charges by PACMAN v1.1 (https://github.com/mtap-research/PACMAN-charge/)
data_2008[SiZn][bnn]3[ASR]1
_chemical_formula_sum              "Zn16 Si12 H272 C336 O56"
_cell_length_a       27.0818
_cell_length_b       12.0891
_cell_length_c       36.3156
_cell_angle_alpha    90
_cell_angle_beta     130.03
_cell_angle_gamma    90

_symmetry_space_group_name_H-M    "P 1"
_symmetry_Int_Tables_number       1

loop_
  _symmetry_equiv_pos_as_xyz
  'x, y, z'

loop_
  _atom_site_type_symbol
  _atom_site_label
  _atom_site_symmetry_multiplicity
  _atom_site_fract_x
  _atom_site_fract_y
  _atom_site_fract_z
  _atom_site_occupancy
  _atom_site_charge
Zn  Zn1       1.0  0.29686  0.46232  0.25795  1.0000 0.9572664441
Zn  Zn2       1.0  0.20632  0.68683  0.23521  1.0000 0.966697389
Zn  Zn3       1.0  0.79686  0.96232  0.25795  1.0000 0.9572664441
Zn  Zn4       1.0  0.70632  0.18683  0.23521  1.0000 0.966697389
Zn  Zn5       1.0  0.70314  0.46232  0.24205  1.0000 0.9572664441
Zn  Zn6       1.0  0.79368  0.68683  0.26479  1.0000 0.966697389
Zn  Zn7       1.0  0.20314  0.96232  0.24205  1.0000 0.9572664441
Zn  Zn8       1.0  0.29368  0.18683  0.26479  1.0000 0.966697389
Zn  Zn9       1.0  0.70314  0.53768  0.74205  1.0000 0.9572664441
Zn  Zn10      1.0  0.79368  0.31317  0.76479  1.0000 0.966697389
Zn  Zn11      1.0  0.20314  0.03768  0.74205  1.0000 0.9572664441
Zn  Zn12      1.0  0.29368  0.81317  0.76479  1.0000 0.966697389
Zn  Zn13      1.0  0.29686  0.53768  0.75795  1.0000 0.9572664441
Zn  Zn14      1.0  0.20632  0.31317  0.73521  1.0000 0.966697389
Zn  Zn15      1.0  0.79686  0.03768  0.75795  1.0000 0.9572664441
Zn  Zn16      1.0  0.70632  0.81317  0.73521  1.0000 0.966697389
Si  Si1       1.0  0.08127  0.52562  0.95115  1.0000 0.6323609741
Si  Si2       1.0  0.58127  0.02562  0.95115  1.0000 0.6323609741
Si  Si3       1.0  0.91873  0.52562  0.54885  1.0000 0.6323609741
Si  Si4       1.0  0.41873  0.02562  0.54885  1.0000 0.6323609741
Si  Si5       1.0  0.91873  0.47438  0.04885  1.0000 0.6323609741
Si  Si6       1.0  0.41873  0.97438  0.04885  1.0000 0.6323609741
Si  Si7       1.0  0.08127  0.47438  0.45115  1.0000 0.6323609741
Si  Si8       1.0  0.58127  0.97438  0.45115  1.0000 0.6323609741
Si  Si9       1.0  0.00000  0.15289  0.25000  1.0000 0.6470769288
Si  Si10      1.0  0.50000  0.65289  0.25000  1.0000 0.6470769288
Si  Si11      1.0  0.00000  0.84711  0.75000  1.0000 0.6470769288
Si  Si12      1.0  0.50000  0.34711  0.75000  1.0000 0.6470769288
H   H1        1.0  0.20510  0.46690  0.04420  1.0000 0.1184751066
H   H2        1.0  0.25200  0.48660  0.12410  1.0000 0.1288761771
H   H3        1.0  0.10470  0.67570  0.08610  1.0000 0.1184751066
H   H4        1.0  0.05650  0.65480  0.00630  1.0000 0.109643472
H   H5        1.0  0.08830  0.34390  0.00820  1.0000 0.109643472
H   H6        1.0  0.04100  0.17780  0.99690  1.0000 0.1288761771
H   H7        1.0  0.94390  0.20150  0.85680  1.0000 0.109643472
H   H8        1.0  0.98620  0.37660  0.86690  1.0000 0.1046817543
H   H9        1.0  0.90420  0.06780  0.88940  1.0000 0.150784591
H   H10       1.0  0.96790  0.00410  0.91060  1.0000 0.1377396287
H   H11       1.0  0.95420  0.04160  0.94460  1.0000 0.1377396287
H   H12       1.0  0.94470  0.53570  0.90570  1.0000 0.109643472
H   H13       1.0  0.85790  0.65130  0.85250  1.0000 0.1288761771
H   H14       1.0  0.97450  0.85950  0.85400  1.0000 0.1184751066
H   H15       1.0  0.06070  0.74190  0.90630  1.0000 0.109643472
H   H16       1.0  0.07920  0.48440  0.87120  1.0000 0.1184751066
H   H17       1.0  0.64140  0.02210  0.85080  1.0000 0.1288761771
H   H18       1.0  0.77220  0.16340  0.97770  1.0000 0.1184751066
H   H19       1.0  0.20780  0.62720  0.99700  1.0000 0.109643472
H   H20       1.0  0.73070  0.15750  0.86760  1.0000 0.1377396287
H   H21       1.0  0.78620  0.18880  0.92160  1.0000 0.1288761771
H   H22       1.0  0.78160  0.06830  0.90370  1.0000 0.150784591
H   H23       1.0  0.13680  0.15080  0.29210  1.0000 0.109643472
H   H24       1.0  0.20440  0.26650  0.29210  1.0000 0.1184751066
H   H25       1.0  0.05980  0.48230  0.21040  1.0000 0.1184751066
H   H26       1.0  0.99210  0.36480  0.20970  1.0000 0.109643472
H   H27       1.0  0.38480  0.68220  0.14960  1.0000 0.109643472
H   H28       1.0  0.83430  0.09020  0.07810  1.0000 0.1184751066
H   H29       1.0  0.96570  0.85590  0.14590  1.0000 0.1184751066
H   H30       1.0  0.01680  0.94600  0.21800  1.0000 0.1184751066
H   H31       1.0  0.84940  0.96370  0.03310  1.0000 0.1288761771
H   H32       1.0  0.89460  0.86070  0.05940  1.0000 0.1377396287
H   H33       1.0  0.82660  0.86210  0.04560  1.0000 0.1377396287
H   H34       1.0  0.38067  0.31986  0.28849  1.0000 0.3785734864
H   H35       1.0  0.70510  0.96690  0.04420  1.0000 0.1184751066
H   H36       1.0  0.75200  0.98660  0.12410  1.0000 0.1288761771
H   H37       1.0  0.60470  0.17570  0.08610  1.0000 0.1184751066
H   H38       1.0  0.55650  0.15480  0.00630  1.0000 0.109643472
H   H39       1.0  0.58830  0.84390  0.00820  1.0000 0.109643472
H   H40       1.0  0.54100  0.67780  0.99690  1.0000 0.1288761771
H   H41       1.0  0.44390  0.70150  0.85680  1.0000 0.109643472
H   H42       1.0  0.48620  0.87660  0.86690  1.0000 0.1046817543
H   H43       1.0  0.40420  0.56780  0.88940  1.0000 0.150784591
H   H44       1.0  0.46790  0.50410  0.91060  1.0000 0.1377396287
H   H45       1.0  0.45420  0.54160  0.94460  1.0000 0.1377396287
H   H46       1.0  0.44470  0.03570  0.90570  1.0000 0.109643472
H   H47       1.0  0.35790  0.15130  0.85250  1.0000 0.1288761771
H   H48       1.0  0.47450  0.35950  0.85400  1.0000 0.1184751066
H   H49       1.0  0.56070  0.24190  0.90630  1.0000 0.109643472
H   H50       1.0  0.57920  0.98440  0.87120  1.0000 0.1184751066
H   H51       1.0  0.14140  0.52210  0.85080  1.0000 0.1288761771
H   H52       1.0  0.27220  0.66340  0.97770  1.0000 0.1184751066
H   H53       1.0  0.70780  0.12720  0.99700  1.0000 0.109643472
H   H54       1.0  0.23070  0.65750  0.86760  1.0000 0.1377396287
H   H55       1.0  0.28620  0.68880  0.92160  1.0000 0.1288761771
H   H56       1.0  0.28160  0.56830  0.90370  1.0000 0.150784591
H   H57       1.0  0.63680  0.65080  0.29210  1.0000 0.109643472
H   H58       1.0  0.70440  0.76650  0.29210  1.0000 0.1184751066
H   H59       1.0  0.55980  0.98230  0.21040  1.0000 0.1184751066
H   H60       1.0  0.49210  0.86480  0.20970  1.0000 0.109643472
H   H61       1.0  0.88480  0.18220  0.14960  1.0000 0.109643472
H   H62       1.0  0.33430  0.59020  0.07810  1.0000 0.1184751066
H   H63       1.0  0.46570  0.35590  0.14590  1.0000 0.1184751066
H   H64       1.0  0.51680  0.44600  0.21800  1.0000 0.1184751066
H   H65       1.0  0.34940  0.46370  0.03310  1.0000 0.1288761771
H   H66       1.0  0.39460  0.36070  0.05940  1.0000 0.1377396287
H   H67       1.0  0.32660  0.36210  0.04560  1.0000 0.1377396287
H   H68       1.0  0.88067  0.81986  0.28849  1.0000 0.3785734864
H   H69       1.0  0.79490  0.46690  0.45580  1.0000 0.1184751066
H   H70       1.0  0.74800  0.48660  0.37590  1.0000 0.1288761771
H   H71       1.0  0.89530  0.67570  0.41390  1.0000 0.1184751066
H   H72       1.0  0.94350  0.65480  0.49370  1.0000 0.109643472
H   H73       1.0  0.91170  0.34390  0.49180  1.0000 0.109643472
H   H74       1.0  0.95900  0.17780  0.50310  1.0000 0.1288761771
H   H75       1.0  0.05610  0.20150  0.64320  1.0000 0.109643472
H   H76       1.0  0.01380  0.37660  0.63310  1.0000 0.1046817543
H   H77       1.0  0.09580  0.06780  0.61060  1.0000 0.150784591
H   H78       1.0  0.03210  0.00410  0.58940  1.0000 0.1377396287
H   H79       1.0  0.04580  0.04160  0.55540  1.0000 0.1377396287
H   H80       1.0  0.05530  0.53570  0.59430  1.0000 0.109643472
H   H81       1.0  0.14210  0.65130  0.64750  1.0000 0.1288761771
H   H82       1.0  0.02550  0.85950  0.64600  1.0000 0.1184751066
H   H83       1.0  0.93930  0.74190  0.59370  1.0000 0.109643472
H   H84       1.0  0.92080  0.48440  0.62880  1.0000 0.1184751066
H   H85       1.0  0.35860  0.02210  0.64920  1.0000 0.1288761771
H   H86       1.0  0.22780  0.16340  0.52230  1.0000 0.1184751066
H   H87       1.0  0.79220  0.62720  0.50300  1.0000 0.109643472
H   H88       1.0  0.26930  0.15750  0.63240  1.0000 0.1377396287
H   H89       1.0  0.21380  0.18880  0.57840  1.0000 0.1288761771
H   H90       1.0  0.21840  0.06830  0.59630  1.0000 0.150784591
H   H91       1.0  0.86320  0.15080  0.20790  1.0000 0.109643472
H   H92       1.0  0.79560  0.26650  0.20790  1.0000 0.1184751066
H   H93       1.0  0.94020  0.48230  0.28960  1.0000 0.1184751066
H   H94       1.0  0.00790  0.36480  0.29030  1.0000 0.109643472
H   H95       1.0  0.61520  0.68220  0.35040  1.0000 0.109643472
H   H96       1.0  0.16570  0.09020  0.42190  1.0000 0.1184751066
H   H97       1.0  0.03430  0.85590  0.35410  1.0000 0.1184751066
H   H98       1.0  0.98320  0.94600  0.28200  1.0000 0.1184751066
H   H99       1.0  0.15060  0.96370  0.46690  1.0000 0.1288761771
H   H100      1.0  0.10540  0.86070  0.44060  1.0000 0.1377396287
H   H101      1.0  0.17340  0.86210  0.45440  1.0000 0.1377396287
H   H102      1.0  0.61933  0.31986  0.21151  1.0000 0.3785734864
H   H103      1.0  0.29490  0.96690  0.45580  1.0000 0.1184751066
H   H104      1.0  0.24800  0.98660  0.37590  1.0000 0.1288761771
H   H105      1.0  0.39530  0.17570  0.41390  1.0000 0.1184751066
H   H106      1.0  0.44350  0.15480  0.49370  1.0000 0.109643472
H   H107      1.0  0.41170  0.84390  0.49180  1.0000 0.109643472
H   H108      1.0  0.45900  0.67780  0.50310  1.0000 0.1288761771
H   H109      1.0  0.55610  0.70150  0.64320  1.0000 0.109643472
H   H110      1.0  0.51380  0.87660  0.63310  1.0000 0.1046817543
H   H111      1.0  0.59580  0.56780  0.61060  1.0000 0.150784591
H   H112      1.0  0.53210  0.50410  0.58940  1.0000 0.1377396287
H   H113      1.0  0.54580  0.54160  0.55540  1.0000 0.1377396287
H   H114      1.0  0.55530  0.03570  0.59430  1.0000 0.109643472
H   H115      1.0  0.64210  0.15130  0.64750  1.0000 0.1288761771
H   H116      1.0  0.52550  0.35950  0.64600  1.0000 0.1184751066
H   H117      1.0  0.43930  0.24190  0.59370  1.0000 0.109643472
H   H118      1.0  0.42080  0.98440  0.62880  1.0000 0.1184751066
H   H119      1.0  0.85860  0.52210  0.64920  1.0000 0.1288761771
H   H120      1.0  0.72780  0.66340  0.52230  1.0000 0.1184751066
H   H121      1.0  0.29220  0.12720  0.50300  1.0000 0.109643472
H   H122      1.0  0.76930  0.65750  0.63240  1.0000 0.1377396287
H   H123      1.0  0.71380  0.68880  0.57840  1.0000 0.1288761771
H   H124      1.0  0.71840  0.56830  0.59630  1.0000 0.150784591
H   H125      1.0  0.36320  0.65080  0.20790  1.0000 0.109643472
H   H126      1.0  0.29560  0.76650  0.20790  1.0000 0.1184751066
H   H127      1.0  0.44020  0.98230  0.28960  1.0000 0.1184751066
H   H128      1.0  0.50790  0.86480  0.29030  1.0000 0.109643472
H   H129      1.0  0.11520  0.18220  0.35040  1.0000 0.109643472
H   H130      1.0  0.66570  0.59020  0.42190  1.0000 0.1184751066
H   H131      1.0  0.53430  0.35590  0.35410  1.0000 0.1184751066
H   H132      1.0  0.48320  0.44600  0.28200  1.0000 0.1184751066
H   H133      1.0  0.65060  0.46370  0.46690  1.0000 0.1288761771
H   H134      1.0  0.60540  0.36070  0.44060  1.0000 0.1377396287
H   H135      1.0  0.67340  0.36210  0.45440  1.0000 0.1377396287
H   H136      1.0  0.11933  0.81986  0.21151  1.0000 0.3785734864
H   H137      1.0  0.79490  0.53310  0.95580  1.0000 0.1184751066
H   H138      1.0  0.74800  0.51340  0.87590  1.0000 0.1288761771
H   H139      1.0  0.89530  0.32430  0.91390  1.0000 0.1184751066
H   H140      1.0  0.94350  0.34520  0.99370  1.0000 0.109643472
H   H141      1.0  0.91170  0.65610  0.99180  1.0000 0.109643472
H   H142      1.0  0.95900  0.82220  0.00310  1.0000 0.1288761771
H   H143      1.0  0.05610  0.79850  0.14320  1.0000 0.109643472
H   H144      1.0  0.01380  0.62340  0.13310  1.0000 0.1046817543
H   H145      1.0  0.09580  0.93220  0.11060  1.0000 0.150784591
H   H146      1.0  0.03210  0.99590  0.08940  1.0000 0.1377396287
H   H147      1.0  0.04580  0.95840  0.05540  1.0000 0.1377396287
H   H148      1.0  0.05530  0.46430  0.09430  1.0000 0.109643472
H   H149      1.0  0.14210  0.34870  0.14750  1.0000 0.1288761771
H   H150      1.0  0.02550  0.14050  0.14600  1.0000 0.1184751066
H   H151      1.0  0.93930  0.25810  0.09370  1.0000 0.109643472
H   H152      1.0  0.92080  0.51560  0.12880  1.0000 0.1184751066
H   H153      1.0  0.35860  0.97790  0.14920  1.0000 0.1288761771
H   H154      1.0  0.22780  0.83660  0.02230  1.0000 0.1184751066
H   H155      1.0  0.79220  0.37280  0.00300  1.0000 0.109643472
H   H156      1.0  0.26930  0.84250  0.13240  1.0000 0.1377396287
H   H157      1.0  0.21380  0.81120  0.07840  1.0000 0.1288761771
H   H158      1.0  0.21840  0.93170  0.09630  1.0000 0.150784591
H   H159      1.0  0.86320  0.84920  0.70790  1.0000 0.109643472
H   H160      1.0  0.79560  0.73350  0.70790  1.0000 0.1184751066
H   H161      1.0  0.94020  0.51770  0.78960  1.0000 0.1184751066
H   H162      1.0  0.00790  0.63520  0.79030  1.0000 0.109643472
H   H163      1.0  0.61520  0.31780  0.85040  1.0000 0.109643472
H   H164      1.0  0.16570  0.90980  0.92190  1.0000 0.1184751066
H   H165      1.0  0.03430  0.14410  0.85410  1.0000 0.1184751066
H   H166      1.0  0.98320  0.05400  0.78200  1.0000 0.1184751066
H   H167      1.0  0.15060  0.03630  0.96690  1.0000 0.1288761771
H   H168      1.0  0.10540  0.13930  0.94060  1.0000 0.1377396287
H   H169      1.0  0.17340  0.13790  0.95440  1.0000 0.1377396287
H   H170      1.0  0.61933  0.68014  0.71151  1.0000 0.3785734864
H   H171      1.0  0.29490  0.03310  0.95580  1.0000 0.1184751066
H   H172      1.0  0.24800  0.01340  0.87590  1.0000 0.1288761771
H   H173      1.0  0.39530  0.82430  0.91390  1.0000 0.1184751066
H   H174      1.0  0.44350  0.84520  0.99370  1.0000 0.109643472
H   H175      1.0  0.41170  0.15610  0.99180  1.0000 0.109643472
H   H176      1.0  0.45900  0.32220  0.00310  1.0000 0.1288761771
H   H177      1.0  0.55610  0.29850  0.14320  1.0000 0.109643472
H   H178      1.0  0.51380  0.12340  0.13310  1.0000 0.1046817543
H   H179      1.0  0.59580  0.43220  0.11060  1.0000 0.150784591
H   H180      1.0  0.53210  0.49590  0.08940  1.0000 0.1377396287
H   H181      1.0  0.54580  0.45840  0.05540  1.0000 0.1377396287
H   H182      1.0  0.55530  0.96430  0.09430  1.0000 0.109643472
H   H183      1.0  0.64210  0.84870  0.14750  1.0000 0.1288761771
H   H184      1.0  0.52550  0.64050  0.14600  1.0000 0.1184751066
H   H185      1.0  0.43930  0.75810  0.09370  1.0000 0.109643472
H   H186      1.0  0.42080  0.01560  0.12880  1.0000 0.1184751066
H   H187      1.0  0.85860  0.47790  0.14920  1.0000 0.1288761771
H   H188      1.0  0.72780  0.33660  0.02230  1.0000 0.1184751066
H   H189      1.0  0.29220  0.87280  0.00300  1.0000 0.109643472
H   H190      1.0  0.76930  0.34250  0.13240  1.0000 0.1377396287
H   H191      1.0  0.71380  0.31120  0.07840  1.0000 0.1288761771
H   H192      1.0  0.71840  0.43170  0.09630  1.0000 0.150784591
H   H193      1.0  0.36320  0.34920  0.70790  1.0000 0.109643472
H   H194      1.0  0.29560  0.23350  0.70790  1.0000 0.1184751066
H   H195      1.0  0.44020  0.01770  0.78960  1.0000 0.1184751066
H   H196      1.0  0.50790  0.13520  0.79030  1.0000 0.109643472
H   H197      1.0  0.11520  0.81780  0.85040  1.0000 0.109643472
H   H198      1.0  0.66570  0.40980  0.92190  1.0000 0.1184751066
H   H199      1.0  0.53430  0.64410  0.85410  1.0000 0.1184751066
H   H200      1.0  0.48320  0.55400  0.78200  1.0000 0.1184751066
H   H201      1.0  0.65060  0.53630  0.96690  1.0000 0.1288761771
H   H202      1.0  0.60540  0.63930  0.94060  1.0000 0.1377396287
H   H203      1.0  0.67340  0.63790  0.95440  1.0000 0.1377396287
H   H204      1.0  0.11933  0.18014  0.71151  1.0000 0.3785734864
H   H205      1.0  0.20510  0.53310  0.54420  1.0000 0.1184751066
H   H206      1.0  0.25200  0.51340  0.62410  1.0000 0.1288761771
H   H207      1.0  0.10470  0.32430  0.58610  1.0000 0.1184751066
H   H208      1.0  0.05650  0.34520  0.50630  1.0000 0.109643472
H   H209      1.0  0.08830  0.65610  0.50820  1.0000 0.109643472
H   H210      1.0  0.04100  0.82220  0.49690  1.0000 0.1288761771
H   H211      1.0  0.94390  0.79850  0.35680  1.0000 0.109643472
H   H212      1.0  0.98620  0.62340  0.36690  1.0000 0.1046817543
H   H213      1.0  0.90420  0.93220  0.38940  1.0000 0.150784591
H   H214      1.0  0.96790  0.99590  0.41060  1.0000 0.1377396287
H   H215      1.0  0.95420  0.95840  0.44460  1.0000 0.1377396287
H   H216      1.0  0.94470  0.46430  0.40570  1.0000 0.109643472
H   H217      1.0  0.85790  0.34870  0.35250  1.0000 0.1288761771
H   H218      1.0  0.97450  0.14050  0.35400  1.0000 0.1184751066
H   H219      1.0  0.06070  0.25810  0.40630  1.0000 0.109643472
H   H220      1.0  0.07920  0.51560  0.37120  1.0000 0.1184751066
H   H221      1.0  0.64140  0.97790  0.35080  1.0000 0.1288761771
H   H222      1.0  0.77220  0.83660  0.47770  1.0000 0.1184751066
H   H223      1.0  0.20780  0.37280  0.49700  1.0000 0.109643472
H   H224      1.0  0.73070  0.84250  0.36760  1.0000 0.1377396287
H   H225      1.0  0.78620  0.81120  0.42160  1.0000 0.1288761771
H   H226      1.0  0.78160  0.93170  0.40370  1.0000 0.150784591
H   H227      1.0  0.13680  0.84920  0.79210  1.0000 0.109643472
H   H228      1.0  0.20440  0.73350  0.79210  1.0000 0.1184751066
H   H229      1.0  0.05980  0.51770  0.71040  1.0000 0.1184751066
H   H230      1.0  0.99210  0.63520  0.70970  1.0000 0.109643472
H   H231      1.0  0.38480  0.31780  0.64960  1.0000 0.109643472
H   H232      1.0  0.83430  0.90980  0.57810  1.0000 0.1184751066
H   H233      1.0  0.96570  0.14410  0.64590  1.0000 0.1184751066
H   H234      1.0  0.01680  0.05400  0.71800  1.0000 0.1184751066
H   H235      1.0  0.84940  0.03630  0.53310  1.0000 0.1288761771
H   H236      1.0  0.89460  0.13930  0.55940  1.0000 0.1377396287
H   H237      1.0  0.82660  0.13790  0.54560  1.0000 0.1377396287
H   H238      1.0  0.38067  0.68014  0.78849  1.0000 0.3785734864
H   H239      1.0  0.70510  0.03310  0.54420  1.0000 0.1184751066
H   H240      1.0  0.75200  0.01340  0.62410  1.0000 0.1288761771
H   H241      1.0  0.60470  0.82430  0.58610  1.0000 0.1184751066
H   H242      1.0  0.55650  0.84520  0.50630  1.0000 0.109643472
H   H243      1.0  0.58830  0.15610  0.50820  1.0000 0.109643472
H   H244      1.0  0.54100  0.32220  0.49690  1.0000 0.1288761771
H   H245      1.0  0.44390  0.29850  0.35680  1.0000 0.109643472
H   H246      1.0  0.48620  0.12340  0.36690  1.0000 0.1046817543
H   H247      1.0  0.40420  0.43220  0.38940  1.0000 0.150784591
H   H248      1.0  0.46790  0.49590  0.41060  1.0000 0.1377396287
H   H249      1.0  0.45420  0.45840  0.44460  1.0000 0.1377396287
H   H250      1.0  0.44470  0.96430  0.40570  1.0000 0.109643472
H   H251      1.0  0.35790  0.84870  0.35250  1.0000 0.1288761771
H   H252      1.0  0.47450  0.64050  0.35400  1.0000 0.1184751066
H   H253      1.0  0.56070  0.75810  0.40630  1.0000 0.109643472
H   H254      1.0  0.57920  0.01560  0.37120  1.0000 0.1184751066
H   H255      1.0  0.14140  0.47790  0.35080  1.0000 0.1288761771
H   H256      1.0  0.27220  0.33660  0.47770  1.0000 0.1184751066
H   H257      1.0  0.70780  0.87280  0.49700  1.0000 0.109643472
H   H258      1.0  0.23070  0.34250  0.36760  1.0000 0.1377396287
H   H259      1.0  0.28620  0.31120  0.42160  1.0000 0.1288761771
H   H260      1.0  0.28160  0.43170  0.40370  1.0000 0.150784591
H   H261      1.0  0.63680  0.34920  0.79210  1.0000 0.109643472
H   H262      1.0  0.70440  0.23350  0.79210  1.0000 0.1184751066
H   H263      1.0  0.55980  0.01770  0.71040  1.0000 0.1184751066
H   H264      1.0  0.49210  0.13520  0.70970  1.0000 0.109643472
H   H265      1.0  0.88480  0.81780  0.64960  1.0000 0.109643472
H   H266      1.0  0.33430  0.40980  0.57810  1.0000 0.1184751066
H   H267      1.0  0.46570  0.64410  0.64590  1.0000 0.1184751066
H   H268      1.0  0.51680  0.55400  0.71800  1.0000 0.1184751066
H   H269      1.0  0.34940  0.53630  0.53310  1.0000 0.1288761771
H   H270      1.0  0.39460  0.63930  0.55940  1.0000 0.1377396287
H   H271      1.0  0.32660  0.63790  0.54560  1.0000 0.1377396287
H   H272      1.0  0.88067  0.18014  0.78849  1.0000 0.3785734864
C   C1        1.0  0.12535  0.55930  0.01586  1.0000 -0.2102758719
C   C2        1.0  0.18441  0.50860  0.05227  1.0000 -0.0897709774
C   C3        1.0  0.21255  0.52000  0.10033  1.0000 -0.0993380803
C   C4        1.0  0.18215  0.58070  0.11289  1.0000 -0.0275459447
C   C5        1.0  0.12446  0.63260  0.07762  1.0000 -0.0993380803
C   C6        1.0  0.09601  0.62100  0.02975  1.0000 -0.0823758904
C   C7        1.0  0.21024  0.58680  0.16425  1.0000 0.5910968686
C   C8        1.0  0.04651  0.38280  0.94021  1.0000 -0.2306797451
C   C9        1.0  0.05850  0.31780  0.97690  1.0000 -0.0823758904
C   C10       1.0  0.02900  0.21630  0.97000  1.0000 -0.1890641881
C   C11       1.0  0.98330  0.17140  0.92550  1.0000 0.1801207765
C   C12       1.0  0.97140  0.23180  0.88760  1.0000 -0.2010857577
C   C13       1.0  0.99920  0.33700  0.89380  1.0000 -0.0823758904
C   C14       1.0  0.94920  0.06090  0.91670  1.0000 -0.4674367143
C   C15       1.0  0.01199  0.62460  0.91116  1.0000 -0.2010857577
C   C16       1.0  0.95092  0.60000  0.89508  1.0000 -0.0823758904
C   C17       1.0  0.89873  0.66960  0.86337  1.0000 -0.0993380803
C   C18       1.0  0.90805  0.76610  0.84818  1.0000 -0.023701776
C   C19       1.0  0.96846  0.79410  0.86413  1.0000 -0.0993380803
C   C20       1.0  0.02001  0.72320  0.89550  1.0000 -0.0897709774
C   C21       1.0  0.85118  0.83820  0.81169  1.0000 0.5910968686
C   C22       1.0  0.13740  0.54470  0.93750  1.0000 -0.2102758719
C   C23       1.0  0.11870  0.51930  0.89360  1.0000 -0.0897709774
C   C24       1.0  0.65600  0.04310  0.88100  1.0000 -0.172173896
C   C25       1.0  0.71450  0.09760  0.91220  1.0000 0.1801207765
C   C26       1.0  0.73310  0.12690  0.95560  1.0000 -0.172173896
C   C27       1.0  0.19450  0.60290  0.96750  1.0000 -0.0897709774
C   C28       1.0  0.75720  0.13120  0.90010  1.0000 -0.4519397138
C   C29       1.0  0.05713  0.24590  0.25174  1.0000 -0.2010857577
C   C30       1.0  0.12106  0.21790  0.27579  1.0000 -0.0823758904
C   C31       1.0  0.16193  0.28750  0.27611  1.0000 -0.0993380803
C   C32       1.0  0.13956  0.38890  0.25260  1.0000 -0.0275459447
C   C33       1.0  0.07573  0.41610  0.22731  1.0000 -0.0993380803
C   C34       1.0  0.03503  0.34520  0.22694  1.0000 -0.0897709774
C   C35       1.0  0.18368  0.46500  0.25332  1.0000 0.5979822518
C   C36       1.0  0.95439  0.06950  0.19347  1.0000 -0.2179139724
C   C37       1.0  0.90071  0.11380  0.14975  1.0000 -0.0823758904
C   C38       1.0  0.87030  0.05880  0.10650  1.0000 -0.175479552
C   C39       1.0  0.89280  0.95890  0.10510  1.0000 0.1801207765
C   C40       1.0  0.94770  0.92070  0.14650  1.0000 -0.172173896
C   C41       1.0  0.97870  0.97510  0.19030  1.0000 -0.0823758904
C   C42       1.0  0.86300  0.90640  0.05620  1.0000 -0.4519397138
C   C43       1.0  0.62535  0.05930  0.01586  1.0000 -0.2102758719
C   C44       1.0  0.68441  0.00860  0.05227  1.0000 -0.0897709774
C   C45       1.0  0.71255  0.02000  0.10033  1.0000 -0.0993380803
C   C46       1.0  0.68215  0.08070  0.11289  1.0000 -0.0275459447
C   C47       1.0  0.62446  0.13260  0.07762  1.0000 -0.0993380803
C   C48       1.0  0.59601  0.12100  0.02975  1.0000 -0.0823758904
C   C49       1.0  0.71024  0.08680  0.16425  1.0000 0.5910968686
C   C50       1.0  0.54651  0.88280  0.94021  1.0000 -0.2306797451
C   C51       1.0  0.55850  0.81780  0.97690  1.0000 -0.0823758904
C   C52       1.0  0.52900  0.71630  0.97000  1.0000 -0.1890641881
C   C53       1.0  0.48330  0.67140  0.92550  1.0000 0.1801207765
C   C54       1.0  0.47140  0.73180  0.88760  1.0000 -0.2010857577
C   C55       1.0  0.49920  0.83700  0.89380  1.0000 -0.0823758904
C   C56       1.0  0.44920  0.56090  0.91670  1.0000 -0.4674367143
C   C57       1.0  0.51199  0.12460  0.91116  1.0000 -0.2010857577
C   C58       1.0  0.45092  0.10000  0.89508  1.0000 -0.0823758904
C   C59       1.0  0.39873  0.16960  0.86337  1.0000 -0.0993380803
C   C60       1.0  0.40805  0.26610  0.84818  1.0000 -0.023701776
C   C61       1.0  0.46846  0.29410  0.86413  1.0000 -0.0993380803
C   C62       1.0  0.52001  0.22320  0.89550  1.0000 -0.0897709774
C   C63       1.0  0.35118  0.33820  0.81169  1.0000 0.5910968686
C   C64       1.0  0.63740  0.04470  0.93750  1.0000 -0.2102758719
C   C65       1.0  0.61870  0.01930  0.89360  1.0000 -0.0897709774
C   C66       1.0  0.15600  0.54310  0.88100  1.0000 -0.172173896
C   C67       1.0  0.21450  0.59760  0.91220  1.0000 0.1801207765
C   C68       1.0  0.23310  0.62690  0.95560  1.0000 -0.172173896
C   C69       1.0  0.69450  0.10290  0.96750  1.0000 -0.0897709774
C   C70       1.0  0.25720  0.63120  0.90010  1.0000 -0.4519397138
C   C71       1.0  0.55713  0.74590  0.25174  1.0000 -0.2010857577
C   C72       1.0  0.62106  0.71790  0.27579  1.0000 -0.0823758904
C   C73       1.0  0.66193  0.78750  0.27611  1.0000 -0.0993380803
C   C74       1.0  0.63956  0.88890  0.25260  1.0000 -0.0275459447
C   C75       1.0  0.57573  0.91610  0.22731  1.0000 -0.0993380803
C   C76       1.0  0.53503  0.84520  0.22694  1.0000 -0.0897709774
C   C77       1.0  0.68368  0.96500  0.25332  1.0000 0.5979822518
C   C78       1.0  0.45439  0.56950  0.19347  1.0000 -0.2179139724
C   C79       1.0  0.40071  0.61380  0.14975  1.0000 -0.0823758904
C   C80       1.0  0.37030  0.55880  0.10650  1.0000 -0.175479552
C   C81       1.0  0.39280  0.45890  0.10510  1.0000 0.1801207765
C   C82       1.0  0.44770  0.42070  0.14650  1.0000 -0.172173896
C   C83       1.0  0.47870  0.47510  0.19030  1.0000 -0.0823758904
C   C84       1.0  0.36300  0.40640  0.05620  1.0000 -0.4519397138
C   C85       1.0  0.87465  0.55930  0.48414  1.0000 -0.2102758719
C   C86       1.0  0.81559  0.50860  0.44773  1.0000 -0.0897709774
C   C87       1.0  0.78745  0.52000  0.39967  1.0000 -0.0993380803
C   C88       1.0  0.81785  0.58070  0.38711  1.0000 -0.0275459447
C   C89       1.0  0.87554  0.63260  0.42238  1.0000 -0.0993380803
C   C90       1.0  0.90399  0.62100  0.47025  1.0000 -0.0823758904
C   C91       1.0  0.78976  0.58680  0.33575  1.0000 0.5910968686
C   C92       1.0  0.95349  0.38280  0.55979  1.0000 -0.2306797451
C   C93       1.0  0.94150  0.31780  0.52310  1.0000 -0.0823758904
C   C94       1.0  0.97100  0.21630  0.53000  1.0000 -0.1890641881
C   C95       1.0  0.01670  0.17140  0.57450  1.0000 0.1801207765
C   C96       1.0  0.02860  0.23180  0.61240  1.0000 -0.2010857577
C   C97       1.0  0.00080  0.33700  0.60620  1.0000 -0.0823758904
C   C98       1.0  0.05080  0.06090  0.58330  1.0000 -0.4674367143
C   C99       1.0  0.98801  0.62460  0.58884  1.0000 -0.2010857577
C   C100      1.0  0.04908  0.60000  0.60492  1.0000 -0.0823758904
C   C101      1.0  0.10127  0.66960  0.63663  1.0000 -0.0993380803
C   C102      1.0  0.09195  0.76610  0.65182  1.0000 -0.023701776
C   C103      1.0  0.03154  0.79410  0.63587  1.0000 -0.0993380803
C   C104      1.0  0.97999  0.72320  0.60450  1.0000 -0.0897709774
C   C105      1.0  0.14882  0.83820  0.68831  1.0000 0.5910968686
C   C106      1.0  0.86260  0.54470  0.56250  1.0000 -0.2102758719
C   C107      1.0  0.88130  0.51930  0.60640  1.0000 -0.0897709774
C   C108      1.0  0.34400  0.04310  0.61900  1.0000 -0.172173896
C   C109      1.0  0.28550  0.09760  0.58780  1.0000 0.1801207765
C   C110      1.0  0.26690  0.12690  0.54440  1.0000 -0.172173896
C   C111      1.0  0.80550  0.60290  0.53250  1.0000 -0.0897709774
C   C112      1.0  0.24280  0.13120  0.59990  1.0000 -0.4519397138
C   C113      1.0  0.94287  0.24590  0.24826  1.0000 -0.2010857577
C   C114      1.0  0.87894  0.21790  0.22421  1.0000 -0.0823758904
C   C115      1.0  0.83807  0.28750  0.22389  1.0000 -0.0993380803
C   C116      1.0  0.86044  0.38890  0.24740  1.0000 -0.0275459447
C   C117      1.0  0.92427  0.41610  0.27269  1.0000 -0.0993380803
C   C118      1.0  0.96497  0.34520  0.27306  1.0000 -0.0897709774
C   C119      1.0  0.81632  0.46500  0.24668  1.0000 0.5979822518
C   C120      1.0  0.04561  0.06950  0.30653  1.0000 -0.2179139724
C   C121      1.0  0.09929  0.11380  0.35025  1.0000 -0.0823758904
C   C122      1.0  0.12970  0.05880  0.39350  1.0000 -0.175479552
C   C123      1.0  0.10720  0.95890  0.39490  1.0000 0.1801207765
C   C124      1.0  0.05230  0.92070  0.35350  1.0000 -0.172173896
C   C125      1.0  0.02130  0.97510  0.30970  1.0000 -0.0823758904
C   C126      1.0  0.13700  0.90640  0.44380  1.0000 -0.4436174838
C   C127      1.0  0.37465  0.05930  0.48414  1.0000 -0.2102758719
C   C128      1.0  0.31559  0.00860  0.44773  1.0000 -0.0897709774
C   C129      1.0  0.28745  0.02000  0.39967  1.0000 -0.0993380803
C   C130      1.0  0.31785  0.08070  0.38711  1.0000 -0.0275459447
C   C131      1.0  0.37554  0.13260  0.42238  1.0000 -0.0993380803
C   C132      1.0  0.40399  0.12100  0.47025  1.0000 -0.0823758904
C   C133      1.0  0.28976  0.08680  0.33575  1.0000 0.5910968686
C   C134      1.0  0.45349  0.88280  0.55979  1.0000 -0.2306797451
C   C135      1.0  0.44150  0.81780  0.52310  1.0000 -0.0823758904
C   C136      1.0  0.47100  0.71630  0.53000  1.0000 -0.1890641881
C   C137      1.0  0.51670  0.67140  0.57450  1.0000 0.1801207765
C   C138      1.0  0.52860  0.73180  0.61240  1.0000 -0.2010857577
C   C139      1.0  0.50080  0.83700  0.60620  1.0000 -0.0823758904
C   C140      1.0  0.55080  0.56090  0.58330  1.0000 -0.4674367143
C   C141      1.0  0.48801  0.12460  0.58884  1.0000 -0.2010857577
C   C142      1.0  0.54908  0.10000  0.60492  1.0000 -0.0823758904
C   C143      1.0  0.60127  0.16960  0.63663  1.0000 -0.0993380803
C   C144      1.0  0.59195  0.26610  0.65182  1.0000 -0.023701776
C   C145      1.0  0.53154  0.29410  0.63587  1.0000 -0.0993380803
C   C146      1.0  0.47999  0.22320  0.60450  1.0000 -0.0897709774
C   C147      1.0  0.64882  0.33820  0.68831  1.0000 0.5910968686
C   C148      1.0  0.36260  0.04470  0.56250  1.0000 -0.2102758719
C   C149      1.0  0.38130  0.01930  0.60640  1.0000 -0.0897709774
C   C150      1.0  0.84400  0.54310  0.61900  1.0000 -0.172173896
C   C151      1.0  0.78550  0.59760  0.58780  1.0000 0.1801207765
C   C152      1.0  0.76690  0.62690  0.54440  1.0000 -0.175479552
C   C153      1.0  0.30550  0.10290  0.53250  1.0000 -0.0897709774
C   C154      1.0  0.74280  0.63120  0.59990  1.0000 -0.4519397138
C   C155      1.0  0.44287  0.74590  0.24826  1.0000 -0.2010857577
C   C156      1.0  0.37894  0.71790  0.22421  1.0000 -0.0823758904
C   C157      1.0  0.33807  0.78750  0.22389  1.0000 -0.0993380803
C   C158      1.0  0.36044  0.88890  0.24740  1.0000 -0.0275459447
C   C159      1.0  0.42427  0.91610  0.27269  1.0000 -0.0993380803
C   C160      1.0  0.46497  0.84520  0.27306  1.0000 -0.0897709774
C   C161      1.0  0.31632  0.96500  0.24668  1.0000 0.5979822518
C   C162      1.0  0.54561  0.56950  0.30653  1.0000 -0.2179139724
C   C163      1.0  0.59929  0.61380  0.35025  1.0000 -0.0823758904
C   C164      1.0  0.62970  0.55880  0.39350  1.0000 -0.175479552
C   C165      1.0  0.60720  0.45890  0.39490  1.0000 0.1801207765
C   C166      1.0  0.55230  0.42070  0.35350  1.0000 -0.172173896
C   C167      1.0  0.52130  0.47510  0.30970  1.0000 -0.0823758904
C   C168      1.0  0.63700  0.40640  0.44380  1.0000 -0.4436174838
C   C169      1.0  0.87465  0.44070  0.98414  1.0000 -0.2102758719
C   C170      1.0  0.81559  0.49140  0.94773  1.0000 -0.0897709774
C   C171      1.0  0.78745  0.48000  0.89967  1.0000 -0.0993380803
C   C172      1.0  0.81785  0.41930  0.88711  1.0000 -0.0275459447
C   C173      1.0  0.87554  0.36740  0.92238  1.0000 -0.0993380803
C   C174      1.0  0.90399  0.37900  0.97025  1.0000 -0.0823758904
C   C175      1.0  0.78976  0.41320  0.83575  1.0000 0.5910968686
C   C176      1.0  0.95349  0.61720  0.05979  1.0000 -0.2306797451
C   C177      1.0  0.94150  0.68220  0.02310  1.0000 -0.0823758904
C   C178      1.0  0.97100  0.78370  0.03000  1.0000 -0.1890641881
C   C179      1.0  0.01670  0.82860  0.07450  1.0000 0.1801207765
C   C180      1.0  0.02860  0.76820  0.11240  1.0000 -0.2010857577
C   C181      1.0  0.00080  0.66300  0.10620  1.0000 -0.0823758904
C   C182      1.0  0.05080  0.93910  0.08330  1.0000 -0.4674367143
C   C183      1.0  0.98801  0.37540  0.08884  1.0000 -0.2010857577
C   C184      1.0  0.04908  0.40000  0.10492  1.0000 -0.0823758904
C   C185      1.0  0.10127  0.33040  0.13663  1.0000 -0.0993380803
C   C186      1.0  0.09195  0.23390  0.15182  1.0000 -0.023701776
C   C187      1.0  0.03154  0.20590  0.13587  1.0000 -0.0993380803
C   C188      1.0  0.97999  0.27680  0.10450  1.0000 -0.0897709774
C   C189      1.0  0.14882  0.16180  0.18831  1.0000 0.5910968686
C   C190      1.0  0.86260  0.45530  0.06250  1.0000 -0.2102758719
C   C191      1.0  0.88130  0.48070  0.10640  1.0000 -0.0897709774
C   C192      1.0  0.34400  0.95690  0.11900  1.0000 -0.172173896
C   C193      1.0  0.28550  0.90240  0.08780  1.0000 0.1801207765
C   C194      1.0  0.26690  0.87310  0.04440  1.0000 -0.175479552
C   C195      1.0  0.80550  0.39710  0.03250  1.0000 -0.0897709774
C   C196      1.0  0.24280  0.86880  0.09990  1.0000 -0.4519397138
C   C197      1.0  0.94287  0.75410  0.74826  1.0000 -0.2010857577
C   C198      1.0  0.87894  0.78210  0.72421  1.0000 -0.0823758904
C   C199      1.0  0.83807  0.71250  0.72389  1.0000 -0.0993380803
C   C200      1.0  0.86044  0.61110  0.74740  1.0000 -0.0275459447
C   C201      1.0  0.92427  0.58390  0.77269  1.0000 -0.0993380803
C   C202      1.0  0.96497  0.65480  0.77306  1.0000 -0.0897709774
C   C203      1.0  0.81632  0.53500  0.74668  1.0000 0.5979822518
C   C204      1.0  0.04561  0.93050  0.80653  1.0000 -0.2179139724
C   C205      1.0  0.09929  0.88620  0.85025  1.0000 -0.0823758904
C   C206      1.0  0.12970  0.94120  0.89350  1.0000 -0.175479552
C   C207      1.0  0.10720  0.04110  0.89490  1.0000 0.1801207765
C   C208      1.0  0.05230  0.07930  0.85350  1.0000 -0.172173896
C   C209      1.0  0.02130  0.02490  0.80970  1.0000 -0.0823758904
C   C210      1.0  0.13700  0.09360  0.94380  1.0000 -0.4436174838
C   C211      1.0  0.37465  0.94070  0.98414  1.0000 -0.2102758719
C   C212      1.0  0.31559  0.99140  0.94773  1.0000 -0.0897709774
C   C213      1.0  0.28745  0.98000  0.89967  1.0000 -0.0993380803
C   C214      1.0  0.31785  0.91930  0.88711  1.0000 -0.0275459447
C   C215      1.0  0.37554  0.86740  0.92238  1.0000 -0.0993380803
C   C216      1.0  0.40399  0.87900  0.97025  1.0000 -0.0823758904
C   C217      1.0  0.28976  0.91320  0.83575  1.0000 0.5910968686
C   C218      1.0  0.45349  0.11720  0.05979  1.0000 -0.2306797451
C   C219      1.0  0.44150  0.18220  0.02310  1.0000 -0.0823758904
C   C220      1.0  0.47100  0.28370  0.03000  1.0000 -0.1890641881
C   C221      1.0  0.51670  0.32860  0.07450  1.0000 0.1801207765
C   C222      1.0  0.52860  0.26820  0.11240  1.0000 -0.2010857577
C   C223      1.0  0.50080  0.16300  0.10620  1.0000 -0.0823758904
C   C224      1.0  0.55080  0.43910  0.08330  1.0000 -0.4674367143
C   C225      1.0  0.48801  0.87540  0.08884  1.0000 -0.2010857577
C   C226      1.0  0.54908  0.90000  0.10492  1.0000 -0.0823758904
C   C227      1.0  0.60127  0.83040  0.13663  1.0000 -0.0993380803
C   C228      1.0  0.59195  0.73390  0.15182  1.0000 -0.023701776
C   C229      1.0  0.53154  0.70590  0.13587  1.0000 -0.0993380803
C   C230      1.0  0.47999  0.77680  0.10450  1.0000 -0.0897709774
C   C231      1.0  0.64882  0.66180  0.18831  1.0000 0.5910968686
C   C232      1.0  0.36260  0.95530  0.06250  1.0000 -0.2102758719
C   C233      1.0  0.38130  0.98070  0.10640  1.0000 -0.0897709774
C   C234      1.0  0.84400  0.45690  0.11900  1.0000 -0.172173896
C   C235      1.0  0.78550  0.40240  0.08780  1.0000 0.1801207765
C   C236      1.0  0.76690  0.37310  0.04440  1.0000 -0.172173896
C   C237      1.0  0.30550  0.89710  0.03250  1.0000 -0.0897709774
C   C238      1.0  0.74280  0.36880  0.09990  1.0000 -0.4519397138
C   C239      1.0  0.44287  0.25410  0.74826  1.0000 -0.2010857577
C   C240      1.0  0.37894  0.28210  0.72421  1.0000 -0.0823758904
C   C241      1.0  0.33807  0.21250  0.72389  1.0000 -0.0993380803
C   C242      1.0  0.36044  0.11110  0.74740  1.0000 -0.0275459447
C   C243      1.0  0.42427  0.08390  0.77269  1.0000 -0.0993380803
C   C244      1.0  0.46497  0.15480  0.77306  1.0000 -0.0897709774
C   C245      1.0  0.31632  0.03500  0.74668  1.0000 0.5979822518
C   C246      1.0  0.54561  0.43050  0.80653  1.0000 -0.2179139724
C   C247      1.0  0.59929  0.38620  0.85025  1.0000 -0.0823758904
C   C248      1.0  0.62970  0.44120  0.89350  1.0000 -0.175479552
C   C249      1.0  0.60720  0.54110  0.89490  1.0000 0.1801207765
C   C250      1.0  0.55230  0.57930  0.85350  1.0000 -0.172173896
C   C251      1.0  0.52130  0.52490  0.80970  1.0000 -0.0823758904
C   C252      1.0  0.63700  0.59360  0.94380  1.0000 -0.4436174838
C   C253      1.0  0.12535  0.44070  0.51586  1.0000 -0.2102758719
C   C254      1.0  0.18441  0.49140  0.55227  1.0000 -0.0897709774
C   C255      1.0  0.21255  0.48000  0.60033  1.0000 -0.0993380803
C   C256      1.0  0.18215  0.41930  0.61289  1.0000 -0.0275459447
C   C257      1.0  0.12446  0.36740  0.57762  1.0000 -0.0993380803
C   C258      1.0  0.09601  0.37900  0.52975  1.0000 -0.0823758904
C   C259      1.0  0.21024  0.41320  0.66425  1.0000 0.5910968686
C   C260      1.0  0.04651  0.61720  0.44021  1.0000 -0.2306797451
C   C261      1.0  0.05850  0.68220  0.47690  1.0000 -0.0823758904
C   C262      1.0  0.02900  0.78370  0.47000  1.0000 -0.1890641881
C   C263      1.0  0.98330  0.82860  0.42550  1.0000 0.1801207765
C   C264      1.0  0.97140  0.76820  0.38760  1.0000 -0.2010857577
C   C265      1.0  0.99920  0.66300  0.39380  1.0000 -0.0823758904
C   C266      1.0  0.94920  0.93910  0.41670  1.0000 -0.4674367143
C   C267      1.0  0.01199  0.37540  0.41116  1.0000 -0.2010857577
C   C268      1.0  0.95092  0.40000  0.39508  1.0000 -0.0823758904
C   C269      1.0  0.89873  0.33040  0.36337  1.0000 -0.0993380803
C   C270      1.0  0.90805  0.23390  0.34818  1.0000 -0.023701776
C   C271      1.0  0.96846  0.20590  0.36413  1.0000 -0.0993380803
C   C272      1.0  0.02001  0.27680  0.39550  1.0000 -0.0897709774
C   C273      1.0  0.85118  0.16180  0.31169  1.0000 0.5910968686
C   C274      1.0  0.13740  0.45530  0.43750  1.0000 -0.2102758719
C   C275      1.0  0.11870  0.48070  0.39360  1.0000 -0.0897709774
C   C276      1.0  0.65600  0.95690  0.38100  1.0000 -0.172173896
C   C277      1.0  0.71450  0.90240  0.41220  1.0000 0.1801207765
C   C278      1.0  0.73310  0.87310  0.45560  1.0000 -0.172173896
C   C279      1.0  0.19450  0.39710  0.46750  1.0000 -0.0897709774
C   C280      1.0  0.75720  0.86880  0.40010  1.0000 -0.4519397138
C   C281      1.0  0.05713  0.75410  0.75174  1.0000 -0.2010857577
C   C282      1.0  0.12106  0.78210  0.77579  1.0000 -0.0823758904
C   C283      1.0  0.16193  0.71250  0.77611  1.0000 -0.0993380803
C   C284      1.0  0.13956  0.61110  0.75260  1.0000 -0.0275459447
C   C285      1.0  0.07573  0.58390  0.72731  1.0000 -0.0993380803
C   C286      1.0  0.03503  0.65480  0.72694  1.0000 -0.0897709774
C   C287      1.0  0.18368  0.53500  0.75332  1.0000 0.5979822518
C   C288      1.0  0.95439  0.93050  0.69347  1.0000 -0.2179139724
C   C289      1.0  0.90071  0.88620  0.64975  1.0000 -0.0823758904
C   C290      1.0  0.87030  0.94120  0.60650  1.0000 -0.175479552
C   C291      1.0  0.89280  0.04110  0.60510  1.0000 0.1801207765
C   C292      1.0  0.94770  0.07930  0.64650  1.0000 -0.172173896
C   C293      1.0  0.97870  0.02490  0.69030  1.0000 -0.0823758904
C   C294      1.0  0.86300  0.09360  0.55620  1.0000 -0.4436174838
C   C295      1.0  0.62535  0.94070  0.51586  1.0000 -0.2102758719
C   C296      1.0  0.68441  0.99140  0.55227  1.0000 -0.0897709774
C   C297      1.0  0.71255  0.98000  0.60033  1.0000 -0.0993380803
C   C298      1.0  0.68215  0.91930  0.61289  1.0000 -0.0275459447
C   C299      1.0  0.62446  0.86740  0.57762  1.0000 -0.0993380803
C   C300      1.0  0.59601  0.87900  0.52975  1.0000 -0.0823758904
C   C301      1.0  0.71024  0.91320  0.66425  1.0000 0.5910968686
C   C302      1.0  0.54651  0.11720  0.44021  1.0000 -0.2306797451
C   C303      1.0  0.55850  0.18220  0.47690  1.0000 -0.0823758904
C   C304      1.0  0.52900  0.28370  0.47000  1.0000 -0.1890641881
C   C305      1.0  0.48330  0.32860  0.42550  1.0000 0.1801207765
C   C306      1.0  0.47140  0.26820  0.38760  1.0000 -0.2010857577
C   C307      1.0  0.49920  0.16300  0.39380  1.0000 -0.0823758904
C   C308      1.0  0.44920  0.43910  0.41670  1.0000 -0.4674367143
C   C309      1.0  0.51199  0.87540  0.41116  1.0000 -0.2010857577
C   C310      1.0  0.45092  0.90000  0.39508  1.0000 -0.0823758904
C   C311      1.0  0.39873  0.83040  0.36337  1.0000 -0.0993380803
C   C312      1.0  0.40805  0.73390  0.34818  1.0000 -0.023701776
C   C313      1.0  0.46846  0.70590  0.36413  1.0000 -0.0993380803
C   C314      1.0  0.52001  0.77680  0.39550  1.0000 -0.0897709774
C   C315      1.0  0.35118  0.66180  0.31169  1.0000 0.5910968686
C   C316      1.0  0.63740  0.95530  0.43750  1.0000 -0.2102758719
C   C317      1.0  0.61870  0.98070  0.39360  1.0000 -0.0897709774
C   C318      1.0  0.15600  0.45690  0.38100  1.0000 -0.172173896
C   C319      1.0  0.21450  0.40240  0.41220  1.0000 0.1801207765
C   C320      1.0  0.23310  0.37310  0.45560  1.0000 -0.172173896
C   C321      1.0  0.69450  0.89710  0.46750  1.0000 -0.0897709774
C   C322      1.0  0.25720  0.36880  0.40010  1.0000 -0.4519397138
C   C323      1.0  0.55713  0.25410  0.75174  1.0000 -0.2010857577
C   C324      1.0  0.62106  0.28210  0.77579  1.0000 -0.0823758904
C   C325      1.0  0.66193  0.21250  0.77611  1.0000 -0.0993380803
C   C326      1.0  0.63956  0.11110  0.75260  1.0000 -0.0275459447
C   C327      1.0  0.57573  0.08390  0.72731  1.0000 -0.0993380803
C   C328      1.0  0.53503  0.15480  0.72694  1.0000 -0.0897709774
C   C329      1.0  0.68368  0.03500  0.75332  1.0000 0.5979822518
C   C330      1.0  0.45439  0.43050  0.69347  1.0000 -0.2179139724
C   C331      1.0  0.40071  0.38620  0.64975  1.0000 -0.0823758904
C   C332      1.0  0.37030  0.44120  0.60650  1.0000 -0.175479552
C   C333      1.0  0.39280  0.54110  0.60510  1.0000 0.1801207765
C   C334      1.0  0.44770  0.57930  0.64650  1.0000 -0.172173896
C   C335      1.0  0.47870  0.52490  0.69030  1.0000 -0.0823758904
C   C336      1.0  0.36300  0.59360  0.55620  1.0000 -0.4436174838
O   O1        1.0  0.25037  0.51200  0.19213  1.0000 -0.5702508821
O   O2        1.0  0.19233  0.66440  0.17606  1.0000 -0.5441740884
O   O3        1.0  0.86218  0.92880  0.80151  1.0000 -0.5535106717
O   O4        1.0  0.79637  0.80230  0.79403  1.0000 -0.5619271157
O   O5        1.0  0.23768  0.42750  0.26979  1.0000 -0.5619271157
O   O6        1.0  0.16308  0.56080  0.23720  1.0000 -0.5702508821
O   O7        1.0  0.33245  0.31986  0.26536  1.0000 -0.8370054646
O   O8        1.0  0.75037  0.01200  0.19213  1.0000 -0.5702508821
O   O9        1.0  0.69233  0.16440  0.17606  1.0000 -0.5441740884
O   O10       1.0  0.36218  0.42880  0.80151  1.0000 -0.5535106717
O   O11       1.0  0.29637  0.30230  0.79403  1.0000 -0.5619271157
O   O12       1.0  0.73768  0.92750  0.26979  1.0000 -0.5619271157
O   O13       1.0  0.66308  0.06080  0.23720  1.0000 -0.5702508821
O   O14       1.0  0.83245  0.81986  0.26536  1.0000 -0.8370054646
O   O15       1.0  0.74963  0.51200  0.30787  1.0000 -0.5702508821
O   O16       1.0  0.80767  0.66440  0.32394  1.0000 -0.5441740884
O   O17       1.0  0.13782  0.92880  0.69849  1.0000 -0.5535106717
O   O18       1.0  0.20363  0.80230  0.70597  1.0000 -0.5619271157
O   O19       1.0  0.76232  0.42750  0.23021  1.0000 -0.5619271157
O   O20       1.0  0.83692  0.56080  0.26280  1.0000 -0.5702508821
O   O21       1.0  0.66755  0.31986  0.23464  1.0000 -0.8370054646
O   O22       1.0  0.24963  0.01200  0.30787  1.0000 -0.5702508821
O   O23       1.0  0.30767  0.16440  0.32394  1.0000 -0.5441740884
O   O24       1.0  0.63782  0.42880  0.69849  1.0000 -0.5535106717
O   O25       1.0  0.70363  0.30230  0.70597  1.0000 -0.5619271157
O   O26       1.0  0.26232  0.92750  0.23021  1.0000 -0.5619271157
O   O27       1.0  0.33692  0.06080  0.26280  1.0000 -0.5702508821
O   O28       1.0  0.16755  0.81986  0.23464  1.0000 -0.8370054646
O   O29       1.0  0.74963  0.48800  0.80787  1.0000 -0.5702508821
O   O30       1.0  0.80767  0.33560  0.82394  1.0000 -0.5441740884
O   O31       1.0  0.13782  0.07120  0.19849  1.0000 -0.5535106717
O   O32       1.0  0.20363  0.19770  0.20597  1.0000 -0.5619271157
O   O33       1.0  0.76232  0.57250  0.73021  1.0000 -0.5619271157
O   O34       1.0  0.83692  0.43920  0.76280  1.0000 -0.5702508821
O   O35       1.0  0.66755  0.68014  0.73464  1.0000 -0.8370054646
O   O36       1.0  0.24963  0.98800  0.80787  1.0000 -0.5702508821
O   O37       1.0  0.30767  0.83560  0.82394  1.0000 -0.5441740884
O   O38       1.0  0.63782  0.57120  0.19849  1.0000 -0.5535106717
O   O39       1.0  0.70363  0.69770  0.20597  1.0000 -0.5619271157
O   O40       1.0  0.26232  0.07250  0.73021  1.0000 -0.5619271157
O   O41       1.0  0.33692  0.93920  0.76280  1.0000 -0.5702508821
O   O42       1.0  0.16755  0.18014  0.73464  1.0000 -0.8370054646
O   O43       1.0  0.25037  0.48800  0.69213  1.0000 -0.5702508821
O   O44       1.0  0.19233  0.33560  0.67606  1.0000 -0.5441740884
O   O45       1.0  0.86218  0.07120  0.30151  1.0000 -0.5535106717
O   O46       1.0  0.79637  0.19770  0.29403  1.0000 -0.5619271157
O   O47       1.0  0.23768  0.57250  0.76979  1.0000 -0.5619271157
O   O48       1.0  0.16308  0.43920  0.73720  1.0000 -0.5702508821
O   O49       1.0  0.33245  0.68014  0.76536  1.0000 -0.8370054646
O   O50       1.0  0.75037  0.98800  0.69213  1.0000 -0.5702508821
O   O51       1.0  0.69233  0.83560  0.67606  1.0000 -0.5441740884
O   O52       1.0  0.36218  0.57120  0.30151  1.0000 -0.5535106717
O   O53       1.0  0.29637  0.69770  0.29403  1.0000 -0.5619271157
O   O54       1.0  0.73768  0.07250  0.76979  1.0000 -0.5619271157
O   O55       1.0  0.66308  0.93920  0.73720  1.0000 -0.5702508821
O   O56       1.0  0.83245  0.18014  0.76536  1.0000 -0.8370054646
