# DDEC6 charges by PACMAN v1.1 (https://github.com/mtap-research/PACMAN-charge/)
data_2008[ZnNi][sit]3[ASR]1
_chemical_formula_sum              "Zn8 Ni4 H140 C236 N4 O52"
_cell_length_a       17.0544
_cell_length_b       22.1816
_cell_length_c       24.8632
_cell_angle_alpha    90
_cell_angle_beta     90
_cell_angle_gamma    90

_symmetry_space_group_name_H-M    "P 1"
_symmetry_Int_Tables_number       1

loop_
  _symmetry_equiv_pos_as_xyz
  'x, y, z'

loop_
  _atom_site_type_symbol
  _atom_site_label
  _atom_site_symmetry_multiplicity
  _atom_site_fract_x
  _atom_site_fract_y
  _atom_site_fract_z
  _atom_site_occupancy
  _atom_site_charge
Zn  Zn1       1.0  0.48969  0.16686  0.88619  1.0000 0.9519540221
Zn  Zn2       1.0  0.01031  0.83314  0.38619  1.0000 0.9519540221
Zn  Zn3       1.0  0.01031  0.66686  0.38619  1.0000 0.9519540221
Zn  Zn4       1.0  0.48969  0.33314  0.88619  1.0000 0.9519540221
Zn  Zn5       1.0  0.98969  0.33314  0.61381  1.0000 0.9519540221
Zn  Zn6       1.0  0.51031  0.66686  0.11381  1.0000 0.9519540221
Zn  Zn7       1.0  0.51031  0.83314  0.11381  1.0000 0.9519540221
Zn  Zn8       1.0  0.98969  0.16686  0.61381  1.0000 0.9519540221
Ni  Ni1       1.0  0.37440  0.25000  0.81320  1.0000 0.9173603804
Ni  Ni2       1.0  0.12560  0.75000  0.31320  1.0000 0.9173603804
Ni  Ni3       1.0  0.87440  0.25000  0.68680  1.0000 0.9173603804
Ni  Ni4       1.0  0.62560  0.75000  0.18680  1.0000 0.9173603804
H   H1        1.0  0.83480  0.52280  0.49200  1.0000 0.128905058
H   H2        1.0  0.66520  0.47720  0.99200  1.0000 0.128905058
H   H3        1.0  0.66520  0.02280  0.99200  1.0000 0.128905058
H   H4        1.0  0.83480  0.97720  0.49200  1.0000 0.128905058
H   H5        1.0  0.71310  0.50690  0.52790  1.0000 0.112599733
H   H6        1.0  0.78690  0.49310  0.02790  1.0000 0.1185550185
H   H7        1.0  0.78690  0.00690  0.02790  1.0000 0.1185550185
H   H8        1.0  0.71310  0.99310  0.52790  1.0000 0.112599733
H   H9        1.0  0.64760  0.67240  0.48220  1.0000 0.1185550185
H   H10       1.0  0.85240  0.32760  0.98220  1.0000 0.1185550185
H   H11       1.0  0.85240  0.17240  0.98220  1.0000 0.1185550185
H   H12       1.0  0.64760  0.82760  0.48220  1.0000 0.1185550185
H   H13       1.0  0.77070  0.68800  0.44650  1.0000 0.1185550185
H   H14       1.0  0.72930  0.31200  0.94650  1.0000 0.1185550185
H   H15       1.0  0.72930  0.18800  0.94650  1.0000 0.1185550185
H   H16       1.0  0.77070  0.81200  0.44650  1.0000 0.1185550185
H   H17       1.0  0.61950  0.52690  0.59440  1.0000 0.1185550185
H   H18       1.0  0.88050  0.47310  0.09440  1.0000 0.1185550185
H   H19       1.0  0.88050  0.02690  0.09440  1.0000 0.1185550185
H   H20       1.0  0.61950  0.97310  0.59440  1.0000 0.1185550185
H   H21       1.0  0.38580  0.54010  0.57930  1.0000 0.1185550185
H   H22       1.0  0.11420  0.45990  0.07930  1.0000 0.1185550185
H   H23       1.0  0.11420  0.04010  0.07930  1.0000 0.1185550185
H   H24       1.0  0.38580  0.95990  0.57930  1.0000 0.1185550185
H   H25       1.0  0.52770  0.62280  0.47370  1.0000 0.1185550185
H   H26       1.0  0.97230  0.37720  0.97370  1.0000 0.1185550185
H   H27       1.0  0.97230  0.12280  0.97370  1.0000 0.1185550185
H   H28       1.0  0.52770  0.87720  0.47370  1.0000 0.1185550185
H   H29       1.0  0.58080  0.51620  0.68620  1.0000 0.1185550185
H   H30       1.0  0.91920  0.48380  0.18620  1.0000 0.1185550185
H   H31       1.0  0.91920  0.01620  0.18620  1.0000 0.1185550185
H   H32       1.0  0.58080  0.98380  0.68620  1.0000 0.1185550185
H   H33       1.0  0.56580  0.45110  0.75690  1.0000 0.128905058
H   H34       1.0  0.93420  0.54890  0.25690  1.0000 0.128905058
H   H35       1.0  0.93420  0.95110  0.25690  1.0000 0.128905058
H   H36       1.0  0.56580  0.04890  0.75690  1.0000 0.128905058
H   H37       1.0  0.38180  0.37580  0.68350  1.0000 0.1185550185
H   H38       1.0  0.11820  0.62420  0.18350  1.0000 0.1185550185
H   H39       1.0  0.11820  0.87580  0.18350  1.0000 0.1185550185
H   H40       1.0  0.38180  0.12420  0.68350  1.0000 0.1185550185
H   H41       1.0  0.39580  0.44180  0.61340  1.0000 0.1185550185
H   H42       1.0  0.10420  0.55820  0.11340  1.0000 0.1185550185
H   H43       1.0  0.10420  0.94180  0.11340  1.0000 0.1185550185
H   H44       1.0  0.39580  0.05820  0.61340  1.0000 0.1185550185
H   H45       1.0  0.30280  0.61410  0.55550  1.0000 0.1185550185
H   H46       1.0  0.19720  0.38590  0.05550  1.0000 0.1185550185
H   H47       1.0  0.19720  0.11410  0.05550  1.0000 0.1185550185
H   H48       1.0  0.30280  0.88590  0.55550  1.0000 0.1185550185
H   H49       1.0  0.19290  0.64410  0.50990  1.0000 0.1393743888
H   H50       1.0  0.30710  0.35590  0.00990  1.0000 0.1393743888
H   H51       1.0  0.30710  0.14410  0.00990  1.0000 0.1393743888
H   H52       1.0  0.19290  0.85590  0.50990  1.0000 0.1393743888
H   H53       1.0  0.31420  0.64050  0.37200  1.0000 0.128905058
H   H54       1.0  0.18580  0.35950  0.87200  1.0000 0.128905058
H   H55       1.0  0.18580  0.14050  0.87200  1.0000 0.128905058
H   H56       1.0  0.31420  0.85950  0.37200  1.0000 0.128905058
H   H57       1.0  0.42290  0.60720  0.41760  1.0000 0.1185550185
H   H58       1.0  0.07710  0.39280  0.91760  1.0000 0.1185550185
H   H59       1.0  0.07710  0.10720  0.91760  1.0000 0.1185550185
H   H60       1.0  0.42290  0.89280  0.41760  1.0000 0.1185550185
H   H61       1.0  0.26700  0.16270  0.75590  1.0000 0.112599733
H   H62       1.0  0.23300  0.83730  0.25590  1.0000 0.112599733
H   H63       1.0  0.23300  0.66270  0.25590  1.0000 0.112599733
H   H64       1.0  0.26700  0.33730  0.75590  1.0000 0.112599733
H   H65       1.0  0.18500  0.15990  0.68280  1.0000 0.1393743888
H   H66       1.0  0.31500  0.84010  0.18280  1.0000 0.1393743888
H   H67       1.0  0.31500  0.65990  0.18280  1.0000 0.1393743888
H   H68       1.0  0.18500  0.34010  0.68280  1.0000 0.1393743888
H   H69       1.0  0.14400  0.25000  0.64500  1.0000 0.1393743888
H   H70       1.0  0.35600  0.75000  0.14500  1.0000 0.1393743888
H   H71       1.0  0.33480  0.97720  0.00800  1.0000 0.128905058
H   H72       1.0  0.16520  0.02280  0.50800  1.0000 0.128905058
H   H73       1.0  0.16520  0.47720  0.50800  1.0000 0.128905058
H   H74       1.0  0.33480  0.52280  0.00800  1.0000 0.128905058
H   H75       1.0  0.21310  0.99310  0.97210  1.0000 0.1185550185
H   H76       1.0  0.28690  0.00690  0.47210  1.0000 0.112599733
H   H77       1.0  0.28690  0.49310  0.47210  1.0000 0.112599733
H   H78       1.0  0.21310  0.50690  0.97210  1.0000 0.1185550185
H   H79       1.0  0.14760  0.82760  0.01780  1.0000 0.1185550185
H   H80       1.0  0.35240  0.17240  0.51780  1.0000 0.1185550185
H   H81       1.0  0.35240  0.32760  0.51780  1.0000 0.1185550185
H   H82       1.0  0.14760  0.67240  0.01780  1.0000 0.1185550185
H   H83       1.0  0.27070  0.81200  0.05350  1.0000 0.1185550185
H   H84       1.0  0.22930  0.18800  0.55350  1.0000 0.1185550185
H   H85       1.0  0.22930  0.31200  0.55350  1.0000 0.1185550185
H   H86       1.0  0.27070  0.68800  0.05350  1.0000 0.1185550185
H   H87       1.0  0.11950  0.97310  0.90560  1.0000 0.1185550185
H   H88       1.0  0.38050  0.02690  0.40560  1.0000 0.1185550185
H   H89       1.0  0.38050  0.47310  0.40560  1.0000 0.1185550185
H   H90       1.0  0.11950  0.52690  0.90560  1.0000 0.1185550185
H   H91       1.0  0.88580  0.95990  0.92070  1.0000 0.1185550185
H   H92       1.0  0.61420  0.04010  0.42070  1.0000 0.1185550185
H   H93       1.0  0.61420  0.45990  0.42070  1.0000 0.1185550185
H   H94       1.0  0.88580  0.54010  0.92070  1.0000 0.1185550185
H   H95       1.0  0.02770  0.87720  0.02630  1.0000 0.1185550185
H   H96       1.0  0.47230  0.12280  0.52630  1.0000 0.1185550185
H   H97       1.0  0.47230  0.37720  0.52630  1.0000 0.1185550185
H   H98       1.0  0.02770  0.62280  0.02630  1.0000 0.1185550185
H   H99       1.0  0.08080  0.98380  0.81380  1.0000 0.1185550185
H   H100      1.0  0.41920  0.01620  0.31380  1.0000 0.1185550185
H   H101      1.0  0.41920  0.48380  0.31380  1.0000 0.1185550185
H   H102      1.0  0.08080  0.51620  0.81380  1.0000 0.1185550185
H   H103      1.0  0.06580  0.04890  0.74310  1.0000 0.128905058
H   H104      1.0  0.43420  0.95110  0.24310  1.0000 0.128905058
H   H105      1.0  0.43420  0.54890  0.24310  1.0000 0.128905058
H   H106      1.0  0.06580  0.45110  0.74310  1.0000 0.128905058
H   H107      1.0  0.88180  0.12420  0.81650  1.0000 0.1185550185
H   H108      1.0  0.61820  0.87580  0.31650  1.0000 0.1185550185
H   H109      1.0  0.61820  0.62420  0.31650  1.0000 0.1185550185
H   H110      1.0  0.88180  0.37580  0.81650  1.0000 0.1185550185
H   H111      1.0  0.89580  0.05820  0.88660  1.0000 0.1185550185
H   H112      1.0  0.60420  0.94180  0.38660  1.0000 0.1185550185
H   H113      1.0  0.60420  0.55820  0.38660  1.0000 0.1185550185
H   H114      1.0  0.89580  0.44180  0.88660  1.0000 0.1185550185
H   H115      1.0  0.80280  0.88590  0.94450  1.0000 0.1185550185
H   H116      1.0  0.69720  0.11410  0.44450  1.0000 0.1185550185
H   H117      1.0  0.69720  0.38590  0.44450  1.0000 0.1185550185
H   H118      1.0  0.80280  0.61410  0.94450  1.0000 0.1185550185
H   H119      1.0  0.69290  0.85590  0.99010  1.0000 0.1393743888
H   H120      1.0  0.80710  0.14410  0.49010  1.0000 0.1393743888
H   H121      1.0  0.80710  0.35590  0.49010  1.0000 0.1393743888
H   H122      1.0  0.69290  0.64410  0.99010  1.0000 0.1393743888
H   H123      1.0  0.81420  0.85950  0.12800  1.0000 0.128905058
H   H124      1.0  0.68580  0.14050  0.62800  1.0000 0.128905058
H   H125      1.0  0.68580  0.35950  0.62800  1.0000 0.128905058
H   H126      1.0  0.81420  0.64050  0.12800  1.0000 0.128905058
H   H127      1.0  0.92290  0.89280  0.08240  1.0000 0.1185550185
H   H128      1.0  0.57710  0.10720  0.58240  1.0000 0.1185550185
H   H129      1.0  0.57710  0.39280  0.58240  1.0000 0.1185550185
H   H130      1.0  0.92290  0.60720  0.08240  1.0000 0.1185550185
H   H131      1.0  0.76700  0.33730  0.74410  1.0000 0.112599733
H   H132      1.0  0.73300  0.66270  0.24410  1.0000 0.112599733
H   H133      1.0  0.73300  0.83730  0.24410  1.0000 0.112599733
H   H134      1.0  0.76700  0.16270  0.74410  1.0000 0.112599733
H   H135      1.0  0.68500  0.34010  0.81720  1.0000 0.1393743888
H   H136      1.0  0.81500  0.65990  0.31720  1.0000 0.1393743888
H   H137      1.0  0.81500  0.84010  0.31720  1.0000 0.1393743888
H   H138      1.0  0.68500  0.15990  0.81720  1.0000 0.1393743888
H   H139      1.0  0.64400  0.25000  0.85500  1.0000 0.1393743888
H   H140      1.0  0.85600  0.75000  0.35500  1.0000 0.1393743888
C   C1        1.0  0.89520  0.61670  0.44040  1.0000 0.5518407822
C   C2        1.0  0.60480  0.38330  0.94040  1.0000 0.5518407822
C   C3        1.0  0.60480  0.11670  0.94040  1.0000 0.5518407822
C   C4        1.0  0.89520  0.88330  0.44040  1.0000 0.5518407822
C   C5        1.0  0.81593  0.60633  0.46539  1.0000 -0.0192540249
C   C6        1.0  0.68407  0.39367  0.96539  1.0000 -0.0192540249
C   C7        1.0  0.68407  0.10633  0.96539  1.0000 -0.0192540249
C   C8        1.0  0.81593  0.89367  0.46539  1.0000 -0.0192540249
C   C9        1.0  0.79730  0.55310  0.48990  1.0000 -0.083372781
C   C10       1.0  0.70270  0.44690  0.98990  1.0000 -0.083372781
C   C11       1.0  0.70270  0.05310  0.98990  1.0000 -0.083372781
C   C12       1.0  0.79730  0.94690  0.48990  1.0000 -0.083372781
C   C13       1.0  0.72430  0.54352  0.51140  1.0000 -0.1514380099
C   C14       1.0  0.77570  0.45648  0.01140  1.0000 -0.1514380099
C   C15       1.0  0.77570  0.04352  0.01140  1.0000 -0.1514380099
C   C16       1.0  0.72430  0.95648  0.51140  1.0000 -0.1514380099
C   C17       1.0  0.66649  0.58803  0.50894  1.0000 0.0812498841
C   C18       1.0  0.83351  0.41197  0.00894  1.0000 0.0812498841
C   C19       1.0  0.83351  0.08803  0.00894  1.0000 0.0812498841
C   C20       1.0  0.66649  0.91197  0.50894  1.0000 0.0711176777
C   C21       1.0  0.68510  0.64205  0.48433  1.0000 -0.1565284896
C   C22       1.0  0.81490  0.35795  0.98433  1.0000 -0.1565284896
C   C23       1.0  0.81490  0.14205  0.98433  1.0000 -0.1565284896
C   C24       1.0  0.68510  0.85795  0.48433  1.0000 -0.1565284896
C   C25       1.0  0.75890  0.65137  0.46280  1.0000 -0.0914743712
C   C26       1.0  0.74110  0.34863  0.96280  1.0000 -0.0914743712
C   C27       1.0  0.74110  0.15137  0.96280  1.0000 -0.0914743712
C   C28       1.0  0.75890  0.84863  0.46280  1.0000 -0.0914743712
C   C29       1.0  0.58631  0.57598  0.53047  1.0000 0.0812498841
C   C30       1.0  0.91369  0.42402  0.03047  1.0000 0.0812498841
C   C31       1.0  0.91369  0.07598  0.03047  1.0000 0.0812498841
C   C32       1.0  0.58631  0.92402  0.53047  1.0000 0.0812498841
C   C33       1.0  0.57578  0.54101  0.57592  1.0000 -0.1901910218
C   C34       1.0  0.92422  0.45899  0.07592  1.0000 -0.1901910218
C   C35       1.0  0.92422  0.04101  0.07592  1.0000 -0.1901910218
C   C36       1.0  0.57578  0.95899  0.57592  1.0000 -0.1901910218
C   C37       1.0  0.50105  0.52638  0.59480  1.0000 0.0812498841
C   C38       1.0  0.99895  0.47362  0.09480  1.0000 0.0812498841
C   C39       1.0  0.99895  0.02638  0.09480  1.0000 0.0812498841
C   C40       1.0  0.50105  0.97362  0.59480  1.0000 0.0812498841
C   C41       1.0  0.43599  0.54918  0.56709  1.0000 -0.1901910218
C   C42       1.0  0.06401  0.45082  0.06709  1.0000 -0.1901910218
C   C43       1.0  0.06401  0.04918  0.06709  1.0000 -0.1901910218
C   C44       1.0  0.43599  0.95082  0.56709  1.0000 -0.1901910218
C   C45       1.0  0.44485  0.58529  0.52154  1.0000 0.0812498841
C   C46       1.0  0.05515  0.41471  0.02154  1.0000 0.0812498841
C   C47       1.0  0.05515  0.08529  0.02154  1.0000 0.0812498841
C   C48       1.0  0.44485  0.91471  0.52154  1.0000 0.0812498841
C   C49       1.0  0.52089  0.59849  0.50384  1.0000 -0.1901910218
C   C50       1.0  0.97911  0.40151  0.00384  1.0000 -0.1901910218
C   C51       1.0  0.97911  0.09849  0.00384  1.0000 -0.1901910218
C   C52       1.0  0.52089  0.90151  0.50384  1.0000 -0.1901910218
C   C53       1.0  0.49028  0.48658  0.64171  1.0000 0.0711176777
C   C54       1.0  0.00972  0.51342  0.14171  1.0000 0.0711176777
C   C55       1.0  0.00972  0.98658  0.14171  1.0000 0.0711176777
C   C56       1.0  0.49028  0.01342  0.64171  1.0000 0.0711176777
C   C57       1.0  0.54030  0.48810  0.68548  1.0000 -0.1514380099
C   C58       1.0  0.95970  0.51190  0.18548  1.0000 -0.1514380099
C   C59       1.0  0.95970  0.98810  0.18548  1.0000 -0.1514380099
C   C60       1.0  0.54030  0.01190  0.68548  1.0000 -0.1514380099
C   C61       1.0  0.53130  0.44910  0.72795  1.0000 -0.0914743712
C   C62       1.0  0.96870  0.55090  0.22795  1.0000 -0.0914743712
C   C63       1.0  0.96870  0.94910  0.22795  1.0000 -0.0914743712
C   C64       1.0  0.53130  0.05090  0.72795  1.0000 -0.0914743712
C   C65       1.0  0.47160  0.40677  0.72825  1.0000 -0.0192540249
C   C66       1.0  0.02840  0.59323  0.22825  1.0000 -0.0192540249
C   C67       1.0  0.02840  0.90677  0.22825  1.0000 -0.0192540249
C   C68       1.0  0.47160  0.09323  0.72825  1.0000 -0.0192540249
C   C69       1.0  0.42170  0.40438  0.68440  1.0000 -0.0914743712
C   C70       1.0  0.07830  0.59562  0.18440  1.0000 -0.0914743712
C   C71       1.0  0.07830  0.90438  0.18440  1.0000 -0.0914743712
C   C72       1.0  0.42170  0.09562  0.68440  1.0000 -0.0914743712
C   C73       1.0  0.43050  0.44376  0.64219  1.0000 -0.1565284896
C   C74       1.0  0.06950  0.55624  0.14219  1.0000 -0.1565284896
C   C75       1.0  0.06950  0.94376  0.14219  1.0000 -0.1565284896
C   C76       1.0  0.43050  0.05624  0.64219  1.0000 -0.1565284896
C   C77       1.0  0.46165  0.36374  0.77445  1.0000 0.589164909
C   C78       1.0  0.03835  0.63626  0.27445  1.0000 0.589164909
C   C79       1.0  0.03835  0.86374  0.27445  1.0000 0.589164909
C   C80       1.0  0.46165  0.13626  0.77445  1.0000 0.589164909
C   C81       1.0  0.37498  0.60749  0.49223  1.0000 0.0711176777
C   C82       1.0  0.12502  0.39251  0.99223  1.0000 0.0711176777
C   C83       1.0  0.12502  0.10749  0.99223  1.0000 0.0711176777
C   C84       1.0  0.37498  0.89251  0.49223  1.0000 0.0711176777
C   C85       1.0  0.30520  0.61890  0.51840  1.0000 -0.1514380099
C   C86       1.0  0.19480  0.38110  0.01840  1.0000 -0.1514380099
C   C87       1.0  0.19480  0.11890  0.01840  1.0000 -0.1514380099
C   C88       1.0  0.30520  0.88110  0.51840  1.0000 -0.1514380099
C   C89       1.0  0.23920  0.63720  0.49118  1.0000 -0.0914743712
C   C90       1.0  0.26080  0.36280  0.99118  1.0000 -0.0914743712
C   C91       1.0  0.26080  0.13720  0.99118  1.0000 -0.0914743712
C   C92       1.0  0.23920  0.86280  0.49118  1.0000 -0.0914743712
C   C93       1.0  0.24143  0.64562  0.43567  1.0000 -0.0298702519
C   C94       1.0  0.25857  0.35438  0.93567  1.0000 -0.0298702519
C   C95       1.0  0.25857  0.14562  0.93567  1.0000 -0.0298702519
C   C96       1.0  0.24143  0.85438  0.43567  1.0000 -0.0298702519
C   C97       1.0  0.31140  0.63463  0.40899  1.0000 -0.0914743712
C   C98       1.0  0.18860  0.36537  0.90899  1.0000 -0.0914743712
C   C99       1.0  0.18860  0.13463  0.90899  1.0000 -0.0914743712
C   C100      1.0  0.31140  0.86537  0.40899  1.0000 -0.0914743712
C   C101      1.0  0.37695  0.61522  0.43640  1.0000 -0.1514380099
C   C102      1.0  0.12305  0.38478  0.93640  1.0000 -0.1514380099
C   C103      1.0  0.12305  0.11522  0.93640  1.0000 -0.1514380099
C   C104      1.0  0.37695  0.88478  0.43640  1.0000 -0.1514380099
C   C105      1.0  0.17080  0.66514  0.40594  1.0000 0.589164909
C   C106      1.0  0.32920  0.33486  0.90594  1.0000 0.589164909
C   C107      1.0  0.32920  0.16514  0.90594  1.0000 0.589164909
C   C108      1.0  0.17080  0.83486  0.40594  1.0000 0.589164909
C   C109      1.0  0.25120  0.19890  0.74034  1.0000 0.0870833025
C   C110      1.0  0.24880  0.80110  0.24034  1.0000 0.0870833025
C   C111      1.0  0.24880  0.69890  0.24034  1.0000 0.0870833025
C   C112      1.0  0.25120  0.30110  0.74034  1.0000 0.0870833025
C   C113      1.0  0.20150  0.19670  0.69683  1.0000 -0.1404540314
C   C114      1.0  0.29850  0.80330  0.19683  1.0000 -0.1404540314
C   C115      1.0  0.29850  0.69670  0.19683  1.0000 -0.1404540314
C   C116      1.0  0.20150  0.30330  0.69683  1.0000 -0.1404540314
C   C117      1.0  0.17700  0.25000  0.67480  1.0000 -0.0008542355
C   C118      1.0  0.32300  0.75000  0.17480  1.0000 -0.0008542355
C   C119      1.0  0.39520  0.88330  0.05960  1.0000 0.5518407822
C   C120      1.0  0.10480  0.11670  0.55960  1.0000 0.5518407822
C   C121      1.0  0.10480  0.38330  0.55960  1.0000 0.5518407822
C   C122      1.0  0.39520  0.61670  0.05960  1.0000 0.5518407822
C   C123      1.0  0.31593  0.89367  0.03461  1.0000 -0.0192540249
C   C124      1.0  0.18407  0.10633  0.53461  1.0000 -0.0192540249
C   C125      1.0  0.18407  0.39367  0.53461  1.0000 -0.0192540249
C   C126      1.0  0.31593  0.60633  0.03461  1.0000 -0.0192540249
C   C127      1.0  0.29730  0.94690  0.01010  1.0000 -0.083372781
C   C128      1.0  0.20270  0.05310  0.51010  1.0000 -0.083372781
C   C129      1.0  0.20270  0.44690  0.51010  1.0000 -0.083372781
C   C130      1.0  0.29730  0.55310  0.01010  1.0000 -0.083372781
C   C131      1.0  0.22430  0.95648  0.98860  1.0000 -0.1514380099
C   C132      1.0  0.27570  0.04352  0.48860  1.0000 -0.1514380099
C   C133      1.0  0.27570  0.45648  0.48860  1.0000 -0.1514380099
C   C134      1.0  0.22430  0.54352  0.98860  1.0000 -0.1514380099
C   C135      1.0  0.16649  0.91197  0.99106  1.0000 0.0812498841
C   C136      1.0  0.33351  0.08803  0.49106  1.0000 0.0812498841
C   C137      1.0  0.33351  0.41197  0.49106  1.0000 0.0812498841
C   C138      1.0  0.16649  0.58803  0.99106  1.0000 0.0812498841
C   C139      1.0  0.18510  0.85795  0.01567  1.0000 -0.1565284896
C   C140      1.0  0.31490  0.14205  0.51567  1.0000 -0.1565284896
C   C141      1.0  0.31490  0.35795  0.51567  1.0000 -0.1565284896
C   C142      1.0  0.18510  0.64205  0.01567  1.0000 -0.1565284896
C   C143      1.0  0.25890  0.84863  0.03720  1.0000 -0.0914743712
C   C144      1.0  0.24110  0.15137  0.53720  1.0000 -0.0914743712
C   C145      1.0  0.24110  0.34863  0.53720  1.0000 -0.0914743712
C   C146      1.0  0.25890  0.65137  0.03720  1.0000 -0.0914743712
C   C147      1.0  0.08631  0.92402  0.96953  1.0000 0.0812498841
C   C148      1.0  0.41369  0.07598  0.46953  1.0000 0.0812498841
C   C149      1.0  0.41369  0.42402  0.46953  1.0000 0.0812498841
C   C150      1.0  0.08631  0.57598  0.96953  1.0000 0.0812498841
C   C151      1.0  0.07578  0.95899  0.92408  1.0000 -0.1901910218
C   C152      1.0  0.42422  0.04101  0.42408  1.0000 -0.1901910218
C   C153      1.0  0.42422  0.45899  0.42408  1.0000 -0.1901910218
C   C154      1.0  0.07578  0.54101  0.92408  1.0000 -0.1901910218
C   C155      1.0  0.00105  0.97362  0.90520  1.0000 0.0812498841
C   C156      1.0  0.49895  0.02638  0.40520  1.0000 0.0812498841
C   C157      1.0  0.49895  0.47362  0.40520  1.0000 0.0812498841
C   C158      1.0  0.00105  0.52638  0.90520  1.0000 0.0812498841
C   C159      1.0  0.93599  0.95082  0.93291  1.0000 -0.1901910218
C   C160      1.0  0.56401  0.04918  0.43291  1.0000 -0.1901910218
C   C161      1.0  0.56401  0.45082  0.43291  1.0000 -0.1901910218
C   C162      1.0  0.93599  0.54918  0.93291  1.0000 -0.1901910218
C   C163      1.0  0.94485  0.91471  0.97846  1.0000 0.0812498841
C   C164      1.0  0.55515  0.08529  0.47846  1.0000 0.0812498841
C   C165      1.0  0.55515  0.41471  0.47846  1.0000 0.0812498841
C   C166      1.0  0.94485  0.58529  0.97846  1.0000 0.0812498841
C   C167      1.0  0.02089  0.90151  0.99616  1.0000 -0.1901910218
C   C168      1.0  0.47911  0.09849  0.49616  1.0000 -0.1901910218
C   C169      1.0  0.47911  0.40151  0.49616  1.0000 -0.1901910218
C   C170      1.0  0.02089  0.59849  0.99616  1.0000 -0.1901910218
C   C171      1.0  0.99028  0.01342  0.85829  1.0000 0.0711176777
C   C172      1.0  0.50972  0.98658  0.35829  1.0000 0.0711176777
C   C173      1.0  0.50972  0.51342  0.35829  1.0000 0.0711176777
C   C174      1.0  0.99028  0.48658  0.85829  1.0000 0.0711176777
C   C175      1.0  0.04030  0.01190  0.81452  1.0000 -0.1514380099
C   C176      1.0  0.45970  0.98810  0.31452  1.0000 -0.1514380099
C   C177      1.0  0.45970  0.51190  0.31452  1.0000 -0.1514380099
C   C178      1.0  0.04030  0.48810  0.81452  1.0000 -0.1514380099
C   C179      1.0  0.03130  0.05090  0.77205  1.0000 -0.0914743712
C   C180      1.0  0.46870  0.94910  0.27205  1.0000 -0.0914743712
C   C181      1.0  0.46870  0.55090  0.27205  1.0000 -0.0914743712
C   C182      1.0  0.03130  0.44910  0.77205  1.0000 -0.0914743712
C   C183      1.0  0.97160  0.09323  0.77175  1.0000 -0.0192540249
C   C184      1.0  0.52840  0.90677  0.27175  1.0000 -0.0192540249
C   C185      1.0  0.52840  0.59323  0.27175  1.0000 -0.0192540249
C   C186      1.0  0.97160  0.40677  0.77175  1.0000 -0.0192540249
C   C187      1.0  0.92170  0.09562  0.81560  1.0000 -0.0914743712
C   C188      1.0  0.57830  0.90438  0.31560  1.0000 -0.0914743712
C   C189      1.0  0.57830  0.59562  0.31560  1.0000 -0.0914743712
C   C190      1.0  0.92170  0.40438  0.81560  1.0000 -0.0914743712
C   C191      1.0  0.93050  0.05624  0.85781  1.0000 -0.1565284896
C   C192      1.0  0.56950  0.94376  0.35781  1.0000 -0.1565284896
C   C193      1.0  0.56950  0.55624  0.35781  1.0000 -0.1565284896
C   C194      1.0  0.93050  0.44376  0.85781  1.0000 -0.1565284896
C   C195      1.0  0.96165  0.13626  0.72555  1.0000 0.589164909
C   C196      1.0  0.53835  0.86374  0.22555  1.0000 0.589164909
C   C197      1.0  0.53835  0.63626  0.22555  1.0000 0.589164909
C   C198      1.0  0.96165  0.36374  0.72555  1.0000 0.589164909
C   C199      1.0  0.87498  0.89251  0.00777  1.0000 0.0711176777
C   C200      1.0  0.62502  0.10749  0.50777  1.0000 0.0711176777
C   C201      1.0  0.62502  0.39251  0.50777  1.0000 0.0711176777
C   C202      1.0  0.87498  0.60749  0.00777  1.0000 0.0711176777
C   C203      1.0  0.80520  0.88110  0.98160  1.0000 -0.1514380099
C   C204      1.0  0.69480  0.11890  0.48160  1.0000 -0.1514380099
C   C205      1.0  0.69480  0.38110  0.48160  1.0000 -0.1514380099
C   C206      1.0  0.80520  0.61890  0.98160  1.0000 -0.1514380099
C   C207      1.0  0.73920  0.86280  0.00882  1.0000 -0.0914743712
C   C208      1.0  0.76080  0.13720  0.50882  1.0000 -0.0914743712
C   C209      1.0  0.76080  0.36280  0.50882  1.0000 -0.0914743712
C   C210      1.0  0.73920  0.63720  0.00882  1.0000 -0.0914743712
C   C211      1.0  0.74143  0.85438  0.06433  1.0000 -0.0298702519
C   C212      1.0  0.75857  0.14562  0.56433  1.0000 -0.0298702519
C   C213      1.0  0.75857  0.35438  0.56433  1.0000 -0.0298702519
C   C214      1.0  0.74143  0.64562  0.06433  1.0000 -0.0298702519
C   C215      1.0  0.81140  0.86537  0.09101  1.0000 -0.0914743712
C   C216      1.0  0.68860  0.13463  0.59101  1.0000 -0.0914743712
C   C217      1.0  0.68860  0.36537  0.59101  1.0000 -0.0914743712
C   C218      1.0  0.81140  0.63463  0.09101  1.0000 -0.0914743712
C   C219      1.0  0.87695  0.88478  0.06360  1.0000 -0.1514380099
C   C220      1.0  0.62305  0.11522  0.56360  1.0000 -0.1514380099
C   C221      1.0  0.62305  0.38478  0.56360  1.0000 -0.1514380099
C   C222      1.0  0.87695  0.61522  0.06360  1.0000 -0.1514380099
C   C223      1.0  0.67080  0.83486  0.09406  1.0000 0.589164909
C   C224      1.0  0.82920  0.16514  0.59406  1.0000 0.589164909
C   C225      1.0  0.82920  0.33486  0.59406  1.0000 0.589164909
C   C226      1.0  0.67080  0.66514  0.09406  1.0000 0.589164909
C   C227      1.0  0.75120  0.30110  0.75966  1.0000 0.0870833025
C   C228      1.0  0.74880  0.69890  0.25966  1.0000 0.0870833025
C   C229      1.0  0.74880  0.80110  0.25966  1.0000 0.0870833025
C   C230      1.0  0.75120  0.19890  0.75966  1.0000 0.0870833025
C   C231      1.0  0.70150  0.30330  0.80317  1.0000 -0.1404540314
C   C232      1.0  0.79850  0.69670  0.30317  1.0000 -0.1404540314
C   C233      1.0  0.79850  0.80330  0.30317  1.0000 -0.1404540314
C   C234      1.0  0.70150  0.19670  0.80317  1.0000 -0.1404540314
C   C235      1.0  0.67700  0.25000  0.82520  1.0000 -0.0008542355
C   C236      1.0  0.82300  0.75000  0.32520  1.0000 0.0009715378
N   N1        1.0  0.27760  0.25000  0.76119  1.0000 -0.2073630206
N   N2        1.0  0.22240  0.75000  0.26119  1.0000 -0.2073630206
N   N3        1.0  0.77760  0.25000  0.73881  1.0000 -0.2073630206
N   N4        1.0  0.72240  0.75000  0.23881  1.0000 -0.2073630206
O   O1        1.0  0.48111  0.25000  0.85522  1.0000 -0.7735750824
O   O2        1.0  0.01889  0.75000  0.35522  1.0000 -0.7735750824
O   O3        1.0  0.90765  0.66753  0.41963  1.0000 -0.511677246
O   O4        1.0  0.59235  0.33247  0.91963  1.0000 -0.511677246
O   O5        1.0  0.59235  0.16753  0.91963  1.0000 -0.511677246
O   O6        1.0  0.90765  0.83247  0.41963  1.0000 -0.511677246
O   O7        1.0  0.94490  0.57664  0.44091  1.0000 -0.4849046617
O   O8        1.0  0.55510  0.42336  0.94091  1.0000 -0.4874574333
O   O9        1.0  0.55510  0.07664  0.94091  1.0000 -0.4874574333
O   O10       1.0  0.94490  0.92336  0.44091  1.0000 -0.4874574333
O   O11       1.0  0.49305  0.37881  0.81867  1.0000 -0.5224864565
O   O12       1.0  0.00695  0.62119  0.31867  1.0000 -0.5224864565
O   O13       1.0  0.00695  0.87881  0.31867  1.0000 -0.5224864565
O   O14       1.0  0.49305  0.12119  0.81867  1.0000 -0.5224864565
O   O15       1.0  0.42316  0.31692  0.76522  1.0000 -0.5224864565
O   O16       1.0  0.07684  0.68308  0.26522  1.0000 -0.5224864565
O   O17       1.0  0.07684  0.81692  0.26522  1.0000 -0.5224864565
O   O18       1.0  0.42316  0.18308  0.76522  1.0000 -0.5224864565
O   O19       1.0  0.10512  0.65973  0.42889  1.0000 -0.511677246
O   O20       1.0  0.39488  0.34027  0.92889  1.0000 -0.511677246
O   O21       1.0  0.39488  0.15973  0.92889  1.0000 -0.511677246
O   O22       1.0  0.10512  0.84027  0.42889  1.0000 -0.511677246
O   O23       1.0  0.17996  0.68468  0.35908  1.0000 -0.5554828196
O   O24       1.0  0.32004  0.31532  0.85908  1.0000 -0.5549647361
O   O25       1.0  0.32004  0.18468  0.85908  1.0000 -0.5549647361
O   O26       1.0  0.17996  0.81532  0.35908  1.0000 -0.5554828196
O   O27       1.0  0.98111  0.25000  0.64478  1.0000 -0.7764094024
O   O28       1.0  0.51889  0.75000  0.14478  1.0000 -0.7735750824
O   O29       1.0  0.40765  0.83247  0.08037  1.0000 -0.511677246
O   O30       1.0  0.09235  0.16753  0.58037  1.0000 -0.5224864565
O   O31       1.0  0.09235  0.33247  0.58037  1.0000 -0.5224864565
O   O32       1.0  0.40765  0.66753  0.08037  1.0000 -0.511677246
O   O33       1.0  0.44490  0.92336  0.05909  1.0000 -0.4874574333
O   O34       1.0  0.05510  0.07664  0.55909  1.0000 -0.4849046617
O   O35       1.0  0.05510  0.42336  0.55909  1.0000 -0.4849046617
O   O36       1.0  0.44490  0.57664  0.05909  1.0000 -0.4874574333
O   O37       1.0  0.99305  0.12119  0.68133  1.0000 -0.5224864565
O   O38       1.0  0.50695  0.87881  0.18133  1.0000 -0.5224864565
O   O39       1.0  0.50695  0.62119  0.18133  1.0000 -0.5224864565
O   O40       1.0  0.99305  0.37881  0.68133  1.0000 -0.5224864565
O   O41       1.0  0.92316  0.18308  0.73478  1.0000 -0.5224864565
O   O42       1.0  0.57684  0.81692  0.23478  1.0000 -0.5224864565
O   O43       1.0  0.57684  0.68308  0.23478  1.0000 -0.5224864565
O   O44       1.0  0.92316  0.31692  0.73478  1.0000 -0.5224864565
O   O45       1.0  0.60512  0.84027  0.07111  1.0000 -0.511677246
O   O46       1.0  0.89488  0.15973  0.57111  1.0000 -0.511677246
O   O47       1.0  0.89488  0.34027  0.57111  1.0000 -0.511677246
O   O48       1.0  0.60512  0.65973  0.07111  1.0000 -0.511677246
O   O49       1.0  0.67996  0.81532  0.14092  1.0000 -0.5554828196
O   O50       1.0  0.82004  0.18468  0.64092  1.0000 -0.5549647361
O   O51       1.0  0.82004  0.31532  0.64092  1.0000 -0.5549647361
O   O52       1.0  0.67996  0.68468  0.14092  1.0000 -0.5554828196
