# DDEC6 charges by PACMAN v1.1 (https://github.com/mtap-research/PACMAN-charge/)
data_2008[Cu][ssa]3[ASR]1
_chemical_formula_sum              "Cu12 H48 C102 O48"
_cell_length_a       18.07
_cell_length_b       18.07
_cell_length_c       19.34
_cell_angle_alpha    90
_cell_angle_beta     90
_cell_angle_gamma    120

_symmetry_space_group_name_H-M    "P 1"
_symmetry_Int_Tables_number       1

loop_
  _symmetry_equiv_pos_as_xyz
  'x, y, z'

loop_
  _atom_site_type_symbol
  _atom_site_label
  _atom_site_symmetry_multiplicity
  _atom_site_fract_x
  _atom_site_fract_y
  _atom_site_fract_z
  _atom_site_occupancy
  _atom_site_charge
Cu  Cu1       1.0  0.47322  0.52678  0.94652  1.0000 0.8871471408
Cu  Cu2       1.0  0.94644  0.47322  0.44652  1.0000 0.8871471408
Cu  Cu3       1.0  0.47322  0.94644  0.94652  1.0000 0.8871471408
Cu  Cu4       1.0  0.05356  0.52678  0.94652  1.0000 0.8871471408
Cu  Cu5       1.0  0.52678  0.05356  0.44652  1.0000 0.8871471408
Cu  Cu6       1.0  0.47322  0.94644  0.55348  1.0000 0.8871471408
Cu  Cu7       1.0  0.52678  0.47322  0.05348  1.0000 0.8871471408
Cu  Cu8       1.0  0.05356  0.52678  0.55348  1.0000 0.8871471408
Cu  Cu9       1.0  0.52678  0.47322  0.44652  1.0000 0.8871471408
Cu  Cu10      1.0  0.47322  0.52678  0.55348  1.0000 0.8871471408
Cu  Cu11      1.0  0.94644  0.47322  0.05348  1.0000 0.8871471408
Cu  Cu12      1.0  0.52678  0.05356  0.05348  1.0000 0.8871471408
H   H1        1.0  0.28740  0.35150  0.17250  1.0000 0.1320379185
H   H2        1.0  0.93590  0.28740  0.67250  1.0000 0.1320379185
H   H3        1.0  0.64850  0.93590  0.17250  1.0000 0.1320379185
H   H4        1.0  0.06410  0.71260  0.17250  1.0000 0.1320379185
H   H5        1.0  0.35150  0.06410  0.67250  1.0000 0.1320379185
H   H6        1.0  0.28740  0.93590  0.32750  1.0000 0.1320379185
H   H7        1.0  0.35150  0.28740  0.82750  1.0000 0.1320379185
H   H8        1.0  0.06410  0.35150  0.32750  1.0000 0.1320379185
H   H9        1.0  0.71260  0.64850  0.67250  1.0000 0.1320379185
H   H10       1.0  0.64850  0.71260  0.32750  1.0000 0.1320379185
H   H11       1.0  0.93590  0.64850  0.82750  1.0000 0.1320379185
H   H12       1.0  0.71260  0.06410  0.82750  1.0000 0.1320379185
H   H13       1.0  0.71260  0.64850  0.82750  1.0000 0.1320379185
H   H14       1.0  0.06410  0.71260  0.32750  1.0000 0.1320379185
H   H15       1.0  0.35150  0.06410  0.82750  1.0000 0.1320379185
H   H16       1.0  0.93590  0.28740  0.82750  1.0000 0.1320379185
H   H17       1.0  0.64850  0.93590  0.32750  1.0000 0.1320379185
H   H18       1.0  0.71260  0.06410  0.67250  1.0000 0.1320379185
H   H19       1.0  0.64850  0.71260  0.17250  1.0000 0.1320379185
H   H20       1.0  0.93590  0.64850  0.67250  1.0000 0.1320379185
H   H21       1.0  0.28740  0.35150  0.32750  1.0000 0.1320379185
H   H22       1.0  0.35150  0.28740  0.67250  1.0000 0.1320379185
H   H23       1.0  0.06410  0.35150  0.17250  1.0000 0.1320379185
H   H24       1.0  0.28740  0.93590  0.17250  1.0000 0.1320379185
H   H25       1.0  0.23840  0.47680  0.02960  1.0000 0.1475611377
H   H26       1.0  0.76160  0.23840  0.52960  1.0000 0.1475611377
H   H27       1.0  0.52320  0.76160  0.02960  1.0000 0.1475611377
H   H28       1.0  0.23840  0.76160  0.02960  1.0000 0.1475611377
H   H29       1.0  0.47680  0.23840  0.52960  1.0000 0.1475611377
H   H30       1.0  0.23840  0.76160  0.47040  1.0000 0.1475611377
H   H31       1.0  0.47680  0.23840  0.97040  1.0000 0.1475611377
H   H32       1.0  0.23840  0.47680  0.47040  1.0000 0.1475611377
H   H33       1.0  0.76160  0.52320  0.52960  1.0000 0.1475611377
H   H34       1.0  0.52320  0.76160  0.47040  1.0000 0.1475611377
H   H35       1.0  0.76160  0.52320  0.97040  1.0000 0.1475611377
H   H36       1.0  0.76160  0.23840  0.97040  1.0000 0.1475611377
H   H37       1.0  0.08190  0.25140  0.25000  1.0000 0.1320379185
H   H38       1.0  0.83050  0.08190  0.75000  1.0000 0.1320379185
H   H39       1.0  0.74860  0.83050  0.25000  1.0000 0.1320379185
H   H40       1.0  0.16950  0.91810  0.25000  1.0000 0.1320379185
H   H41       1.0  0.25140  0.16950  0.75000  1.0000 0.1320379185
H   H42       1.0  0.08190  0.83050  0.25000  1.0000 0.1320379185
H   H43       1.0  0.25140  0.08190  0.75000  1.0000 0.1320379185
H   H44       1.0  0.16950  0.25140  0.25000  1.0000 0.1320379185
H   H45       1.0  0.91810  0.74860  0.75000  1.0000 0.1320379185
H   H46       1.0  0.74860  0.91810  0.25000  1.0000 0.1320379185
H   H47       1.0  0.83050  0.74860  0.75000  1.0000 0.1320379185
H   H48       1.0  0.91810  0.16950  0.75000  1.0000 0.1320379185
C   C1        1.0  0.27410  0.41710  0.09600  1.0000 -0.0128024352
C   C2        1.0  0.85700  0.27410  0.59600  1.0000 -0.0128024352
C   C3        1.0  0.58290  0.85700  0.09600  1.0000 -0.0128024352
C   C4        1.0  0.14300  0.72590  0.09600  1.0000 -0.0128024352
C   C5        1.0  0.41710  0.14300  0.59600  1.0000 -0.0128024352
C   C6        1.0  0.27410  0.85700  0.40400  1.0000 -0.0128024352
C   C7        1.0  0.41710  0.27410  0.90400  1.0000 -0.0128024352
C   C8        1.0  0.14300  0.41710  0.40400  1.0000 -0.0128024352
C   C9        1.0  0.72590  0.58290  0.59600  1.0000 -0.0128024352
C   C10       1.0  0.58290  0.72590  0.40400  1.0000 -0.0128024352
C   C11       1.0  0.85700  0.58290  0.90400  1.0000 -0.0128024352
C   C12       1.0  0.72590  0.14300  0.90400  1.0000 -0.0128024352
C   C13       1.0  0.72590  0.58290  0.90400  1.0000 -0.0128024352
C   C14       1.0  0.14300  0.72590  0.40400  1.0000 -0.0128024352
C   C15       1.0  0.41710  0.14300  0.90400  1.0000 -0.0128024352
C   C16       1.0  0.85700  0.27410  0.90400  1.0000 -0.0128024352
C   C17       1.0  0.58290  0.85700  0.40400  1.0000 -0.0128024352
C   C18       1.0  0.72590  0.14300  0.59600  1.0000 -0.0128024352
C   C19       1.0  0.58290  0.72590  0.09600  1.0000 -0.0128024352
C   C20       1.0  0.85700  0.58290  0.59600  1.0000 -0.0128024352
C   C21       1.0  0.27410  0.41710  0.40400  1.0000 -0.0128024352
C   C22       1.0  0.41710  0.27410  0.59600  1.0000 -0.0128024352
C   C23       1.0  0.14300  0.41710  0.09600  1.0000 -0.0128024352
C   C24       1.0  0.27410  0.85700  0.09600  1.0000 -0.0128024352
C   C25       1.0  0.24980  0.36660  0.15440  1.0000 -0.1594172383
C   C26       1.0  0.88320  0.24980  0.65440  1.0000 -0.1594172383
C   C27       1.0  0.63340  0.88320  0.15440  1.0000 -0.1594172383
C   C28       1.0  0.11680  0.75020  0.15440  1.0000 -0.1594172383
C   C29       1.0  0.36660  0.11680  0.65440  1.0000 -0.1594172383
C   C30       1.0  0.24980  0.88320  0.34560  1.0000 -0.1594172383
C   C31       1.0  0.36660  0.24980  0.84560  1.0000 -0.1594172383
C   C32       1.0  0.11680  0.36660  0.34560  1.0000 -0.1594172383
C   C33       1.0  0.75020  0.63340  0.65440  1.0000 -0.1594172383
C   C34       1.0  0.63340  0.75020  0.34560  1.0000 -0.1594172383
C   C35       1.0  0.88320  0.63340  0.84560  1.0000 -0.1594172383
C   C36       1.0  0.75020  0.11680  0.84560  1.0000 -0.1594172383
C   C37       1.0  0.75020  0.63340  0.84560  1.0000 -0.1594172383
C   C38       1.0  0.11680  0.75020  0.34560  1.0000 -0.1594172383
C   C39       1.0  0.36660  0.11680  0.84560  1.0000 -0.1594172383
C   C40       1.0  0.88320  0.24980  0.84560  1.0000 -0.1594172383
C   C41       1.0  0.63340  0.88320  0.34560  1.0000 -0.1594172383
C   C42       1.0  0.75020  0.11680  0.65440  1.0000 -0.1594172383
C   C43       1.0  0.63340  0.75020  0.15440  1.0000 -0.1594172383
C   C44       1.0  0.88320  0.63340  0.65440  1.0000 -0.1594172383
C   C45       1.0  0.24980  0.36660  0.34560  1.0000 -0.1594172383
C   C46       1.0  0.36660  0.24980  0.65440  1.0000 -0.1594172383
C   C47       1.0  0.11680  0.36660  0.15440  1.0000 -0.1594172383
C   C48       1.0  0.24980  0.88320  0.15440  1.0000 -0.1594172383
C   C49       1.0  0.17040  0.34080  0.18600  1.0000 0.1116598011
C   C50       1.0  0.82960  0.17040  0.68600  1.0000 0.1116598011
C   C51       1.0  0.65920  0.82960  0.18600  1.0000 0.1116598011
C   C52       1.0  0.17040  0.82960  0.18600  1.0000 0.1116598011
C   C53       1.0  0.34080  0.17040  0.68600  1.0000 0.1116598011
C   C54       1.0  0.17040  0.82960  0.31400  1.0000 0.1116598011
C   C55       1.0  0.34080  0.17040  0.81400  1.0000 0.1116598011
C   C56       1.0  0.17040  0.34080  0.31400  1.0000 0.1116598011
C   C57       1.0  0.82960  0.65920  0.68600  1.0000 0.1116598011
C   C58       1.0  0.65920  0.82960  0.31400  1.0000 0.1116598011
C   C59       1.0  0.82960  0.65920  0.81400  1.0000 0.1116598011
C   C60       1.0  0.82960  0.17040  0.81400  1.0000 0.1116598011
C   C61       1.0  0.22090  0.44180  0.06850  1.0000 -0.113260961
C   C62       1.0  0.77910  0.22090  0.56850  1.0000 -0.113260961
C   C63       1.0  0.55820  0.77910  0.06850  1.0000 -0.113260961
C   C64       1.0  0.22090  0.77910  0.06850  1.0000 -0.113260961
C   C65       1.0  0.44180  0.22090  0.56850  1.0000 -0.113260961
C   C66       1.0  0.22090  0.77910  0.43150  1.0000 -0.113260961
C   C67       1.0  0.44180  0.22090  0.93150  1.0000 -0.113260961
C   C68       1.0  0.22090  0.44180  0.43150  1.0000 -0.113260961
C   C69       1.0  0.77910  0.55820  0.56850  1.0000 -0.113260961
C   C70       1.0  0.55820  0.77910  0.43150  1.0000 -0.113260961
C   C71       1.0  0.77910  0.55820  0.93150  1.0000 -0.113260961
C   C72       1.0  0.77910  0.22090  0.93150  1.0000 -0.113260961
C   C73       1.0  0.14305  0.28610  0.25000  1.0000 -0.3044567284
C   C74       1.0  0.85695  0.14305  0.75000  1.0000 -0.3065409836
C   C75       1.0  0.71390  0.85695  0.25000  1.0000 -0.3065409836
C   C76       1.0  0.14305  0.85695  0.25000  1.0000 -0.3065409836
C   C77       1.0  0.28610  0.14305  0.75000  1.0000 -0.3044567284
C   C78       1.0  0.85695  0.71390  0.75000  1.0000 -0.3044567284
C   C79       1.0  0.36020  0.44410  0.06330  1.0000 0.5871347486
C   C80       1.0  0.91610  0.36020  0.56330  1.0000 0.5871347486
C   C81       1.0  0.55590  0.91610  0.06330  1.0000 0.5871347486
C   C82       1.0  0.08390  0.63980  0.06330  1.0000 0.5871347486
C   C83       1.0  0.44410  0.08390  0.56330  1.0000 0.5871347486
C   C84       1.0  0.36020  0.91610  0.43670  1.0000 0.5871347486
C   C85       1.0  0.44410  0.36020  0.93670  1.0000 0.5871347486
C   C86       1.0  0.08390  0.44410  0.43670  1.0000 0.5871347486
C   C87       1.0  0.63980  0.55590  0.56330  1.0000 0.5871347486
C   C88       1.0  0.55590  0.63980  0.43670  1.0000 0.5871347486
C   C89       1.0  0.91610  0.55590  0.93670  1.0000 0.5871347486
C   C90       1.0  0.63980  0.08390  0.93670  1.0000 0.5871347486
C   C91       1.0  0.63980  0.55590  0.93670  1.0000 0.5871347486
C   C92       1.0  0.08390  0.63980  0.43670  1.0000 0.5871347486
C   C93       1.0  0.44410  0.08390  0.93670  1.0000 0.5871347486
C   C94       1.0  0.91610  0.36020  0.93670  1.0000 0.5871347486
C   C95       1.0  0.55590  0.91610  0.43670  1.0000 0.5871347486
C   C96       1.0  0.63980  0.08390  0.56330  1.0000 0.5871347486
C   C97       1.0  0.55590  0.63980  0.06330  1.0000 0.5871347486
C   C98       1.0  0.91610  0.55590  0.56330  1.0000 0.5871347486
C   C99       1.0  0.36020  0.44410  0.43670  1.0000 0.5871347486
C   C100      1.0  0.44410  0.36020  0.56330  1.0000 0.5871347486
C   C101      1.0  0.08390  0.44410  0.06330  1.0000 0.5871347486
C   C102      1.0  0.36020  0.91610  0.06330  1.0000 0.5871347486
O   O1        1.0  0.36920  0.47820  0.00270  1.0000 -0.5388691948
O   O2        1.0  0.89100  0.36920  0.50270  1.0000 -0.5388691948
O   O3        1.0  0.52180  0.89100  0.00270  1.0000 -0.5388691948
O   O4        1.0  0.10900  0.63080  0.00270  1.0000 -0.5388691948
O   O5        1.0  0.47820  0.10900  0.50270  1.0000 -0.5388691948
O   O6        1.0  0.36920  0.89100  0.49730  1.0000 -0.5388691948
O   O7        1.0  0.47820  0.36920  0.99730  1.0000 -0.5388691948
O   O8        1.0  0.10900  0.47820  0.49730  1.0000 -0.5388691948
O   O9        1.0  0.63080  0.52180  0.50270  1.0000 -0.5388691948
O   O10       1.0  0.52180  0.63080  0.49730  1.0000 -0.5388691948
O   O11       1.0  0.89100  0.52180  0.99730  1.0000 -0.5388691948
O   O12       1.0  0.63080  0.10900  0.99730  1.0000 -0.5388691948
O   O13       1.0  0.63080  0.52180  0.99730  1.0000 -0.5388691948
O   O14       1.0  0.10900  0.63080  0.49730  1.0000 -0.5388691948
O   O15       1.0  0.47820  0.10900  0.99730  1.0000 -0.5388691948
O   O16       1.0  0.89100  0.36920  0.99730  1.0000 -0.5388691948
O   O17       1.0  0.52180  0.89100  0.49730  1.0000 -0.5388691948
O   O18       1.0  0.63080  0.10900  0.50270  1.0000 -0.5388691948
O   O19       1.0  0.52180  0.63080  0.00270  1.0000 -0.5388691948
O   O20       1.0  0.89100  0.52180  0.50270  1.0000 -0.5388691948
O   O21       1.0  0.36920  0.47820  0.49730  1.0000 -0.5388691948
O   O22       1.0  0.47820  0.36920  0.50270  1.0000 -0.5388691948
O   O23       1.0  0.10900  0.47820  0.00270  1.0000 -0.5388691948
O   O24       1.0  0.36920  0.89100  0.00270  1.0000 -0.5388691948
O   O25       1.0  0.41600  0.43320  0.09450  1.0000 -0.5138368153
O   O26       1.0  0.98280  0.41600  0.59450  1.0000 -0.5138368153
O   O27       1.0  0.56680  0.98280  0.09450  1.0000 -0.5138368153
O   O28       1.0  0.01720  0.58400  0.09450  1.0000 -0.5138368153
O   O29       1.0  0.43320  0.01720  0.59450  1.0000 -0.5156159675
O   O30       1.0  0.41600  0.98280  0.40550  1.0000 -0.5138368153
O   O31       1.0  0.43320  0.41600  0.90550  1.0000 -0.5138368153
O   O32       1.0  0.01720  0.43320  0.40550  1.0000 -0.5138368153
O   O33       1.0  0.58400  0.56680  0.59450  1.0000 -0.5156159675
O   O34       1.0  0.56680  0.58400  0.40550  1.0000 -0.5138368153
O   O35       1.0  0.98280  0.56680  0.90550  1.0000 -0.5156159675
O   O36       1.0  0.58400  0.01720  0.90550  1.0000 -0.5138368153
O   O37       1.0  0.58400  0.56680  0.90550  1.0000 -0.5156159675
O   O38       1.0  0.01720  0.58400  0.40550  1.0000 -0.5138368153
O   O39       1.0  0.43320  0.01720  0.90550  1.0000 -0.5156159675
O   O40       1.0  0.98280  0.41600  0.90550  1.0000 -0.5138368153
O   O41       1.0  0.56680  0.98280  0.40550  1.0000 -0.5138368153
O   O42       1.0  0.58400  0.01720  0.59450  1.0000 -0.5138368153
O   O43       1.0  0.56680  0.58400  0.09450  1.0000 -0.5138368153
O   O44       1.0  0.98280  0.56680  0.59450  1.0000 -0.5156159675
O   O45       1.0  0.41600  0.43320  0.40550  1.0000 -0.5138368153
O   O46       1.0  0.43320  0.41600  0.59450  1.0000 -0.5138368153
O   O47       1.0  0.01720  0.43320  0.09450  1.0000 -0.5138368153
O   O48       1.0  0.41600  0.98280  0.09450  1.0000 -0.5138368153
