# DDEC6 charges by PACMAN v1.1 (https://github.com/mtap-research/PACMAN-charge/)
data_2008[Gd][nan]3[ASR]1
_chemical_formula_sum              "Gd2 H24 C42 O12"
_cell_length_a       15.0818
_cell_length_b       15.0818
_cell_length_c       14.066
_cell_angle_alpha    64.7855
_cell_angle_beta     115.215
_cell_angle_gamma    146.782

_symmetry_space_group_name_H-M    "P 1"
_symmetry_Int_Tables_number       1

loop_
  _symmetry_equiv_pos_as_xyz
  'x, y, z'

loop_
  _atom_site_type_symbol
  _atom_site_label
  _atom_site_symmetry_multiplicity
  _atom_site_fract_x
  _atom_site_fract_y
  _atom_site_fract_z
  _atom_site_occupancy
  _atom_site_charge
Gd  Gd1       1.0  0.03981  0.49445  0.00553  1.0000 2.0577518144
Gd  Gd2       1.0  0.49445  0.03981  0.99447  1.0000 2.0577518144
H   H1        1.0  0.21970  0.55510  0.80180  1.0000 0.1094124481
H   H2        1.0  0.55510  0.21970  0.19820  1.0000 0.1094124481
H   H3        1.0  0.23540  0.54660  0.64690  1.0000 0.1094124481
H   H4        1.0  0.54660  0.23540  0.35310  1.0000 0.1094124481
H   H5        1.0  0.55500  0.02180  0.55820  1.0000 0.1094124481
H   H6        1.0  0.02180  0.55500  0.44180  1.0000 0.1094124481
H   H7        1.0  0.56090  0.03890  0.71850  1.0000 0.1094124481
H   H8        1.0  0.03890  0.56090  0.28150  1.0000 0.1094124481
H   H9        1.0  0.32040  0.57440  0.53170  1.0000 0.1094124481
H   H10       1.0  0.57440  0.32040  0.46830  1.0000 0.1094124481
H   H11       1.0  0.27900  0.54140  0.36450  1.0000 0.1202136301
H   H12       1.0  0.54140  0.27900  0.63550  1.0000 0.1202136301
H   H13       1.0  0.41950  0.93490  0.23260  1.0000 0.1094124481
H   H14       1.0  0.93490  0.41950  0.76740  1.0000 0.1094124481
H   H15       1.0  0.44280  0.95980  0.39640  1.0000 0.1094124481
H   H16       1.0  0.95980  0.44280  0.60360  1.0000 0.1094124481
H   H17       1.0  0.82910  0.60230  0.71930  1.0000 0.1202136301
H   H18       1.0  0.60230  0.82910  0.28070  1.0000 0.1202136301
H   H19       1.0  0.74320  0.67000  0.56530  1.0000 0.1094124481
H   H20       1.0  0.67000  0.74320  0.43470  1.0000 0.1094124481
H   H21       1.0  0.19430  0.14110  0.57650  1.0000 0.1094124481
H   H22       1.0  0.14110  0.19430  0.42350  1.0000 0.1094124481
H   H23       1.0  0.27590  0.06270  0.72070  1.0000 0.1305367597
H   H24       1.0  0.06270  0.27590  0.27930  1.0000 0.1305367597
C   C1        1.0  0.37360  0.80000  0.87140  1.0000 0.6481993892
C   C2        1.0  0.80000  0.37360  0.12860  1.0000 0.6481993892
C   C3        1.0  0.38780  0.79660  0.77370  1.0000 -0.0307009886
C   C4        1.0  0.79660  0.38780  0.22630  1.0000 -0.0307009886
C   C5        1.0  0.28940  0.64960  0.75420  1.0000 -0.1017642119
C   C6        1.0  0.64960  0.28940  0.24580  1.0000 -0.1017642119
C   C7        1.0  0.29590  0.64410  0.65920  1.0000 -0.1614940367
C   C8        1.0  0.64410  0.29590  0.34080  1.0000 -0.1614940367
C   C9        1.0  0.39220  0.78320  0.58420  1.0000 0.0674324506
C   C10       1.0  0.78320  0.39220  0.41580  1.0000 0.0674324506
C   C11       1.0  0.48950  0.92850  0.60720  1.0000 -0.1523772548
C   C12       1.0  0.92850  0.48950  0.39280  1.0000 -0.1523772548
C   C13       1.0  0.49140  0.93860  0.70290  1.0000 -0.0877167615
C   C14       1.0  0.93860  0.49140  0.29710  1.0000 -0.0877167615
C   C15       1.0  0.38470  0.77130  0.48010  1.0000 0.077580581
C   C16       1.0  0.77130  0.38470  0.51990  1.0000 0.077580581
C   C17       1.0  0.33620  0.64380  0.47190  1.0000 -0.1669202647
C   C18       1.0  0.64380  0.33620  0.52810  1.0000 -0.1669202647
C   C19       1.0  0.31270  0.62530  0.37180  1.0000 -0.1017642119
C   C20       1.0  0.62530  0.31270  0.62820  1.0000 -0.1017642119
C   C21       1.0  0.34000  0.73140  0.28240  1.0000 -0.0188863757
C   C22       1.0  0.73140  0.34000  0.71760  1.0000 -0.0188863757
C   C23       1.0  0.39430  0.85970  0.29190  1.0000 -0.1017642119
C   C24       1.0  0.85970  0.39430  0.70810  1.0000 -0.1017642119
C   C25       1.0  0.41250  0.87750  0.39040  1.0000 -0.1523772548
C   C26       1.0  0.87750  0.41250  0.60960  1.0000 -0.1523772548
C   C27       1.0  0.28800  0.68900  0.17420  1.0000 0.6001437404
C   C28       1.0  0.68900  0.28800  0.82580  1.0000 0.6001437404
C   C29       1.0  0.11000  0.77740  0.83350  1.0000 0.6417264142
C   C30       1.0  0.77740  0.11000  0.16650  1.0000 0.6417264142
C   C31       1.0  0.05690  0.82110  0.73450  1.0000 -0.0467789784
C   C32       1.0  0.82110  0.05690  0.26550  1.0000 -0.0467789784
C   C33       1.0  0.90480  0.71120  0.68890  1.0000 -0.0877167615
C   C34       1.0  0.71120  0.90480  0.31110  1.0000 -0.0877167615
C   C35       1.0  0.85230  0.75170  0.59580  1.0000 -0.1523772548
C   C36       1.0  0.75170  0.85230  0.40420  1.0000 -0.1523772548
C   C37       1.0  0.96510  0.91690  0.54800  1.0000 0.0674324506
C   C38       1.0  0.91690  0.96510  0.45200  1.0000 0.0674324506
C   C39       1.0  0.11950  0.03050  0.60060  1.0000 -0.1523772548
C   C40       1.0  0.03050  0.11950  0.39940  1.0000 -0.1523772548
C   C41       1.0  0.16690  0.98310  0.68990  1.0000 -0.1017642119
C   C42       1.0  0.98310  0.16690  0.31010  1.0000 -0.1017642119
O   O1        1.0  0.25690  0.67350  0.91670  1.0000 -0.6402617893
O   O2        1.0  0.67350  0.25690  0.08330  1.0000 -0.6402617893
O   O3        1.0  0.49270  0.94150  0.90150  1.0000 -0.6602601609
O   O4        1.0  0.94150  0.49270  0.09850  1.0000 -0.6602601609
O   O5        1.0  0.29330  0.77450  0.09240  1.0000 -0.7261306844
O   O6        1.0  0.77450  0.29330  0.90760  1.0000 -0.7261306844
O   O7        1.0  0.22940  0.56760  0.16770  1.0000 -0.5859237514
O   O8        1.0  0.56760  0.22940  0.83230  1.0000 -0.5859237514
O   O9        1.0  0.01180  0.63340  0.87350  1.0000 -0.6064659856
O   O10       1.0  0.63340  0.01180  0.12650  1.0000 -0.6064659856
O   O11       1.0  0.25700  0.89340  0.87500  1.0000 -0.6801204882
O   O12       1.0  0.89340  0.25700  0.12500  1.0000 -0.6801204882
