# DDEC6 charges by PACMAN v1.1 (https://github.com/mtap-research/PACMAN-charge/)
data_2008[Zn][gra]3[ASR]1
_chemical_formula_sum              "Zn4 H32 C48 S8 N16 O16"
_cell_length_a       5.5225
_cell_length_b       10.3642
_cell_length_c       29.725
_cell_angle_alpha    90
_cell_angle_beta     90
_cell_angle_gamma    90

_symmetry_space_group_name_H-M    "P 1"
_symmetry_Int_Tables_number       1

loop_
  _symmetry_equiv_pos_as_xyz
  'x, y, z'

loop_
  _atom_site_type_symbol
  _atom_site_label
  _atom_site_symmetry_multiplicity
  _atom_site_fract_x
  _atom_site_fract_y
  _atom_site_fract_z
  _atom_site_occupancy
  _atom_site_charge
Zn  Zn1       1.0  0.17423  0.52068  0.24086  1.0000 0.9047273487
Zn  Zn2       1.0  0.32577  0.47932  0.74086  1.0000 0.9052898973
Zn  Zn3       1.0  0.67423  0.97932  0.75914  1.0000 0.9047273487
Zn  Zn4       1.0  0.82577  0.02068  0.25914  1.0000 0.9052898973
H   H1        1.0  0.47440  0.54750  0.32570  1.0000 0.1287918434
H   H2        1.0  0.02560  0.45250  0.82570  1.0000 0.1287918434
H   H3        1.0  0.97440  0.95250  0.67430  1.0000 0.1287918434
H   H4        1.0  0.52560  0.04750  0.17430  1.0000 0.1287918434
H   H5        1.0  0.46110  0.51440  0.40180  1.0000 0.1362034544
H   H6        1.0  0.03890  0.48560  0.90180  1.0000 0.1362034544
H   H7        1.0  0.96110  0.98560  0.59820  1.0000 0.1362034544
H   H8        1.0  0.53890  0.01440  0.09820  1.0000 0.1362034544
H   H9        1.0  0.81590  0.34560  0.38530  1.0000 0.1287918434
H   H10       1.0  0.68410  0.65440  0.88530  1.0000 0.1287918434
H   H11       1.0  0.31590  0.15440  0.61470  1.0000 0.1287918434
H   H12       1.0  0.18410  0.84560  0.11470  1.0000 0.1287918434
H   H13       1.0  0.84420  0.38590  0.31010  1.0000 0.119220751
H   H14       1.0  0.65580  0.61410  0.81010  1.0000 0.119220751
H   H15       1.0  0.34420  0.11410  0.68990  1.0000 0.119220751
H   H16       1.0  0.15580  0.88590  0.18990  1.0000 0.119220751
H   H17       1.0  0.51000  0.49290  0.57490  1.0000 0.1362034544
H   H18       1.0  0.99000  0.50710  0.07490  1.0000 0.1362034544
H   H19       1.0  0.01000  0.00710  0.42510  1.0000 0.1362034544
H   H20       1.0  0.49000  0.99290  0.92510  1.0000 0.1362034544
H   H21       1.0  0.57280  0.51710  0.65060  1.0000 0.119220751
H   H22       1.0  0.92720  0.48290  0.15060  1.0000 0.119220751
H   H23       1.0  0.07280  0.98290  0.34940  1.0000 0.119220751
H   H24       1.0  0.42720  0.01710  0.84940  1.0000 0.119220751
H   H25       1.0  0.95100  0.35540  0.67700  1.0000 0.1287918434
H   H26       1.0  0.54900  0.64460  0.17700  1.0000 0.1287918434
H   H27       1.0  0.45100  0.14460  0.32300  1.0000 0.1287918434
H   H28       1.0  0.04900  0.85540  0.82300  1.0000 0.1287918434
H   H29       1.0  0.86760  0.33380  0.60250  1.0000 0.1287918434
H   H30       1.0  0.63240  0.66620  0.10250  1.0000 0.1287918434
H   H31       1.0  0.36760  0.16620  0.39750  1.0000 0.1287918434
H   H32       1.0  0.13240  0.83380  0.89750  1.0000 0.1287918434
C   C1        1.0  0.33920  0.50710  0.33791  1.0000 0.1126646563
C   C2        1.0  0.16080  0.49290  0.83791  1.0000 0.1126646563
C   C3        1.0  0.83920  0.99290  0.66209  1.0000 0.1126646563
C   C4        1.0  0.66080  0.00710  0.16209  1.0000 0.1126646563
C   C5        1.0  0.33230  0.48830  0.38383  1.0000 -0.1894825626
C   C6        1.0  0.16770  0.51170  0.88383  1.0000 -0.1894825626
C   C7        1.0  0.83230  0.01170  0.61617  1.0000 -0.1894825626
C   C8        1.0  0.66770  0.98830  0.11617  1.0000 -0.1894825626
C   C9        1.0  0.13240  0.43050  0.40270  1.0000 0.0904162715
C   C10       1.0  0.36760  0.56950  0.90270  1.0000 0.0904162715
C   C11       1.0  0.63240  0.06950  0.59730  1.0000 0.0904162715
C   C12       1.0  0.86760  0.93050  0.09730  1.0000 0.0904162715
C   C13       1.0  0.95020  0.38890  0.37395  1.0000 -0.1773466453
C   C14       1.0  0.54980  0.61110  0.87395  1.0000 -0.1773466453
C   C15       1.0  0.45020  0.11110  0.62605  1.0000 -0.1773466453
C   C16       1.0  0.04980  0.88890  0.12605  1.0000 -0.1773466453
C   C17       1.0  0.97000  0.41200  0.32883  1.0000 0.0808533203
C   C18       1.0  0.53000  0.58800  0.82883  1.0000 0.0808533203
C   C19       1.0  0.47000  0.08800  0.67117  1.0000 0.0808533203
C   C20       1.0  0.03000  0.91200  0.17117  1.0000 0.0808533203
C   C21       1.0  0.10240  0.41520  0.45187  1.0000 0.0978069419
C   C22       1.0  0.39760  0.58480  0.95187  1.0000 0.0978069419
C   C23       1.0  0.60240  0.08480  0.54813  1.0000 0.0978069419
C   C24       1.0  0.89760  0.91520  0.04813  1.0000 0.0978069419
C   C25       1.0  0.12090  0.40730  0.53135  1.0000 0.0978069419
C   C26       1.0  0.37910  0.59270  0.03135  1.0000 0.0904162715
C   C27       1.0  0.62090  0.09270  0.46865  1.0000 0.0978069419
C   C28       1.0  0.87910  0.90730  0.96865  1.0000 0.0978069419
C   C29       1.0  0.17590  0.41520  0.57946  1.0000 0.0978069419
C   C30       1.0  0.32410  0.58480  0.07946  1.0000 0.0978069419
C   C31       1.0  0.67590  0.08480  0.42054  1.0000 0.0978069419
C   C32       1.0  0.82410  0.91520  0.92054  1.0000 0.0978069419
C   C33       1.0  0.39110  0.46700  0.59510  1.0000 -0.1894825626
C   C34       1.0  0.10890  0.53300  0.09510  1.0000 -0.1894825626
C   C35       1.0  0.89110  0.03300  0.40490  1.0000 -0.1894825626
C   C36       1.0  0.60890  0.96700  0.90490  1.0000 -0.1894825626
C   C37       1.0  0.42900  0.47990  0.64077  1.0000 0.0978069419
C   C38       1.0  0.07100  0.52010  0.14077  1.0000 0.0978069419
C   C39       1.0  0.92900  0.02010  0.35923  1.0000 0.0978069419
C   C40       1.0  0.57100  0.97990  0.85923  1.0000 0.0978069419
C   C41       1.0  0.06300  0.38570  0.65618  1.0000 0.0904162715
C   C42       1.0  0.43700  0.61430  0.15618  1.0000 0.0904162715
C   C43       1.0  0.56300  0.11430  0.34382  1.0000 0.0904162715
C   C44       1.0  0.93700  0.88570  0.84382  1.0000 0.0904162715
C   C45       1.0  0.01200  0.37200  0.61145  1.0000 -0.1773466453
C   C46       1.0  0.48800  0.62800  0.11145  1.0000 -0.1773466453
C   C47       1.0  0.51200  0.12800  0.38855  1.0000 -0.1773466453
C   C48       1.0  0.98800  0.87200  0.88855  1.0000 -0.1773466453
S   S1        1.0  0.67417  0.32507  0.22007  1.0000 1.430963406
S   S2        1.0  0.82583  0.67493  0.72007  1.0000 1.430963406
S   S3        1.0  0.17417  0.17493  0.77993  1.0000 1.430963406
S   S4        1.0  0.32583  0.82507  0.27993  1.0000 1.430963406
S   S5        1.0  0.32650  0.44685  0.49000  1.0000 0.1287918434
S   S6        1.0  0.17350  0.55315  0.99000  1.0000 0.1287918434
S   S7        1.0  0.82650  0.05315  0.51000  1.0000 0.1287918434
S   S8        1.0  0.67350  0.94685  0.01000  1.0000 0.1287918434
N   N1        1.0  0.16270  0.47060  0.31018  1.0000 -0.2017900854
N   N2        1.0  0.33730  0.52940  0.81018  1.0000 -0.2017900854
N   N3        1.0  0.66270  0.02940  0.68982  1.0000 -0.2017900854
N   N4        1.0  0.83730  0.97060  0.18982  1.0000 -0.2017900854
N   N5        1.0  0.89890  0.37820  0.46939  1.0000 -0.2017900854
N   N6        1.0  0.60110  0.62180  0.96939  1.0000 -0.2017900854
N   N7        1.0  0.39890  0.12180  0.53061  1.0000 -0.2017900854
N   N8        1.0  0.10110  0.87820  0.03061  1.0000 -0.2017900854
N   N9        1.0  0.90840  0.37480  0.51575  1.0000 -0.2090184189
N   N10       1.0  0.59160  0.62520  0.01575  1.0000 -0.2090184189
N   N11       1.0  0.40840  0.12520  0.48425  1.0000 -0.2090184189
N   N12       1.0  0.09160  0.87480  0.98425  1.0000 -0.2090184189
N   N13       1.0  0.26780  0.44120  0.67159  1.0000 -0.2090184189
N   N14       1.0  0.23220  0.55880  0.17159  1.0000 -0.2090184189
N   N15       1.0  0.76780  0.05880  0.32841  1.0000 -0.2090184189
N   N16       1.0  0.73220  0.94120  0.82841  1.0000 -0.2090184189
O   O1        1.0  0.52640  0.42520  0.24255  1.0000 -0.6795600637
O   O2        1.0  0.97360  0.57480  0.74255  1.0000 -0.6795600637
O   O3        1.0  0.02640  0.07480  0.75745  1.0000 -0.6795600637
O   O4        1.0  0.47360  0.92520  0.25745  1.0000 -0.6795600637
O   O5        1.0  0.63150  0.19980  0.24294  1.0000 -0.6795600637
O   O6        1.0  0.86850  0.80020  0.74294  1.0000 -0.6795600637
O   O7        1.0  0.13150  0.30020  0.75706  1.0000 -0.6795600637
O   O8        1.0  0.36850  0.69980  0.25706  1.0000 -0.6795600637
O   O9        1.0  0.61990  0.31660  0.17265  1.0000 -0.6464069992
O   O10       1.0  0.88010  0.68340  0.67265  1.0000 -0.6449519902
O   O11       1.0  0.11990  0.18340  0.82735  1.0000 -0.6464069992
O   O12       1.0  0.38010  0.81660  0.32735  1.0000 -0.6464069992
O   O13       1.0  0.93580  0.35960  0.22615  1.0000 -0.6940714777
O   O14       1.0  0.56420  0.64040  0.72615  1.0000 -0.6940714777
O   O15       1.0  0.43580  0.14040  0.77385  1.0000 -0.6940714777
O   O16       1.0  0.06420  0.85960  0.27385  1.0000 -0.6940714777
