# DDEC6 charges by PACMAN v1.1 (https://github.com/mtap-research/PACMAN-charge/)
data_2008[Eu][ctn]3[ASR]1
_chemical_formula_sum              "Eu8 H336 C366 N48 O120"
_cell_length_a       24.2577
_cell_length_b       24.2577
_cell_length_c       24.2577
_cell_angle_alpha    109.436
_cell_angle_beta     109.436
_cell_angle_gamma    109.436

_symmetry_space_group_name_H-M    "P 1"
_symmetry_Int_Tables_number       1

loop_
  _symmetry_equiv_pos_as_xyz
  'x, y, z'

loop_
  _atom_site_type_symbol
  _atom_site_label
  _atom_site_symmetry_multiplicity
  _atom_site_fract_x
  _atom_site_fract_y
  _atom_site_fract_z
  _atom_site_occupancy
  _atom_site_charge
Eu  Eu1       1.0  0.35186  0.40048  0.85185  1.0000 1.9382721128
Eu  Eu2       1.0  0.40048  0.85185  0.35186  1.0000 1.9382721128
Eu  Eu3       1.0  0.85185  0.35186  0.40048  1.0000 1.9382721128
Eu  Eu4       1.0  0.85186  0.35185  0.90048  1.0000 1.9382721128
Eu  Eu5       1.0  0.90048  0.85186  0.35185  1.0000 1.9382721128
Eu  Eu6       1.0  0.35185  0.90048  0.85186  1.0000 1.9382721128
Eu  Eu7       1.0  0.30362  0.30362  0.30362  1.0000 1.8935660067
Eu  Eu8       1.0  0.80362  0.80362  0.80362  1.0000 1.8935660067
H   H1        1.0  0.48860  0.35860  0.03230  1.0000 0.2806803924
H   H2        1.0  0.35860  0.03230  0.48860  1.0000 0.2806803924
H   H3        1.0  0.03230  0.48860  0.35860  1.0000 0.2806803924
H   H4        1.0  0.98860  0.53230  0.85860  1.0000 0.2806803924
H   H5        1.0  0.85860  0.98860  0.53230  1.0000 0.2806803924
H   H6        1.0  0.53230  0.85860  0.98860  1.0000 0.2806803924
H   H7        1.0  0.71520  0.38840  0.20880  1.0000 0.2884900637
H   H8        1.0  0.38840  0.20880  0.71520  1.0000 0.2884900637
H   H9        1.0  0.20880  0.71520  0.38840  1.0000 0.2884900637
H   H10       1.0  0.21520  0.70880  0.88840  1.0000 0.2884900637
H   H11       1.0  0.88840  0.21520  0.70880  1.0000 0.2884900637
H   H12       1.0  0.70880  0.88840  0.21520  1.0000 0.2884900637
H   H13       1.0  0.67330  0.67480  0.31440  1.0000 0.2806803924
H   H14       1.0  0.67480  0.31440  0.67330  1.0000 0.2806803924
H   H15       1.0  0.31440  0.67330  0.67480  1.0000 0.2806803924
H   H16       1.0  0.17330  0.81440  0.17480  1.0000 0.2806803924
H   H17       1.0  0.17480  0.17330  0.81440  1.0000 0.2806803924
H   H18       1.0  0.81440  0.17480  0.17330  1.0000 0.2806803924
H   H19       1.0  0.52750  0.48080  0.34640  1.0000 0.2884900637
H   H20       1.0  0.48080  0.34640  0.52750  1.0000 0.2884900637
H   H21       1.0  0.34640  0.52750  0.48080  1.0000 0.2884900637
H   H22       1.0  0.02750  0.84640  0.98080  1.0000 0.2884900637
H   H23       1.0  0.98080  0.02750  0.84640  1.0000 0.2884900637
H   H24       1.0  0.84640  0.98080  0.02750  1.0000 0.2884900637
H   H25       1.0  0.66760  0.46880  0.19190  1.0000 0.0936465877
H   H26       1.0  0.46880  0.19190  0.66760  1.0000 0.0936465877
H   H27       1.0  0.19190  0.66760  0.46880  1.0000 0.0936465877
H   H28       1.0  0.16760  0.69190  0.96880  1.0000 0.0936465877
H   H29       1.0  0.96880  0.16760  0.69190  1.0000 0.0936465877
H   H30       1.0  0.69190  0.96880  0.16760  1.0000 0.0936465877
H   H31       1.0  0.66590  0.53630  0.20590  1.0000 0.0973927264
H   H32       1.0  0.53630  0.20590  0.66590  1.0000 0.0973927264
H   H33       1.0  0.20590  0.66590  0.53630  1.0000 0.0973927264
H   H34       1.0  0.16590  0.70590  0.03630  1.0000 0.0973927264
H   H35       1.0  0.03630  0.16590  0.70590  1.0000 0.0973927264
H   H36       1.0  0.70590  0.03630  0.16590  1.0000 0.0973927264
H   H37       1.0  0.53830  0.37750  0.15450  1.0000 0.0973927264
H   H38       1.0  0.37750  0.15450  0.53830  1.0000 0.0973927264
H   H39       1.0  0.15450  0.53830  0.37750  1.0000 0.0973927264
H   H40       1.0  0.03830  0.65450  0.87750  1.0000 0.0973927264
H   H41       1.0  0.87750  0.03830  0.65450  1.0000 0.0973927264
H   H42       1.0  0.65450  0.87750  0.03830  1.0000 0.0973927264
H   H43       1.0  0.53830  0.39180  0.22270  1.0000 0.0973927264
H   H44       1.0  0.39180  0.22270  0.53830  1.0000 0.0973927264
H   H45       1.0  0.22270  0.53830  0.39180  1.0000 0.0973927264
H   H46       1.0  0.03830  0.72270  0.89180  1.0000 0.0973927264
H   H47       1.0  0.89180  0.03830  0.72270  1.0000 0.0973927264
H   H48       1.0  0.72270  0.89180  0.03830  1.0000 0.0973927264
H   H49       1.0  0.62880  0.50720  0.32640  1.0000 0.0936465877
H   H50       1.0  0.50720  0.32640  0.62880  1.0000 0.0936465877
H   H51       1.0  0.32640  0.62880  0.50720  1.0000 0.0936465877
H   H52       1.0  0.12880  0.82640  0.00720  1.0000 0.0936465877
H   H53       1.0  0.00720  0.12880  0.82640  1.0000 0.0936465877
H   H54       1.0  0.82640  0.00720  0.12880  1.0000 0.0936465877
H   H55       1.0  0.68160  0.49370  0.30870  1.0000 0.0973927264
H   H56       1.0  0.49370  0.30870  0.68160  1.0000 0.0973927264
H   H57       1.0  0.30870  0.68160  0.49370  1.0000 0.0973927264
H   H58       1.0  0.18160  0.80870  0.99370  1.0000 0.0973927264
H   H59       1.0  0.99370  0.18160  0.80870  1.0000 0.0973927264
H   H60       1.0  0.80870  0.99370  0.18160  1.0000 0.0973927264
H   H61       1.0  0.52700  0.49120  0.16910  1.0000 0.0973927264
H   H62       1.0  0.49120  0.16910  0.52700  1.0000 0.0973927264
H   H63       1.0  0.16910  0.52700  0.49120  1.0000 0.0973927264
H   H64       1.0  0.02700  0.66910  0.99120  1.0000 0.0973927264
H   H65       1.0  0.99120  0.02700  0.66910  1.0000 0.0973927264
H   H66       1.0  0.66910  0.99120  0.02700  1.0000 0.0973927264
H   H67       1.0  0.57930  0.55610  0.24090  1.0000 0.0973927264
H   H68       1.0  0.55610  0.24090  0.57930  1.0000 0.0973927264
H   H69       1.0  0.24090  0.57930  0.55610  1.0000 0.0973927264
H   H70       1.0  0.07930  0.74090  0.05610  1.0000 0.0973927264
H   H71       1.0  0.05610  0.07930  0.74090  1.0000 0.0973927264
H   H72       1.0  0.74090  0.05610  0.07930  1.0000 0.0973927264
H   H73       1.0  0.70540  0.52660  0.13800  1.0000 0.1280329585
H   H74       1.0  0.52660  0.13800  0.70540  1.0000 0.1280329585
H   H75       1.0  0.13800  0.70540  0.52660  1.0000 0.1280329585
H   H76       1.0  0.20540  0.63800  0.02660  1.0000 0.1280329585
H   H77       1.0  0.02660  0.20540  0.63800  1.0000 0.1280329585
H   H78       1.0  0.63800  0.02660  0.20540  1.0000 0.1280329585
H   H79       1.0  0.73390  0.54530  0.06200  1.0000 0.1280329585
H   H80       1.0  0.54530  0.06200  0.73390  1.0000 0.1280329585
H   H81       1.0  0.06200  0.73390  0.54530  1.0000 0.1280329585
H   H82       1.0  0.23390  0.56200  0.04530  1.0000 0.1280329585
H   H83       1.0  0.04530  0.23390  0.56200  1.0000 0.1280329585
H   H84       1.0  0.56200  0.04530  0.23390  1.0000 0.1280329585
H   H85       1.0  0.65080  0.51430  0.96160  1.0000 0.1200313098
H   H86       1.0  0.51430  0.96160  0.65080  1.0000 0.1200313098
H   H87       1.0  0.96160  0.65080  0.51430  1.0000 0.1200313098
H   H88       1.0  0.15080  0.46160  0.01430  1.0000 0.1200313098
H   H89       1.0  0.01430  0.15080  0.46160  1.0000 0.1200313098
H   H90       1.0  0.46160  0.01430  0.15080  1.0000 0.1200313098
H   H91       1.0  0.54270  0.44220  0.92460  1.0000 0.1200313098
H   H92       1.0  0.44220  0.92460  0.54270  1.0000 0.1200313098
H   H93       1.0  0.92460  0.54270  0.44220  1.0000 0.1200313098
H   H94       1.0  0.04270  0.42460  0.94220  1.0000 0.1200313098
H   H95       1.0  0.94220  0.04270  0.42460  1.0000 0.1200313098
H   H96       1.0  0.42460  0.94220  0.04270  1.0000 0.1200313098
H   H97       1.0  0.37230  0.34800  0.98040  1.0000 0.1200313098
H   H98       1.0  0.34800  0.98040  0.37230  1.0000 0.1200313098
H   H99       1.0  0.98040  0.37230  0.34800  1.0000 0.1200313098
H   H100      1.0  0.87230  0.48040  0.84800  1.0000 0.1200313098
H   H101      1.0  0.84800  0.87230  0.48040  1.0000 0.1200313098
H   H102      1.0  0.48040  0.84800  0.87230  1.0000 0.1200313098
H   H103      1.0  0.37250  0.28520  0.93410  1.0000 0.1106377085
H   H104      1.0  0.28520  0.93410  0.37250  1.0000 0.1106377085
H   H105      1.0  0.93410  0.37250  0.28520  1.0000 0.1106377085
H   H106      1.0  0.87250  0.43410  0.78520  1.0000 0.1106377085
H   H107      1.0  0.78520  0.87250  0.43410  1.0000 0.1106377085
H   H108      1.0  0.43410  0.78520  0.87250  1.0000 0.1106377085
H   H109      1.0  0.36620  0.35480  0.08350  1.0000 0.1200313098
H   H110      1.0  0.35480  0.08350  0.36620  1.0000 0.1200313098
H   H111      1.0  0.08350  0.36620  0.35480  1.0000 0.1200313098
H   H112      1.0  0.86620  0.58350  0.85480  1.0000 0.1200313098
H   H113      1.0  0.85480  0.86620  0.58350  1.0000 0.1200313098
H   H114      1.0  0.58350  0.85480  0.86620  1.0000 0.1200313098
H   H115      1.0  0.36320  0.30790  0.15080  1.0000 0.1200313098
H   H116      1.0  0.30790  0.15080  0.36320  1.0000 0.1200313098
H   H117      1.0  0.15080  0.36320  0.30790  1.0000 0.1200313098
H   H118      1.0  0.86320  0.65080  0.80790  1.0000 0.1200313098
H   H119      1.0  0.80790  0.86320  0.65080  1.0000 0.1200313098
H   H120      1.0  0.65080  0.80790  0.86320  1.0000 0.1200313098
H   H121      1.0  0.35640  0.20570  0.12060  1.0000 0.1200313098
H   H122      1.0  0.20570  0.12060  0.35640  1.0000 0.1200313098
H   H123      1.0  0.12060  0.35640  0.20570  1.0000 0.1200313098
H   H124      1.0  0.85640  0.62060  0.70570  1.0000 0.1200313098
H   H125      1.0  0.70570  0.85640  0.62060  1.0000 0.1200313098
H   H126      1.0  0.62060  0.70570  0.85640  1.0000 0.1200313098
H   H127      1.0  0.34830  0.14770  0.01840  1.0000 0.1280329585
H   H128      1.0  0.14770  0.01840  0.34830  1.0000 0.1280329585
H   H129      1.0  0.01840  0.34830  0.14770  1.0000 0.1280329585
H   H130      1.0  0.84830  0.51840  0.64770  1.0000 0.1280329585
H   H131      1.0  0.64770  0.84830  0.51840  1.0000 0.1280329585
H   H132      1.0  0.51840  0.64770  0.84830  1.0000 0.1280329585
H   H133      1.0  0.38660  0.20890  0.97260  1.0000 0.1200313098
H   H134      1.0  0.20890  0.97260  0.38660  1.0000 0.1200313098
H   H135      1.0  0.97260  0.38660  0.20890  1.0000 0.1200313098
H   H136      1.0  0.88660  0.47260  0.70890  1.0000 0.1200313098
H   H137      1.0  0.70890  0.88660  0.47260  1.0000 0.1200313098
H   H138      1.0  0.47260  0.70890  0.88660  1.0000 0.1200313098
H   H139      1.0  0.49790  0.28250  0.17110  1.0000 0.1200313098
H   H140      1.0  0.28250  0.17110  0.49790  1.0000 0.1200313098
H   H141      1.0  0.17110  0.49790  0.28250  1.0000 0.1200313098
H   H142      1.0  0.99790  0.67110  0.78250  1.0000 0.1200313098
H   H143      1.0  0.78250  0.99790  0.67110  1.0000 0.1200313098
H   H144      1.0  0.67110  0.78250  0.99790  1.0000 0.1200313098
H   H145      1.0  0.47090  0.17960  0.16360  1.0000 0.1280329585
H   H146      1.0  0.17960  0.16360  0.47090  1.0000 0.1280329585
H   H147      1.0  0.16360  0.47090  0.17960  1.0000 0.1280329585
H   H148      1.0  0.97090  0.66360  0.67960  1.0000 0.1280329585
H   H149      1.0  0.67960  0.97090  0.66360  1.0000 0.1280329585
H   H150      1.0  0.66360  0.67960  0.97090  1.0000 0.1280329585
H   H151      1.0  0.55290  0.16080  0.21200  1.0000 0.1280329585
H   H152      1.0  0.16080  0.21200  0.55290  1.0000 0.1280329585
H   H153      1.0  0.21200  0.55290  0.16080  1.0000 0.1280329585
H   H154      1.0  0.05290  0.71200  0.66080  1.0000 0.1280329585
H   H155      1.0  0.66080  0.05290  0.71200  1.0000 0.1280329585
H   H156      1.0  0.71200  0.66080  0.05290  1.0000 0.1280329585
H   H157      1.0  0.66100  0.23340  0.25300  1.0000 0.1200313098
H   H158      1.0  0.23340  0.25300  0.66100  1.0000 0.1200313098
H   H159      1.0  0.25300  0.66100  0.23340  1.0000 0.1200313098
H   H160      1.0  0.16100  0.75300  0.73340  1.0000 0.1200313098
H   H161      1.0  0.73340  0.16100  0.75300  1.0000 0.1200313098
H   H162      1.0  0.75300  0.73340  0.16100  1.0000 0.1200313098
H   H163      1.0  0.83170  0.46600  0.33060  1.0000 0.1106377085
H   H164      1.0  0.46600  0.33060  0.83170  1.0000 0.1106377085
H   H165      1.0  0.33060  0.83170  0.46600  1.0000 0.1106377085
H   H166      1.0  0.33170  0.83060  0.96600  1.0000 0.1106377085
H   H167      1.0  0.96600  0.33170  0.83060  1.0000 0.1106377085
H   H168      1.0  0.83060  0.96600  0.33170  1.0000 0.1106377085
H   H169      1.0  0.84240  0.42500  0.27330  1.0000 0.1106377085
H   H170      1.0  0.42500  0.27330  0.84240  1.0000 0.1106377085
H   H171      1.0  0.27330  0.84240  0.42500  1.0000 0.1106377085
H   H172      1.0  0.34240  0.77330  0.92500  1.0000 0.1106377085
H   H173      1.0  0.92500  0.34240  0.77330  1.0000 0.1106377085
H   H174      1.0  0.77330  0.92500  0.34240  1.0000 0.1106377085
H   H175      1.0  0.83240  0.57080  0.34000  1.0000 0.1200313098
H   H176      1.0  0.57080  0.34000  0.83240  1.0000 0.1200313098
H   H177      1.0  0.34000  0.83240  0.57080  1.0000 0.1200313098
H   H178      1.0  0.33240  0.84000  0.07080  1.0000 0.1200313098
H   H179      1.0  0.07080  0.33240  0.84000  1.0000 0.1200313098
H   H180      1.0  0.84000  0.07080  0.33240  1.0000 0.1200313098
H   H181      1.0  0.84420  0.64480  0.30010  1.0000 0.1200313098
H   H182      1.0  0.64480  0.30010  0.84420  1.0000 0.1200313098
H   H183      1.0  0.30010  0.84420  0.64480  1.0000 0.1200313098
H   H184      1.0  0.34420  0.80010  0.14480  1.0000 0.1200313098
H   H185      1.0  0.14480  0.34420  0.80010  1.0000 0.1200313098
H   H186      1.0  0.80010  0.14480  0.34420  1.0000 0.1200313098
H   H187      1.0  0.87060  0.62870  0.21630  1.0000 0.1200313098
H   H188      1.0  0.62870  0.21630  0.87060  1.0000 0.1200313098
H   H189      1.0  0.21630  0.87060  0.62870  1.0000 0.1200313098
H   H190      1.0  0.37060  0.71630  0.12870  1.0000 0.1200313098
H   H191      1.0  0.12870  0.37060  0.71630  1.0000 0.1200313098
H   H192      1.0  0.71630  0.12870  0.37060  1.0000 0.1200313098
H   H193      1.0  0.84860  0.52370  0.14770  1.0000 0.1200313098
H   H194      1.0  0.52370  0.14770  0.84860  1.0000 0.1200313098
H   H195      1.0  0.14770  0.84860  0.52370  1.0000 0.1200313098
H   H196      1.0  0.34860  0.64770  0.02370  1.0000 0.1200313098
H   H197      1.0  0.02370  0.34860  0.64770  1.0000 0.1200313098
H   H198      1.0  0.64770  0.02370  0.34860  1.0000 0.1200313098
H   H199      1.0  0.81710  0.44180  0.17560  1.0000 0.1200313098
H   H200      1.0  0.44180  0.17560  0.81710  1.0000 0.1200313098
H   H201      1.0  0.17560  0.81710  0.44180  1.0000 0.1200313098
H   H202      1.0  0.31710  0.67560  0.94180  1.0000 0.1200313098
H   H203      1.0  0.94180  0.31710  0.67560  1.0000 0.1200313098
H   H204      1.0  0.67560  0.94180  0.31710  1.0000 0.1200313098
H   H205      1.0  0.74430  0.56460  0.41840  1.0000 0.1200313098
H   H206      1.0  0.56460  0.41840  0.74430  1.0000 0.1200313098
H   H207      1.0  0.41840  0.74430  0.56460  1.0000 0.1200313098
H   H208      1.0  0.24430  0.91840  0.06460  1.0000 0.1200313098
H   H209      1.0  0.06460  0.24430  0.91840  1.0000 0.1200313098
H   H210      1.0  0.91840  0.06460  0.24430  1.0000 0.1200313098
H   H211      1.0  0.83590  0.64510  0.52770  1.0000 0.1200313098
H   H212      1.0  0.64510  0.52770  0.83590  1.0000 0.1200313098
H   H213      1.0  0.52770  0.83590  0.64510  1.0000 0.1200313098
H   H214      1.0  0.33590  0.02770  0.14510  1.0000 0.1200313098
H   H215      1.0  0.14510  0.33590  0.02770  1.0000 0.1200313098
H   H216      1.0  0.02770  0.14510  0.33590  1.0000 0.1200313098
H   H217      1.0  0.90970  0.74260  0.53940  1.0000 0.1200313098
H   H218      1.0  0.74260  0.53940  0.90970  1.0000 0.1200313098
H   H219      1.0  0.53940  0.90970  0.74260  1.0000 0.1200313098
H   H220      1.0  0.40970  0.03940  0.24260  1.0000 0.1200313098
H   H221      1.0  0.24260  0.40970  0.03940  1.0000 0.1200313098
H   H222      1.0  0.03940  0.24260  0.40970  1.0000 0.1200313098
H   H223      1.0  0.87420  0.77990  0.46950  1.0000 0.1200313098
H   H224      1.0  0.77990  0.46950  0.87420  1.0000 0.1200313098
H   H225      1.0  0.46950  0.87420  0.77990  1.0000 0.1200313098
H   H226      1.0  0.37420  0.96950  0.27990  1.0000 0.1200313098
H   H227      1.0  0.27990  0.37420  0.96950  1.0000 0.1200313098
H   H228      1.0  0.96950  0.27990  0.37420  1.0000 0.1200313098
H   H229      1.0  0.71230  0.69640  0.22920  1.0000 0.1106377085
H   H230      1.0  0.69640  0.22920  0.71230  1.0000 0.1106377085
H   H231      1.0  0.22920  0.71230  0.69640  1.0000 0.1106377085
H   H232      1.0  0.21230  0.72920  0.19640  1.0000 0.1106377085
H   H233      1.0  0.19640  0.21230  0.72920  1.0000 0.1106377085
H   H234      1.0  0.72920  0.19640  0.21230  1.0000 0.1106377085
H   H235      1.0  0.71360  0.76200  0.27300  1.0000 0.1106377085
H   H236      1.0  0.76200  0.27300  0.71360  1.0000 0.1106377085
H   H237      1.0  0.27300  0.71360  0.76200  1.0000 0.1106377085
H   H238      1.0  0.21360  0.77300  0.26200  1.0000 0.1106377085
H   H239      1.0  0.26200  0.21360  0.77300  1.0000 0.1106377085
H   H240      1.0  0.77300  0.26200  0.21360  1.0000 0.1106377085
H   H241      1.0  0.63270  0.62300  0.14190  1.0000 0.1200313098
H   H242      1.0  0.62300  0.14190  0.63270  1.0000 0.1200313098
H   H243      1.0  0.14190  0.63270  0.62300  1.0000 0.1200313098
H   H244      1.0  0.13270  0.64190  0.12300  1.0000 0.1200313098
H   H245      1.0  0.12300  0.13270  0.64190  1.0000 0.1200313098
H   H246      1.0  0.64190  0.12300  0.13270  1.0000 0.1200313098
H   H247      1.0  0.52370  0.56370  0.05760  1.0000 0.1200313098
H   H248      1.0  0.56370  0.05760  0.52370  1.0000 0.1200313098
H   H249      1.0  0.05760  0.52370  0.56370  1.0000 0.1280329585
H   H250      1.0  0.02370  0.55760  0.06370  1.0000 0.1280329585
H   H251      1.0  0.06370  0.02370  0.55760  1.0000 0.1280329585
H   H252      1.0  0.55760  0.06370  0.02370  1.0000 0.1200313098
H   H253      1.0  0.44190  0.57590  0.07920  1.0000 0.1200313098
H   H254      1.0  0.57590  0.07920  0.44190  1.0000 0.1200313098
H   H255      1.0  0.07920  0.44190  0.57590  1.0000 0.1200313098
H   H256      1.0  0.94190  0.57920  0.07590  1.0000 0.1200313098
H   H257      1.0  0.07590  0.94190  0.57920  1.0000 0.1200313098
H   H258      1.0  0.57920  0.07590  0.94190  1.0000 0.1200313098
H   H259      1.0  0.47510  0.67370  0.17290  1.0000 0.1200313098
H   H260      1.0  0.67370  0.17290  0.47510  1.0000 0.1200313098
H   H261      1.0  0.17290  0.47510  0.67370  1.0000 0.1200313098
H   H262      1.0  0.97510  0.67290  0.17370  1.0000 0.1200313098
H   H263      1.0  0.17370  0.97510  0.67290  1.0000 0.1200313098
H   H264      1.0  0.67290  0.17370  0.97510  1.0000 0.1200313098
H   H265      1.0  0.58300  0.72960  0.26020  1.0000 0.1280329585
H   H266      1.0  0.72960  0.26020  0.58300  1.0000 0.1280329585
H   H267      1.0  0.26020  0.58300  0.72960  1.0000 0.1280329585
H   H268      1.0  0.08300  0.76020  0.22960  1.0000 0.1280329585
H   H269      1.0  0.22960  0.08300  0.76020  1.0000 0.1280329585
H   H270      1.0  0.76020  0.22960  0.08300  1.0000 0.1280329585
H   H271      1.0  0.45860  0.52600  0.17180  1.0000 0.1280329585
H   H272      1.0  0.52600  0.17180  0.45860  1.0000 0.1280329585
H   H273      1.0  0.17180  0.45860  0.52600  1.0000 0.1280329585
H   H274      1.0  0.95860  0.67180  0.02600  1.0000 0.1280329585
H   H275      1.0  0.02600  0.95860  0.67180  1.0000 0.1280329585
H   H276      1.0  0.67180  0.02600  0.95860  1.0000 0.1280329585
H   H277      1.0  0.37010  0.54340  0.16430  1.0000 0.1280329585
H   H278      1.0  0.54340  0.16430  0.37010  1.0000 0.1280329585
H   H279      1.0  0.16430  0.37010  0.54340  1.0000 0.1280329585
H   H280      1.0  0.87010  0.66430  0.04340  1.0000 0.1280329585
H   H281      1.0  0.04340  0.87010  0.66430  1.0000 0.1280329585
H   H282      1.0  0.66430  0.04340  0.87010  1.0000 0.1280329585
H   H283      1.0  0.29360  0.48110  0.18430  1.0000 0.1200313098
H   H284      1.0  0.48110  0.18430  0.29360  1.0000 0.1200313098
H   H285      1.0  0.18430  0.29360  0.48110  1.0000 0.1200313098
H   H286      1.0  0.79360  0.68430  0.98110  1.0000 0.1200313098
H   H287      1.0  0.98110  0.79360  0.68430  1.0000 0.1200313098
H   H288      1.0  0.68430  0.98110  0.79360  1.0000 0.1200313098
H   H289      1.0  0.33640  0.45620  0.26510  1.0000 0.1200313098
H   H290      1.0  0.45620  0.26510  0.33640  1.0000 0.1200313098
H   H291      1.0  0.26510  0.33640  0.45620  1.0000 0.1200313098
H   H292      1.0  0.83640  0.76510  0.95620  1.0000 0.1200313098
H   H293      1.0  0.95620  0.83640  0.76510  1.0000 0.1200313098
H   H294      1.0  0.76510  0.95620  0.83640  1.0000 0.1200313098
H   H295      1.0  0.49560  0.42410  0.41280  1.0000 0.1106377085
H   H296      1.0  0.42410  0.41280  0.49560  1.0000 0.1106377085
H   H297      1.0  0.41280  0.49560  0.42410  1.0000 0.1106377085
H   H298      1.0  0.99560  0.91280  0.92410  1.0000 0.1106377085
H   H299      1.0  0.92410  0.99560  0.91280  1.0000 0.1106377085
H   H300      1.0  0.91280  0.92410  0.99560  1.0000 0.1106377085
H   H301      1.0  0.48660  0.36870  0.34850  1.0000 0.1106377085
H   H302      1.0  0.36870  0.34850  0.48660  1.0000 0.1106377085
H   H303      1.0  0.34850  0.48660  0.36870  1.0000 0.1106377085
H   H304      1.0  0.98660  0.84850  0.86870  1.0000 0.1106377085
H   H305      1.0  0.86870  0.98660  0.84850  1.0000 0.1106377085
H   H306      1.0  0.84850  0.86870  0.98660  1.0000 0.1106377085
H   H307      1.0  0.58070  0.36350  0.34630  1.0000 0.1200313098
H   H308      1.0  0.36350  0.34630  0.58070  1.0000 0.1200313098
H   H309      1.0  0.34630  0.58070  0.36350  1.0000 0.1200313098
H   H310      1.0  0.08070  0.84630  0.86350  1.0000 0.1200313098
H   H311      1.0  0.86350  0.08070  0.84630  1.0000 0.1200313098
H   H312      1.0  0.84630  0.86350  0.08070  1.0000 0.1200313098
H   H313      1.0  0.69040  0.39510  0.39760  1.0000 0.1280329585
H   H314      1.0  0.39510  0.39760  0.69040  1.0000 0.1280329585
H   H315      1.0  0.39760  0.69040  0.39510  1.0000 0.1280329585
H   H316      1.0  0.19040  0.89760  0.89510  1.0000 0.1280329585
H   H317      1.0  0.89510  0.19040  0.89760  1.0000 0.1280329585
H   H318      1.0  0.89760  0.89510  0.19040  1.0000 0.1280329585
H   H319      1.0  0.76740  0.49550  0.49380  1.0000 0.1200313098
H   H320      1.0  0.49550  0.49380  0.76740  1.0000 0.1200313098
H   H321      1.0  0.49380  0.76740  0.49550  1.0000 0.1200313098
H   H322      1.0  0.26740  0.99380  0.99550  1.0000 0.1200313098
H   H323      1.0  0.99550  0.26740  0.99380  1.0000 0.1200313098
H   H324      1.0  0.99380  0.99550  0.26740  1.0000 0.1200313098
H   H325      1.0  0.72980  0.55720  0.55040  1.0000 0.1280329585
H   H326      1.0  0.55720  0.55040  0.72980  1.0000 0.1280329585
H   H327      1.0  0.55040  0.72980  0.55720  1.0000 0.1280329585
H   H328      1.0  0.22980  0.05040  0.05720  1.0000 0.1280329585
H   H329      1.0  0.05720  0.22980  0.05040  1.0000 0.1280329585
H   H330      1.0  0.05040  0.05720  0.22980  1.0000 0.1280329585
H   H331      1.0  0.62010  0.52900  0.49750  1.0000 0.1280329585
H   H332      1.0  0.52900  0.49750  0.62010  1.0000 0.1280329585
H   H333      1.0  0.49750  0.62010  0.52900  1.0000 0.1280329585
H   H334      1.0  0.12010  0.99750  0.02900  1.0000 0.1280329585
H   H335      1.0  0.02900  0.12010  0.99750  1.0000 0.1280329585
H   H336      1.0  0.99750  0.02900  0.12010  1.0000 0.1280329585
C   C1        1.0  0.60240  0.47690  0.22860  1.0000 0.0973927264
C   C2        1.0  0.47690  0.22860  0.60240  1.0000 0.0973927264
C   C3        1.0  0.22860  0.60240  0.47690  1.0000 0.0973927264
C   C4        1.0  0.10240  0.72860  0.97690  1.0000 0.0973927264
C   C5        1.0  0.97690  0.10240  0.72860  1.0000 0.0973927264
C   C6        1.0  0.72860  0.97690  0.10240  1.0000 0.0973927264
C   C7        1.0  0.63860  0.48840  0.18840  1.0000 -0.0811261247
C   C8        1.0  0.48840  0.18840  0.63860  1.0000 -0.0811261247
C   C9        1.0  0.18840  0.63860  0.48840  1.0000 -0.0811261247
C   C10       1.0  0.13860  0.68840  0.98840  1.0000 -0.0811261247
C   C11       1.0  0.98840  0.13860  0.68840  1.0000 -0.0811261247
C   C12       1.0  0.68840  0.98840  0.13860  1.0000 -0.0811261247
C   C13       1.0  0.56660  0.40200  0.20310  1.0000 -0.0897411749
C   C14       1.0  0.40200  0.20310  0.56660  1.0000 -0.0897411749
C   C15       1.0  0.20310  0.56660  0.40200  1.0000 -0.0897411749
C   C16       1.0  0.06660  0.70310  0.90200  1.0000 -0.0897411749
C   C17       1.0  0.90200  0.06660  0.70310  1.0000 -0.0897411749
C   C18       1.0  0.70310  0.90200  0.06660  1.0000 -0.0897411749
C   C19       1.0  0.65150  0.51190  0.30080  1.0000 -0.1360200775
C   C20       1.0  0.51190  0.30080  0.65150  1.0000 -0.1360200775
C   C21       1.0  0.30080  0.65150  0.51190  1.0000 -0.1360200775
C   C22       1.0  0.15150  0.80080  0.01190  1.0000 -0.1360200775
C   C23       1.0  0.01190  0.15150  0.80080  1.0000 -0.1360200775
C   C24       1.0  0.80080  0.01190  0.15150  1.0000 -0.1360200775
C   C25       1.0  0.55400  0.50720  0.21670  1.0000 -0.1022473616
C   C26       1.0  0.50720  0.21670  0.55400  1.0000 -0.1022473616
C   C27       1.0  0.21670  0.55400  0.50720  1.0000 -0.1022473616
C   C28       1.0  0.05400  0.71670  0.00720  1.0000 -0.1022473616
C   C29       1.0  0.00720  0.05400  0.71670  1.0000 -0.1022473616
C   C30       1.0  0.71670  0.00720  0.05400  1.0000 -0.1022473616
C   C31       1.0  0.47410  0.39370  0.97720  1.0000 0.4302465235
C   C32       1.0  0.39370  0.97720  0.47410  1.0000 0.4302465235
C   C33       1.0  0.97720  0.47410  0.39370  1.0000 0.4302465235
C   C34       1.0  0.97410  0.47720  0.89370  1.0000 0.4302465235
C   C35       1.0  0.89370  0.97410  0.47720  1.0000 0.4302465235
C   C36       1.0  0.47720  0.89370  0.97410  1.0000 0.4302465235
C   C37       1.0  0.55820  0.44690  0.01150  1.0000 -0.1299186986
C   C38       1.0  0.44690  0.01150  0.55820  1.0000 -0.1299186986
C   C39       1.0  0.01150  0.55820  0.44690  1.0000 -0.1299186986
C   C40       1.0  0.05820  0.51150  0.94690  1.0000 -0.1299186986
C   C41       1.0  0.94690  0.05820  0.51150  1.0000 -0.1299186986
C   C42       1.0  0.51150  0.94690  0.05820  1.0000 -0.1299186986
C   C43       1.0  0.60780  0.46950  0.07340  1.0000 0.1807137894
C   C44       1.0  0.46950  0.07340  0.60780  1.0000 0.1807137894
C   C45       1.0  0.07340  0.60780  0.46950  1.0000 0.1807137894
C   C46       1.0  0.10780  0.57340  0.96950  1.0000 0.1807137894
C   C47       1.0  0.96950  0.10780  0.57340  1.0000 0.1807137894
C   C48       1.0  0.57340  0.96950  0.10780  1.0000 0.1807137894
C   C49       1.0  0.67220  0.50850  0.09390  1.0000 -0.2074518675
C   C50       1.0  0.50850  0.09390  0.67220  1.0000 -0.1985133199
C   C51       1.0  0.09390  0.67220  0.50850  1.0000 -0.1985133199
C   C52       1.0  0.17220  0.59390  0.00850  1.0000 -0.1985133199
C   C53       1.0  0.00850  0.17220  0.59390  1.0000 -0.2074518675
C   C54       1.0  0.59390  0.00850  0.17220  1.0000 -0.2074518675
C   C55       1.0  0.68890  0.52180  0.05010  1.0000 -0.058911573
C   C56       1.0  0.52180  0.05010  0.68890  1.0000 -0.058911573
C   C57       1.0  0.05010  0.68890  0.52180  1.0000 -0.058911573
C   C58       1.0  0.18890  0.55010  0.02180  1.0000 -0.058911573
C   C59       1.0  0.02180  0.18890  0.55010  1.0000 -0.058911573
C   C60       1.0  0.55010  0.02180  0.18890  1.0000 -0.058911573
C   C61       1.0  0.64000  0.50080  0.99010  1.0000 -0.1197213476
C   C62       1.0  0.50080  0.99010  0.64000  1.0000 -0.1197213476
C   C63       1.0  0.99010  0.64000  0.50080  1.0000 -0.1197213476
C   C64       1.0  0.14000  0.49010  0.00080  1.0000 -0.1197213476
C   C65       1.0  0.00080  0.14000  0.49010  1.0000 -0.1197213476
C   C66       1.0  0.49010  0.00080  0.14000  1.0000 -0.1197213476
C   C67       1.0  0.57550  0.46050  0.96890  1.0000 -0.0897411749
C   C68       1.0  0.46050  0.96890  0.57550  1.0000 -0.0897411749
C   C69       1.0  0.96890  0.57550  0.46050  1.0000 -0.0897411749
C   C70       1.0  0.07550  0.46890  0.96050  1.0000 -0.0897411749
C   C71       1.0  0.96050  0.07550  0.46890  1.0000 -0.0897411749
C   C72       1.0  0.46890  0.96050  0.07550  1.0000 -0.0897411749
C   C73       1.0  0.39380  0.32060  0.98030  1.0000 -0.0811261247
C   C74       1.0  0.32060  0.98030  0.39380  1.0000 -0.0811261247
C   C75       1.0  0.98030  0.39380  0.32060  1.0000 -0.0811261247
C   C76       1.0  0.89380  0.48030  0.82060  1.0000 -0.0811261247
C   C77       1.0  0.82060  0.89380  0.48030  1.0000 -0.0811261247
C   C78       1.0  0.48030  0.82060  0.89380  1.0000 -0.0811261247
C   C79       1.0  0.38080  0.28820  0.02210  1.0000 0.0560208632
C   C80       1.0  0.28820  0.02210  0.38080  1.0000 0.0560208632
C   C81       1.0  0.02210  0.38080  0.28820  1.0000 0.0560208632
C   C82       1.0  0.88080  0.52210  0.78820  1.0000 0.0560208632
C   C83       1.0  0.78820  0.88080  0.52210  1.0000 0.0560208632
C   C84       1.0  0.52210  0.78820  0.88080  1.0000 0.0560208632
C   C85       1.0  0.36970  0.31610  0.07430  1.0000 -0.166252902
C   C86       1.0  0.31610  0.07430  0.36970  1.0000 -0.166252902
C   C87       1.0  0.07430  0.36970  0.31610  1.0000 -0.166252902
C   C88       1.0  0.86970  0.57430  0.81610  1.0000 -0.166252902
C   C89       1.0  0.81610  0.86970  0.57430  1.0000 -0.166252902
C   C90       1.0  0.57430  0.81610  0.86970  1.0000 -0.166252902
C   C91       1.0  0.36390  0.28600  0.11170  1.0000 -0.0811261247
C   C92       1.0  0.28600  0.11170  0.36390  1.0000 -0.0811261247
C   C93       1.0  0.11170  0.36390  0.28600  1.0000 -0.0811261247
C   C94       1.0  0.86390  0.61170  0.78600  1.0000 -0.0811261247
C   C95       1.0  0.78600  0.86390  0.61170  1.0000 -0.0811261247
C   C96       1.0  0.61170  0.78600  0.86390  1.0000 -0.0811261247
C   C97       1.0  0.35950  0.22520  0.09380  1.0000 -0.0897411749
C   C98       1.0  0.22520  0.09380  0.35950  1.0000 -0.0897411749
C   C99       1.0  0.09380  0.35950  0.22520  1.0000 -0.0897411749
C   C100      1.0  0.85950  0.59380  0.72520  1.0000 -0.0897411749
C   C101      1.0  0.72520  0.85950  0.59380  1.0000 -0.0897411749
C   C102      1.0  0.59380  0.72520  0.85950  1.0000 -0.0897411749
C   C103      1.0  0.35980  0.19270  0.03630  1.0000 -0.0811261247
C   C104      1.0  0.19270  0.03630  0.35980  1.0000 -0.0811261247
C   C105      1.0  0.03630  0.35980  0.19270  1.0000 -0.0811261247
C   C106      1.0  0.85980  0.53630  0.69270  1.0000 -0.0811261247
C   C107      1.0  0.69270  0.85980  0.53630  1.0000 -0.0811261247
C   C108      1.0  0.53630  0.69270  0.85980  1.0000 -0.0811261247
C   C109      1.0  0.37700  0.22740  0.00600  1.0000 -0.1590350311
C   C110      1.0  0.22740  0.00600  0.37700  1.0000 -0.1590350311
C   C111      1.0  0.00600  0.37700  0.22740  1.0000 -0.1590350311
C   C112      1.0  0.87700  0.50600  0.72740  1.0000 -0.1590350311
C   C113      1.0  0.72740  0.87700  0.50600  1.0000 -0.1590350311
C   C114      1.0  0.50600  0.72740  0.87700  1.0000 -0.1590350311
C   C115      1.0  0.72640  0.35280  0.27070  1.0000 0.5217607858
C   C116      1.0  0.35280  0.27070  0.72640  1.0000 0.5217607858
C   C117      1.0  0.27070  0.72640  0.35280  1.0000 0.5217607858
C   C118      1.0  0.22640  0.77070  0.85280  1.0000 0.5217607858
C   C119      1.0  0.85280  0.22640  0.77070  1.0000 0.5217607858
C   C120      1.0  0.77070  0.85280  0.22640  1.0000 0.5217607858
C   C121      1.0  0.64700  0.30520  0.24080  1.0000 -0.1112575999
C   C122      1.0  0.30520  0.24080  0.64700  1.0000 -0.1112575999
C   C123      1.0  0.24080  0.64700  0.30520  1.0000 -0.1112575999
C   C124      1.0  0.14700  0.74080  0.80520  1.0000 -0.1112575999
C   C125      1.0  0.80520  0.14700  0.74080  1.0000 -0.1112575999
C   C126      1.0  0.74080  0.80520  0.14700  1.0000 -0.1112575999
C   C127      1.0  0.59650  0.31830  0.21580  1.0000 0.1807137894
C   C128      1.0  0.31830  0.21580  0.59650  1.0000 0.1807137894
C   C129      1.0  0.21580  0.59650  0.31830  1.0000 0.1807137894
C   C130      1.0  0.09650  0.71580  0.81830  1.0000 0.1807137894
C   C131      1.0  0.81830  0.09650  0.71580  1.0000 0.1807137894
C   C132      1.0  0.71580  0.81830  0.09650  1.0000 0.1807137894
C   C133      1.0  0.53170  0.27260  0.18800  1.0000 -0.2202922213
C   C134      1.0  0.27260  0.18800  0.53170  1.0000 -0.2202922213
C   C135      1.0  0.18800  0.53170  0.27260  1.0000 -0.2202922213
C   C136      1.0  0.03170  0.68800  0.77260  1.0000 -0.2202922213
C   C137      1.0  0.77260  0.03170  0.68800  1.0000 -0.2202922213
C   C138      1.0  0.68800  0.77260  0.03170  1.0000 -0.2202922213
C   C139      1.0  0.51590  0.21250  0.18470  1.0000 -0.0523523572
C   C140      1.0  0.21250  0.18470  0.51590  1.0000 -0.0523523572
C   C141      1.0  0.18470  0.51590  0.21250  1.0000 -0.0523523572
C   C142      1.0  0.01590  0.68470  0.71250  1.0000 -0.0523523572
C   C143      1.0  0.71250  0.01590  0.68470  1.0000 -0.0523523572
C   C144      1.0  0.68470  0.71250  0.01590  1.0000 -0.0523523572
C   C145      1.0  0.56400  0.20090  0.21120  1.0000 -0.1299186986
C   C146      1.0  0.20090  0.21120  0.56400  1.0000 -0.1299186986
C   C147      1.0  0.21120  0.56400  0.20090  1.0000 -0.1299186986
C   C148      1.0  0.06400  0.71120  0.70090  1.0000 -0.1299186986
C   C149      1.0  0.70090  0.06400  0.71120  1.0000 -0.1299186986
C   C150      1.0  0.71120  0.70090  0.06400  1.0000 -0.1299186986
C   C151      1.0  0.62830  0.24480  0.23710  1.0000 -0.1022473616
C   C152      1.0  0.24480  0.23710  0.62830  1.0000 -0.1022473616
C   C153      1.0  0.23710  0.62830  0.24480  1.0000 -0.1022473616
C   C154      1.0  0.12830  0.73710  0.74480  1.0000 -0.1022473616
C   C155      1.0  0.74480  0.12830  0.73710  1.0000 -0.1022473616
C   C156      1.0  0.73710  0.74480  0.12830  1.0000 -0.1022473616
C   C157      1.0  0.81560  0.44500  0.28250  1.0000 -0.1112575999
C   C158      1.0  0.44500  0.28250  0.81560  1.0000 -0.1112575999
C   C159      1.0  0.28250  0.81560  0.44500  1.0000 -0.1112575999
C   C160      1.0  0.31560  0.78250  0.94500  1.0000 -0.1112575999
C   C161      1.0  0.94500  0.31560  0.78250  1.0000 -0.1112575999
C   C162      1.0  0.78250  0.94500  0.31560  1.0000 -0.1112575999
C   C163      1.0  0.82180  0.49710  0.26020  1.0000 0.0766556218
C   C164      1.0  0.49710  0.26020  0.82180  1.0000 0.0766556218
C   C165      1.0  0.26020  0.82180  0.49710  1.0000 0.0766556218
C   C166      1.0  0.32180  0.76020  0.99710  1.0000 0.0766556218
C   C167      1.0  0.99710  0.32180  0.76020  1.0000 0.0766556218
C   C168      1.0  0.76020  0.99710  0.32180  1.0000 0.0766556218
C   C169      1.0  0.83280  0.55980  0.29960  1.0000 -0.1590350311
C   C170      1.0  0.55980  0.29960  0.83280  1.0000 -0.1590350311
C   C171      1.0  0.29960  0.83280  0.55980  1.0000 -0.1590350311
C   C172      1.0  0.33280  0.79960  0.05980  1.0000 -0.1590350311
C   C173      1.0  0.05980  0.33280  0.79960  1.0000 -0.1590350311
C   C174      1.0  0.79960  0.05980  0.33280  1.0000 -0.1590350311
C   C175      1.0  0.84420  0.60520  0.27820  1.0000 -0.0811261247
C   C176      1.0  0.60520  0.27820  0.84420  1.0000 -0.0811261247
C   C177      1.0  0.27820  0.84420  0.60520  1.0000 -0.0811261247
C   C178      1.0  0.34420  0.77820  0.10520  1.0000 -0.0811261247
C   C179      1.0  0.10520  0.34420  0.77820  1.0000 -0.0811261247
C   C180      1.0  0.77820  0.10520  0.34420  1.0000 -0.0811261247
C   C181      1.0  0.85530  0.59390  0.22530  1.0000 -0.0897411749
C   C182      1.0  0.59390  0.22530  0.85530  1.0000 -0.0897411749
C   C183      1.0  0.22530  0.85530  0.59390  1.0000 -0.0897411749
C   C184      1.0  0.35530  0.72530  0.09390  1.0000 -0.0897411749
C   C185      1.0  0.09390  0.35530  0.72530  1.0000 -0.0897411749
C   C186      1.0  0.72530  0.09390  0.35530  1.0000 -0.0897411749
C   C187      1.0  0.84420  0.53280  0.18590  1.0000 -0.0811261247
C   C188      1.0  0.53280  0.18590  0.84420  1.0000 -0.0811261247
C   C189      1.0  0.18590  0.84420  0.53280  1.0000 -0.0811261247
C   C190      1.0  0.34420  0.68590  0.03280  1.0000 -0.0811261247
C   C191      1.0  0.03280  0.34420  0.68590  1.0000 -0.0811261247
C   C192      1.0  0.68590  0.03280  0.34420  1.0000 -0.0811261247
C   C193      1.0  0.82650  0.48490  0.20350  1.0000 -0.1590350311
C   C194      1.0  0.48490  0.20350  0.82650  1.0000 -0.1590350311
C   C195      1.0  0.20350  0.82650  0.48490  1.0000 -0.1590350311
C   C196      1.0  0.32650  0.70350  0.98490  1.0000 -0.1590350311
C   C197      1.0  0.98490  0.32650  0.70350  1.0000 -0.1590350311
C   C198      1.0  0.70350  0.98490  0.32650  1.0000 -0.1590350311
C   C199      1.0  0.77090  0.72530  0.35350  1.0000 0.5123021545
C   C200      1.0  0.72530  0.35350  0.77090  1.0000 0.5123021545
C   C201      1.0  0.35350  0.77090  0.72530  1.0000 0.5123021545
C   C202      1.0  0.27090  0.85350  0.22530  1.0000 0.5123021545
C   C203      1.0  0.22530  0.27090  0.85350  1.0000 0.5123021545
C   C204      1.0  0.85350  0.22530  0.27090  1.0000 0.5123021545
C   C205      1.0  0.78800  0.69340  0.39740  1.0000 -0.1197213476
C   C206      1.0  0.69340  0.39740  0.78800  1.0000 -0.1197213476
C   C207      1.0  0.39740  0.78800  0.69340  1.0000 -0.1197213476
C   C208      1.0  0.28800  0.89740  0.19340  1.0000 -0.1197213476
C   C209      1.0  0.19340  0.28800  0.89740  1.0000 -0.1197213476
C   C210      1.0  0.89740  0.19340  0.28800  1.0000 -0.1197213476
C   C211      1.0  0.74920  0.63050  0.38600  1.0000 0.1960887106
C   C212      1.0  0.63050  0.38600  0.74920  1.0000 0.1960887106
C   C213      1.0  0.38600  0.74920  0.63050  1.0000 0.1960887106
C   C214      1.0  0.24920  0.88600  0.13050  1.0000 0.1960887106
C   C215      1.0  0.13050  0.24920  0.88600  1.0000 0.1960887106
C   C216      1.0  0.88600  0.13050  0.24920  1.0000 0.1960887106
C   C217      1.0  0.76880  0.60940  0.43010  1.0000 -0.2277115008
C   C218      1.0  0.60940  0.43010  0.76880  1.0000 -0.2277115008
C   C219      1.0  0.43010  0.76880  0.60940  1.0000 -0.2277115008
C   C220      1.0  0.26880  0.93010  0.10940  1.0000 -0.2277115008
C   C221      1.0  0.10940  0.26880  0.93010  1.0000 -0.2277115008
C   C222      1.0  0.93010  0.10940  0.26880  1.0000 -0.2277115008
C   C223      1.0  0.82600  0.65510  0.49310  1.0000 -0.058911573
C   C224      1.0  0.65510  0.49310  0.82600  1.0000 -0.058911573
C   C225      1.0  0.49310  0.82600  0.65510  1.0000 -0.058911573
C   C226      1.0  0.32600  0.99310  0.15510  1.0000 -0.058911573
C   C227      1.0  0.15510  0.32600  0.99310  1.0000 -0.058911573
C   C228      1.0  0.99310  0.15510  0.32600  1.0000 -0.058911573
C   C229      1.0  0.86660  0.71510  0.50170  1.0000 -0.1197213476
C   C230      1.0  0.71510  0.50170  0.86660  1.0000 -0.1197213476
C   C231      1.0  0.50170  0.86660  0.71510  1.0000 -0.1197213476
C   C232      1.0  0.36660  0.00170  0.21510  1.0000 -0.1197213476
C   C233      1.0  0.21510  0.36660  0.00170  1.0000 -0.1197213476
C   C234      1.0  0.00170  0.21510  0.36660  1.0000 -0.1197213476
C   C235      1.0  0.84730  0.73600  0.45840  1.0000 -0.1022473616
C   C236      1.0  0.73600  0.45840  0.84730  1.0000 -0.1022473616
C   C237      1.0  0.45840  0.84730  0.73600  1.0000 -0.1022473616
C   C238      1.0  0.34730  0.95840  0.23600  1.0000 -0.1022473616
C   C239      1.0  0.23600  0.34730  0.95840  1.0000 -0.1022473616
C   C240      1.0  0.95840  0.23600  0.34730  1.0000 -0.1022473616
C   C241      1.0  0.69280  0.71360  0.25490  1.0000 -0.1299186986
C   C242      1.0  0.71360  0.25490  0.69280  1.0000 -0.1299186986
C   C243      1.0  0.25490  0.69280  0.71360  1.0000 -0.1299186986
C   C244      1.0  0.19280  0.75490  0.21360  1.0000 -0.1299186986
C   C245      1.0  0.21360  0.19280  0.75490  1.0000 -0.1299186986
C   C246      1.0  0.75490  0.21360  0.19280  1.0000 -0.1299186986
C   C247      1.0  0.61870  0.68100  0.21100  1.0000 0.0766556218
C   C248      1.0  0.68100  0.21100  0.61870  1.0000 0.0766556218
C   C249      1.0  0.21100  0.61870  0.68100  1.0000 0.0766556218
C   C250      1.0  0.11870  0.71100  0.18100  1.0000 0.0766556218
C   C251      1.0  0.18100  0.11870  0.71100  1.0000 0.0766556218
C   C252      1.0  0.71100  0.18100  0.11870  1.0000 0.0766556218
C   C253      1.0  0.60040  0.63160  0.14940  1.0000 -0.1590350311
C   C254      1.0  0.63160  0.14940  0.60040  1.0000 -0.1590350311
C   C255      1.0  0.14940  0.60040  0.63160  1.0000 -0.1590350311
C   C256      1.0  0.10040  0.64940  0.13160  1.0000 -0.1590350311
C   C257      1.0  0.13160  0.10040  0.64940  1.0000 -0.1590350311
C   C258      1.0  0.64940  0.13160  0.10040  1.0000 -0.1590350311
C   C259      1.0  0.53570  0.59580  0.09990  1.0000 -0.0811261247
C   C260      1.0  0.59580  0.09990  0.53570  1.0000 -0.0811261247
C   C261      1.0  0.09990  0.53570  0.59580  1.0000 -0.0811261247
C   C262      1.0  0.03570  0.59990  0.09580  1.0000 -0.0811261247
C   C263      1.0  0.09580  0.03570  0.59990  1.0000 -0.0811261247
C   C264      1.0  0.59990  0.09580  0.03570  1.0000 -0.0811261247
C   C265      1.0  0.48730  0.60590  0.11090  1.0000 -0.1022473616
C   C266      1.0  0.60590  0.11090  0.48730  1.0000 -0.1022473616
C   C267      1.0  0.11090  0.48730  0.60590  1.0000 -0.1022473616
C   C268      1.0  0.98730  0.61090  0.10590  1.0000 -0.1022473616
C   C269      1.0  0.10590  0.98730  0.61090  1.0000 -0.1022473616
C   C270      1.0  0.61090  0.10590  0.98730  1.0000 -0.1022473616
C   C271      1.0  0.50610  0.66060  0.16850  1.0000 -0.0811261247
C   C272      1.0  0.66060  0.16850  0.50610  1.0000 -0.0811261247
C   C273      1.0  0.16850  0.50610  0.66060  1.0000 -0.0811261247
C   C274      1.0  0.00610  0.66850  0.16060  1.0000 -0.0811261247
C   C275      1.0  0.16060  0.00610  0.66850  1.0000 -0.0811261247
C   C276      1.0  0.66850  0.16060  0.00610  1.0000 -0.0811261247
C   C277      1.0  0.57070  0.69520  0.21900  1.0000 -0.1532074345
C   C278      1.0  0.69520  0.21900  0.57070  1.0000 -0.1532074345
C   C279      1.0  0.21900  0.57070  0.69520  1.0000 -0.1532074345
C   C280      1.0  0.07070  0.71900  0.19520  1.0000 -0.1532074345
C   C281      1.0  0.19520  0.07070  0.71900  1.0000 -0.1532074345
C   C282      1.0  0.71900  0.19520  0.07070  1.0000 -0.1532074345
C   C283      1.0  0.43510  0.43270  0.31260  1.0000 0.4218915941
C   C284      1.0  0.43270  0.31260  0.43510  1.0000 0.4302465235
C   C285      1.0  0.31260  0.43510  0.43270  1.0000 0.4302465235
C   C286      1.0  0.93510  0.81260  0.93270  1.0000 0.4302465235
C   C287      1.0  0.93270  0.93510  0.81260  1.0000 0.4302465235
C   C288      1.0  0.81260  0.93270  0.93510  1.0000 0.4302465235
C   C289      1.0  0.41590  0.46230  0.25690  1.0000 -0.1590350311
C   C290      1.0  0.46230  0.25690  0.41590  1.0000 -0.1590350311
C   C291      1.0  0.25690  0.41590  0.46230  1.0000 -0.1590350311
C   C292      1.0  0.91590  0.75690  0.96230  1.0000 -0.1590350311
C   C293      1.0  0.96230  0.91590  0.75690  1.0000 -0.1590350311
C   C294      1.0  0.75690  0.96230  0.91590  1.0000 -0.1590350311
C   C295      1.0  0.45300  0.48650  0.23040  1.0000 0.1937319281
C   C296      1.0  0.48650  0.23040  0.45300  1.0000 0.1937319281
C   C297      1.0  0.23040  0.45300  0.48650  1.0000 0.1937319281
C   C298      1.0  0.95300  0.73040  0.98650  1.0000 0.1937319281
C   C299      1.0  0.98650  0.95300  0.73040  1.0000 0.1937319281
C   C300      1.0  0.73040  0.98650  0.95300  1.0000 0.1937319281
C   C301      1.0  0.43440  0.51230  0.19200  1.0000 -0.1985133199
C   C302      1.0  0.51230  0.19200  0.43440  1.0000 -0.1985133199
C   C303      1.0  0.19200  0.43440  0.51230  1.0000 -0.1985133199
C   C304      1.0  0.93440  0.69200  0.01230  1.0000 -0.1985133199
C   C305      1.0  0.01230  0.93440  0.69200  1.0000 -0.1985133199
C   C306      1.0  0.69200  0.01230  0.93440  1.0000 -0.1985133199
C   C307      1.0  0.37920  0.51770  0.18330  1.0000 -0.0679668196
C   C308      1.0  0.51770  0.18330  0.37920  1.0000 -0.0679668196
C   C309      1.0  0.18330  0.37920  0.51770  1.0000 -0.0679668196
C   C310      1.0  0.87920  0.68330  0.01770  1.0000 -0.0679668196
C   C311      1.0  0.01770  0.87920  0.68330  1.0000 -0.0679668196
C   C312      1.0  0.68330  0.01770  0.87920  1.0000 -0.0679668196
C   C313      1.0  0.33710  0.48770  0.20110  1.0000 -0.1197213476
C   C314      1.0  0.48770  0.20110  0.33710  1.0000 -0.1197213476
C   C315      1.0  0.20110  0.33710  0.48770  1.0000 -0.1197213476
C   C316      1.0  0.83710  0.70110  0.98770  1.0000 -0.1197213476
C   C317      1.0  0.98770  0.83710  0.70110  1.0000 -0.1197213476
C   C318      1.0  0.70110  0.98770  0.83710  1.0000 -0.1197213476
C   C319      1.0  0.36000  0.46730  0.24360  1.0000 -0.1022473616
C   C320      1.0  0.46730  0.24360  0.36000  1.0000 -0.1022473616
C   C321      1.0  0.24360  0.36000  0.46730  1.0000 -0.1022473616
C   C322      1.0  0.86000  0.74360  0.96730  1.0000 -0.1022473616
C   C323      1.0  0.96730  0.86000  0.74360  1.0000 -0.1022473616
C   C324      1.0  0.74360  0.96730  0.86000  1.0000 -0.1022473616
C   C325      1.0  0.51050  0.41670  0.37980  1.0000 -0.1112575999
C   C326      1.0  0.41670  0.37980  0.51050  1.0000 -0.1112575999
C   C327      1.0  0.37980  0.51050  0.41670  1.0000 -0.1112575999
C   C328      1.0  0.01050  0.87980  0.91670  1.0000 -0.1112575999
C   C329      1.0  0.91670  0.01050  0.87980  1.0000 -0.1112575999
C   C330      1.0  0.87980  0.91670  0.01050  1.0000 -0.1112575999
C   C331      1.0  0.58790  0.44390  0.41590  1.0000 0.072353469
C   C332      1.0  0.44390  0.41590  0.58790  1.0000 0.072353469
C   C333      1.0  0.41590  0.58790  0.44390  1.0000 0.072353469
C   C334      1.0  0.08790  0.91590  0.94390  1.0000 0.072353469
C   C335      1.0  0.94390  0.08790  0.91590  1.0000 0.072353469
C   C336      1.0  0.91590  0.94390  0.08790  1.0000 0.072353469
C   C337      1.0  0.61080  0.40380  0.38690  1.0000 -0.166252902
C   C338      1.0  0.40380  0.38690  0.61080  1.0000 -0.166252902
C   C339      1.0  0.38690  0.61080  0.40380  1.0000 -0.166252902
C   C340      1.0  0.11080  0.88690  0.90380  1.0000 -0.166252902
C   C341      1.0  0.90380  0.11080  0.88690  1.0000 -0.166252902
C   C342      1.0  0.88690  0.90380  0.11080  1.0000 -0.166252902
C   C343      1.0  0.67590  0.42290  0.41730  1.0000 -0.0811261247
C   C344      1.0  0.42290  0.41730  0.67590  1.0000 -0.0811261247
C   C345      1.0  0.41730  0.67590  0.42290  1.0000 -0.0811261247
C   C346      1.0  0.17590  0.91730  0.92290  1.0000 -0.0811261247
C   C347      1.0  0.92290  0.17590  0.91730  1.0000 -0.0811261247
C   C348      1.0  0.91730  0.92290  0.17590  1.0000 -0.0811261247
C   C349      1.0  0.72170  0.48130  0.47570  1.0000 -0.0897411749
C   C350      1.0  0.48130  0.47570  0.72170  1.0000 -0.0897411749
C   C351      1.0  0.47570  0.72170  0.48130  1.0000 -0.0897411749
C   C352      1.0  0.22170  0.97570  0.98130  1.0000 -0.0897411749
C   C353      1.0  0.98130  0.22170  0.97570  1.0000 -0.0897411749
C   C354      1.0  0.97570  0.98130  0.22170  1.0000 -0.0897411749
C   C355      1.0  0.69980  0.51940  0.50780  1.0000 -0.0811261247
C   C356      1.0  0.51940  0.50780  0.69980  1.0000 -0.0811261247
C   C357      1.0  0.50780  0.69980  0.51940  1.0000 -0.0811261247
C   C358      1.0  0.19980  0.00780  0.01940  1.0000 -0.0811261247
C   C359      1.0  0.01940  0.19980  0.00780  1.0000 -0.0811261247
C   C360      1.0  0.00780  0.01940  0.19980  1.0000 -0.0811261247
C   C361      1.0  0.63430  0.50130  0.47680  1.0000 -0.1590350311
C   C362      1.0  0.50130  0.47680  0.63430  1.0000 -0.1590350311
C   C363      1.0  0.47680  0.63430  0.50130  1.0000 -0.1590350311
C   C364      1.0  0.13430  0.97680  0.00130  1.0000 -0.1590350311
C   C365      1.0  0.00130  0.13430  0.97680  1.0000 -0.1590350311
C   C366      1.0  0.97680  0.00130  0.13430  1.0000 -0.1590350311
N   N1        1.0  0.45800  0.35860  0.00140  1.0000 -0.2074518675
N   N2        1.0  0.35860  0.00140  0.45800  1.0000 -0.2074518675
N   N3        1.0  0.00140  0.45800  0.35860  1.0000 -0.2074518675
N   N4        1.0  0.95800  0.50140  0.85860  1.0000 -0.2074518675
N   N5        1.0  0.85860  0.95800  0.50140  1.0000 -0.2074518675
N   N6        1.0  0.50140  0.85860  0.95800  1.0000 -0.2074518675
N   N7        1.0  0.74390  0.39300  0.24480  1.0000 -0.3145322559
N   N8        1.0  0.39300  0.24480  0.74390  1.0000 -0.3165609298
N   N9        1.0  0.24480  0.74390  0.39300  1.0000 -0.3165609298
N   N10       1.0  0.24390  0.74480  0.89300  1.0000 -0.3145322559
N   N11       1.0  0.89300  0.24390  0.74480  1.0000 -0.3165609298
N   N12       1.0  0.74480  0.89300  0.24390  1.0000 -0.3145322559
N   N13       1.0  0.70510  0.69860  0.31010  1.0000 -0.3013477681
N   N14       1.0  0.69860  0.31010  0.70510  1.0000 -0.3013477681
N   N15       1.0  0.31010  0.70510  0.69860  1.0000 -0.3013477681
N   N16       1.0  0.20510  0.81010  0.19860  1.0000 -0.3013477681
N   N17       1.0  0.19860  0.20510  0.81010  1.0000 -0.3013477681
N   N18       1.0  0.81010  0.19860  0.20510  1.0000 -0.3013477681
N   N19       1.0  0.49620  0.44980  0.34540  1.0000 -0.2415943377
N   N20       1.0  0.44980  0.34540  0.49620  1.0000 -0.2415943377
N   N21       1.0  0.34540  0.49620  0.44980  1.0000 -0.2415943377
N   N22       1.0  0.99620  0.84540  0.94980  1.0000 -0.2415943377
N   N23       1.0  0.94980  0.99620  0.84540  1.0000 -0.2415943377
N   N24       1.0  0.84540  0.94980  0.99620  1.0000 -0.2415943377
N   N25       1.0  0.47180  0.50770  0.87780  1.0000 0.7073183068
N   N26       1.0  0.50770  0.87780  0.47180  1.0000 0.7073183068
N   N27       1.0  0.87780  0.47180  0.50770  1.0000 0.7073183068
N   N28       1.0  0.97180  0.37780  0.00770  1.0000 0.7073183068
N   N29       1.0  0.00770  0.97180  0.37780  1.0000 0.7073183068
N   N30       1.0  0.37780  0.00770  0.97180  1.0000 0.7073183068
N   N31       1.0  0.26010  0.39170  0.73600  1.0000 0.7073183068
N   N32       1.0  0.39170  0.73600  0.26010  1.0000 0.7073183068
N   N33       1.0  0.73600  0.26010  0.39170  1.0000 0.7073183068
N   N34       1.0  0.76010  0.23600  0.89170  1.0000 0.7073183068
N   N35       1.0  0.89170  0.76010  0.23600  1.0000 0.7073183068
N   N36       1.0  0.23600  0.89170  0.76010  1.0000 0.7073183068
N   N37       1.0  0.32740  0.48570  0.94460  1.0000 0.7170238239
N   N38       1.0  0.48570  0.94460  0.32740  1.0000 0.7170238239
N   N39       1.0  0.94460  0.32740  0.48570  1.0000 0.7170238239
N   N40       1.0  0.82740  0.44460  0.98570  1.0000 0.7170238239
N   N41       1.0  0.98570  0.82740  0.44460  1.0000 0.7170238239
N   N42       1.0  0.44460  0.98570  0.82740  1.0000 0.7170238239
N   N43       1.0  0.30990  0.19660  0.21910  1.0000 0.7073183068
N   N44       1.0  0.19660  0.21910  0.30990  1.0000 0.7073183068
N   N45       1.0  0.21910  0.30990  0.19660  1.0000 0.7073183068
N   N46       1.0  0.80990  0.71910  0.69660  1.0000 0.7073183068
N   N47       1.0  0.69660  0.80990  0.71910  1.0000 0.7073183068
N   N48       1.0  0.71910  0.69660  0.80990  1.0000 0.7073183068
O   O1        1.0  0.58480  0.45500  0.11690  1.0000 -0.2840723552
O   O2        1.0  0.45500  0.11690  0.58480  1.0000 -0.2840723552
O   O3        1.0  0.11690  0.58480  0.45500  1.0000 -0.2840723552
O   O4        1.0  0.08480  0.61690  0.95500  1.0000 -0.2840723552
O   O5        1.0  0.95500  0.08480  0.61690  1.0000 -0.2840723552
O   O6        1.0  0.61690  0.95500  0.08480  1.0000 -0.2840723552
O   O7        1.0  0.61660  0.38200  0.22200  1.0000 -0.2415943377
O   O8        1.0  0.38200  0.22200  0.61660  1.0000 -0.2415943377
O   O9        1.0  0.22200  0.61660  0.38200  1.0000 -0.2415943377
O   O10       1.0  0.11660  0.72200  0.88200  1.0000 -0.2415943377
O   O11       1.0  0.88200  0.11660  0.72200  1.0000 -0.2415943377
O   O12       1.0  0.72200  0.88200  0.11660  1.0000 -0.2415943377
O   O13       1.0  0.69210  0.58810  0.32140  1.0000 -0.2510808118
O   O14       1.0  0.58810  0.32140  0.69210  1.0000 -0.2510808118
O   O15       1.0  0.32140  0.69210  0.58810  1.0000 -0.2510808118
O   O16       1.0  0.19210  0.82140  0.08810  1.0000 -0.2510808118
O   O17       1.0  0.08810  0.19210  0.82140  1.0000 -0.2510808118
O   O18       1.0  0.82140  0.08810  0.19210  1.0000 -0.2510808118
O   O19       1.0  0.50950  0.48020  0.24530  1.0000 -0.2277115008
O   O20       1.0  0.48020  0.24530  0.50950  1.0000 -0.2277115008
O   O21       1.0  0.24530  0.50950  0.48020  1.0000 -0.2277115008
O   O22       1.0  0.00950  0.74530  0.98020  1.0000 -0.2277115008
O   O23       1.0  0.98020  0.00950  0.74530  1.0000 -0.2277115008
O   O24       1.0  0.74530  0.98020  0.00950  1.0000 -0.2277115008
O   O25       1.0  0.43350  0.39420  0.93030  1.0000 -0.5922248223
O   O26       1.0  0.39420  0.93030  0.43350  1.0000 -0.5922248223
O   O27       1.0  0.93030  0.43350  0.39420  1.0000 -0.5922248223
O   O28       1.0  0.93350  0.43030  0.89420  1.0000 -0.5922248223
O   O29       1.0  0.89420  0.93350  0.43030  1.0000 -0.5922248223
O   O30       1.0  0.43030  0.89420  0.93350  1.0000 -0.5922248223
O   O31       1.0  0.76970  0.34920  0.31320  1.0000 -0.6293532509
O   O32       1.0  0.34920  0.31320  0.76970  1.0000 -0.6293532509
O   O33       1.0  0.31320  0.76970  0.34920  1.0000 -0.6293532509
O   O34       1.0  0.26970  0.81320  0.84920  1.0000 -0.6293532509
O   O35       1.0  0.84920  0.26970  0.81320  1.0000 -0.6293532509
O   O36       1.0  0.81320  0.84920  0.26970  1.0000 -0.6293532509
O   O37       1.0  0.81490  0.77270  0.35420  1.0000 -0.6554523168
O   O38       1.0  0.77270  0.35420  0.81490  1.0000 -0.6554523168
O   O39       1.0  0.35420  0.81490  0.77270  1.0000 -0.6554523168
O   O40       1.0  0.31490  0.85420  0.27270  1.0000 -0.6554523168
O   O41       1.0  0.27270  0.31490  0.85420  1.0000 -0.6554523168
O   O42       1.0  0.85420  0.27270  0.31490  1.0000 -0.6554523168
O   O43       1.0  0.38950  0.39220  0.31020  1.0000 -0.528480774
O   O44       1.0  0.39220  0.31020  0.38950  1.0000 -0.528480774
O   O45       1.0  0.31020  0.38950  0.39220  1.0000 -0.528480774
O   O46       1.0  0.88950  0.81020  0.89220  1.0000 -0.528480774
O   O47       1.0  0.89220  0.88950  0.81020  1.0000 -0.528480774
O   O48       1.0  0.81020  0.89220  0.88950  1.0000 -0.528480774
O   O49       1.0  0.44410  0.52150  0.91150  1.0000 -0.4989946045
O   O50       1.0  0.52150  0.91150  0.44410  1.0000 -0.4989946045
O   O51       1.0  0.91150  0.44410  0.52150  1.0000 -0.4989946045
O   O52       1.0  0.94410  0.41150  0.02150  1.0000 -0.4989946045
O   O53       1.0  0.02150  0.94410  0.41150  1.0000 -0.4989946045
O   O54       1.0  0.41150  0.02150  0.94410  1.0000 -0.4989946045
O   O55       1.0  0.45040  0.44770  0.83740  1.0000 -0.488791614
O   O56       1.0  0.44770  0.83740  0.45040  1.0000 -0.488791614
O   O57       1.0  0.83740  0.45040  0.44770  1.0000 -0.488791614
O   O58       1.0  0.95040  0.33740  0.94770  1.0000 -0.4847638367
O   O59       1.0  0.94770  0.95040  0.33740  1.0000 -0.488791614
O   O60       1.0  0.33740  0.94770  0.95040  1.0000 -0.488791614
O   O61       1.0  0.53090  0.55100  0.89660  1.0000 -0.4097939251
O   O62       1.0  0.55100  0.89660  0.53090  1.0000 -0.4097939251
O   O63       1.0  0.89660  0.53090  0.55100  1.0000 -0.4097939251
O   O64       1.0  0.03090  0.39660  0.05100  1.0000 -0.4097939251
O   O65       1.0  0.05100  0.03090  0.39660  1.0000 -0.4097939251
O   O66       1.0  0.39660  0.05100  0.03090  1.0000 -0.4097939251
O   O67       1.0  0.23940  0.35150  0.75460  1.0000 -0.4712533859
O   O68       1.0  0.35150  0.75460  0.23940  1.0000 -0.4712533859
O   O69       1.0  0.75460  0.23940  0.35150  1.0000 -0.4712533859
O   O70       1.0  0.73940  0.25460  0.85150  1.0000 -0.4712533859
O   O71       1.0  0.85150  0.73940  0.25460  1.0000 -0.4712533859
O   O72       1.0  0.25460  0.85150  0.73940  1.0000 -0.4712533859
O   O73       1.0  0.32100  0.43360  0.76430  1.0000 -0.488791614
O   O74       1.0  0.43360  0.76430  0.32100  1.0000 -0.488791614
O   O75       1.0  0.76430  0.32100  0.43360  1.0000 -0.488791614
O   O76       1.0  0.82100  0.26430  0.93360  1.0000 -0.488791614
O   O77       1.0  0.93360  0.82100  0.26430  1.0000 -0.488791614
O   O78       1.0  0.26430  0.93360  0.82100  1.0000 -0.488791614
O   O79       1.0  0.21700  0.39600  0.69290  1.0000 -0.4097939251
O   O80       1.0  0.39600  0.69290  0.21700  1.0000 -0.4097939251
O   O81       1.0  0.69290  0.21700  0.39600  1.0000 -0.4097939251
O   O82       1.0  0.71700  0.19290  0.89600  1.0000 -0.3990208981
O   O83       1.0  0.89600  0.71700  0.19290  1.0000 -0.4097939251
O   O84       1.0  0.19290  0.89600  0.71700  1.0000 -0.3990208981
O   O85       1.0  0.29380  0.46370  0.88260  1.0000 -0.4989946045
O   O86       1.0  0.46370  0.88260  0.29380  1.0000 -0.4989946045
O   O87       1.0  0.88260  0.29380  0.46370  1.0000 -0.4989946045
O   O88       1.0  0.79380  0.38260  0.96370  1.0000 -0.4989946045
O   O89       1.0  0.96370  0.79380  0.38260  1.0000 -0.4989946045
O   O90       1.0  0.38260  0.96370  0.79380  1.0000 -0.4989946045
O   O91       1.0  0.36490  0.46200  0.96470  1.0000 -0.528480774
O   O92       1.0  0.46200  0.96470  0.36490  1.0000 -0.528480774
O   O93       1.0  0.96470  0.36490  0.46200  1.0000 -0.528480774
O   O94       1.0  0.86490  0.46470  0.96200  1.0000 -0.528480774
O   O95       1.0  0.96200  0.86490  0.46470  1.0000 -0.528480774
O   O96       1.0  0.46470  0.96200  0.86490  1.0000 -0.528480774
O   O97       1.0  0.31160  0.51620  0.98360  1.0000 -0.3990208981
O   O98       1.0  0.51620  0.98360  0.31160  1.0000 -0.3945400375
O   O99       1.0  0.98360  0.31160  0.51620  1.0000 -0.3945400375
O   O100      1.0  0.81160  0.48360  0.01620  1.0000 -0.3990208981
O   O101      1.0  0.01620  0.81160  0.48360  1.0000 -0.3990208981
O   O102      1.0  0.48360  0.01620  0.81160  1.0000 -0.3945400375
O   O103      1.0  0.35030  0.25620  0.23850  1.0000 -0.488791614
O   O104      1.0  0.25620  0.23850  0.35030  1.0000 -0.488791614
O   O105      1.0  0.23850  0.35030  0.25620  1.0000 -0.488791614
O   O106      1.0  0.85030  0.73850  0.75620  1.0000 -0.488791614
O   O107      1.0  0.75620  0.85030  0.73850  1.0000 -0.488791614
O   O108      1.0  0.73850  0.75620  0.85030  1.0000 -0.488791614
O   O109      1.0  0.27070  0.18550  0.24210  1.0000 -0.488791614
O   O110      1.0  0.18550  0.24210  0.27070  1.0000 -0.488791614
O   O111      1.0  0.24210  0.27070  0.18550  1.0000 -0.488791614
O   O112      1.0  0.77070  0.74210  0.68550  1.0000 -0.488791614
O   O113      1.0  0.68550  0.77070  0.74210  1.0000 -0.488791614
O   O114      1.0  0.74210  0.68550  0.77070  1.0000 -0.488791614
O   O115      1.0  0.29710  0.15000  0.16600  1.0000 -0.3714511204
O   O116      1.0  0.15000  0.16600  0.29710  1.0000 -0.3714511204
O   O117      1.0  0.16600  0.29710  0.15000  1.0000 -0.3714511204
O   O118      1.0  0.79710  0.66600  0.65000  1.0000 -0.3714511204
O   O119      1.0  0.65000  0.79710  0.66600  1.0000 -0.3714511204
O   O120      1.0  0.66600  0.65000  0.79710  1.0000 -0.3714511204
