# DDEC6 charges by PACMAN v1.1 (https://github.com/mtap-research/PACMAN-charge/)
data_2008[Zn][nan]3[ASR]21
_chemical_formula_sum              "Zn12 P16 H68 C24 N8 O52"
_cell_length_a       9.985
_cell_length_b       13.573
_cell_length_c       18.444
_cell_angle_alpha    90
_cell_angle_beta     90
_cell_angle_gamma    90

_symmetry_space_group_name_H-M    "P 1"
_symmetry_Int_Tables_number       1

loop_
  _symmetry_equiv_pos_as_xyz
  'x, y, z'

loop_
  _atom_site_type_symbol
  _atom_site_label
  _atom_site_symmetry_multiplicity
  _atom_site_fract_x
  _atom_site_fract_y
  _atom_site_fract_z
  _atom_site_occupancy
  _atom_site_charge
Zn  Zn1       1.0  0.83356  0.41811  0.22618  1.0000 1.1099548368
Zn  Zn2       1.0  0.66644  0.58189  0.72618  1.0000 1.1099548368
Zn  Zn3       1.0  0.16644  0.91811  0.27382  1.0000 1.1099548368
Zn  Zn4       1.0  0.33356  0.08189  0.77382  1.0000 1.1099548368
Zn  Zn5       1.0  0.67107  0.14032  0.31122  1.0000 0.9674791573
Zn  Zn6       1.0  0.82893  0.85968  0.81122  1.0000 0.9674791573
Zn  Zn7       1.0  0.32893  0.64032  0.18878  1.0000 0.9674791573
Zn  Zn8       1.0  0.17107  0.35968  0.68878  1.0000 0.9674791573
Zn  Zn9       1.0  0.69176  0.37721  0.54608  1.0000 0.9437477617
Zn  Zn10      1.0  0.80824  0.62279  0.04608  1.0000 0.9437477617
Zn  Zn11      1.0  0.30824  0.87721  0.95392  1.0000 0.9437477617
Zn  Zn12      1.0  0.19176  0.12279  0.45392  1.0000 0.9437477617
P   P1        1.0  0.68350  0.36368  0.36819  1.0000 1.1099548368
P   P2        1.0  0.81650  0.63632  0.86819  1.0000 1.1099548368
P   P3        1.0  0.31650  0.86368  0.13181  1.0000 1.1099548368
P   P4        1.0  0.18350  0.13632  0.63181  1.0000 1.1099548368
P   P5        1.0  0.76800  0.21058  0.15344  1.0000 1.141135904
P   P6        1.0  0.73200  0.78942  0.65344  1.0000 1.141135904
P   P7        1.0  0.23200  0.71058  0.34656  1.0000 1.141135904
P   P8        1.0  0.26800  0.28942  0.84656  1.0000 1.141135904
P   P9        1.0  0.59190  0.52201  0.14218  1.0000 0.957974392
P   P10       1.0  0.90810  0.47799  0.64218  1.0000 0.957974392
P   P11       1.0  0.40810  0.02201  0.35782  1.0000 0.957974392
P   P12       1.0  0.09190  0.97799  0.85782  1.0000 0.957974392
P   P13       1.0  0.04580  0.56397  0.15954  1.0000 1.121118459
P   P14       1.0  0.45420  0.43603  0.65954  1.0000 1.121118459
P   P15       1.0  0.95420  0.06397  0.34046  1.0000 1.121118459
P   P16       1.0  0.54580  0.93603  0.84046  1.0000 1.121118459
H   H1        1.0  0.58300  0.40800  0.33600  1.0000 -0.1096516714
H   H2        1.0  0.91700  0.59200  0.83600  1.0000 -0.1096516714
H   H3        1.0  0.41700  0.90800  0.16400  1.0000 -0.1096516714
H   H4        1.0  0.08300  0.09200  0.66400  1.0000 -0.1096516714
H   H5        1.0  0.67300  0.23900  0.10700  1.0000 -0.1375916721
H   H6        1.0  0.82700  0.76100  0.60700  1.0000 -0.1375916721
H   H7        1.0  0.32700  0.73900  0.39300  1.0000 -0.1375916721
H   H8        1.0  0.17300  0.26100  0.89300  1.0000 -0.1375916721
H   H9        1.0  0.55100  0.43400  0.12400  1.0000 -0.101385483
H   H10       1.0  0.94900  0.56600  0.62400  1.0000 -0.101385483
H   H11       1.0  0.44900  0.93400  0.37600  1.0000 -0.101385483
H   H12       1.0  0.05100  0.06600  0.87600  1.0000 -0.101385483
H   H13       1.0  0.01600  0.63800  0.20300  1.0000 -0.1096516714
H   H14       1.0  0.48400  0.36200  0.70300  1.0000 -0.1096516714
H   H15       1.0  0.98400  0.13800  0.29700  1.0000 -0.1096516714
H   H16       1.0  0.51600  0.86200  0.79700  1.0000 -0.1096516714
H   H17       1.0  0.85000  0.08850  0.12000  1.0000 0.3346760003
H   H18       1.0  0.65000  0.91150  0.62000  1.0000 0.3358278998
H   H19       1.0  0.15000  0.58850  0.38000  1.0000 0.3358278998
H   H20       1.0  0.35000  0.41150  0.88000  1.0000 0.3358278998
H   H21       1.0  0.56510  0.18670  0.49080  1.0000 0.1165657563
H   H22       1.0  0.93490  0.81330  0.99080  1.0000 0.1165657563
H   H23       1.0  0.43490  0.68670  0.00920  1.0000 0.1165657563
H   H24       1.0  0.06510  0.31330  0.50920  1.0000 0.1165657563
H   H25       1.0  0.49680  0.21410  0.56500  1.0000 0.1144296928
H   H26       1.0  0.00320  0.78590  0.06500  1.0000 0.1165657563
H   H27       1.0  0.50320  0.71410  0.93500  1.0000 0.1144296928
H   H28       1.0  0.99680  0.28590  0.43500  1.0000 0.1165657563
H   H29       1.0  0.49890  0.05890  0.59970  1.0000 0.1366356621
H   H30       1.0  0.00110  0.94110  0.09970  1.0000 0.1366356621
H   H31       1.0  0.50110  0.55890  0.90030  1.0000 0.1366356621
H   H32       1.0  0.99890  0.44110  0.40030  1.0000 0.1366356621
H   H33       1.0  0.54930  0.03040  0.52180  1.0000 0.1283055262
H   H34       1.0  0.95070  0.96960  0.02180  1.0000 0.1283055262
H   H35       1.0  0.45070  0.53040  0.97820  1.0000 0.1283055262
H   H36       1.0  0.04930  0.46960  0.47820  1.0000 0.1283055262
H   H37       1.0  0.89700  0.20080  0.55040  1.0000 0.1144296928
H   H38       1.0  0.60300  0.79920  0.05040  1.0000 0.1144296928
H   H39       1.0  0.10300  0.70080  0.94960  1.0000 0.1144296928
H   H40       1.0  0.39700  0.29920  0.44960  1.0000 0.1144296928
H   H41       1.0  0.80930  0.19040  0.48020  1.0000 0.1165657563
H   H42       1.0  0.69070  0.80960  0.98020  1.0000 0.1165657563
H   H43       1.0  0.19070  0.69040  0.01980  1.0000 0.1165657563
H   H44       1.0  0.30930  0.30960  0.51980  1.0000 0.1165657563
H   H45       1.0  0.79300  0.03140  0.49570  1.0000 0.1283055262
H   H46       1.0  0.70700  0.96860  0.99570  1.0000 0.1283055262
H   H47       1.0  0.20700  0.53140  0.00430  1.0000 0.1283055262
H   H48       1.0  0.29300  0.46860  0.50430  1.0000 0.1283055262
H   H49       1.0  0.89520  0.04060  0.56030  1.0000 0.1283055262
H   H50       1.0  0.60480  0.95940  0.06030  1.0000 0.1283055262
H   H51       1.0  0.10480  0.54060  0.93970  1.0000 0.1283055262
H   H52       1.0  0.39520  0.45940  0.43970  1.0000 0.1283055262
H   H53       1.0  0.64170  0.23400  0.67400  1.0000 0.1283055262
H   H54       1.0  0.85830  0.76600  0.17400  1.0000 0.1283055262
H   H55       1.0  0.35830  0.73400  0.82600  1.0000 0.1283055262
H   H56       1.0  0.14170  0.26600  0.32600  1.0000 0.1283055262
H   H57       1.0  0.79810  0.23770  0.66500  1.0000 0.1283055262
H   H58       1.0  0.70190  0.76230  0.16500  1.0000 0.1283055262
H   H59       1.0  0.20190  0.73770  0.83500  1.0000 0.1283055262
H   H60       1.0  0.29810  0.26230  0.33500  1.0000 0.1283055262
H   H61       1.0  0.81270  0.07660  0.68020  1.0000 0.1283055262
H   H62       1.0  0.68730  0.92340  0.18020  1.0000 0.1283055262
H   H63       1.0  0.18730  0.57660  0.81980  1.0000 0.1283055262
H   H64       1.0  0.31270  0.42340  0.31980  1.0000 0.1283055262
H   H65       1.0  0.65880  0.07500  0.69790  1.0000 0.1366356621
H   H66       1.0  0.84120  0.92500  0.19790  1.0000 0.1366356621
H   H67       1.0  0.34120  0.57500  0.80210  1.0000 0.1366356621
H   H68       1.0  0.15880  0.42500  0.30210  1.0000 0.1366356621
C   C1        1.0  0.57190  0.18000  0.54310  1.0000 -0.1197247272
C   C2        1.0  0.92810  0.82000  0.04310  1.0000 -0.1197247272
C   C3        1.0  0.42810  0.68000  0.95690  1.0000 -0.1197247272
C   C4        1.0  0.07190  0.32000  0.45690  1.0000 -0.1197247272
C   C5        1.0  0.56900  0.07010  0.56420  1.0000 -0.101385483
C   C6        1.0  0.93100  0.92990  0.06420  1.0000 -0.101385483
C   C7        1.0  0.43100  0.57010  0.93580  1.0000 -0.101385483
C   C8        1.0  0.06900  0.42990  0.43580  1.0000 -0.101385483
C   C9        1.0  0.81330  0.17520  0.53160  1.0000 -0.1197247272
C   C10       1.0  0.68670  0.82480  0.03160  1.0000 -0.1197247272
C   C11       1.0  0.18670  0.67520  0.96840  1.0000 -0.1197247272
C   C12       1.0  0.31330  0.32480  0.46840  1.0000 -0.1197247272
C   C13       1.0  0.81000  0.06370  0.54170  1.0000 -0.101385483
C   C14       1.0  0.69000  0.93630  0.04170  1.0000 -0.101385483
C   C15       1.0  0.19000  0.56370  0.95830  1.0000 -0.101385483
C   C16       1.0  0.31000  0.43630  0.45830  1.0000 -0.101385483
C   C17       1.0  0.71690  0.20620  0.64780  1.0000 -0.1197247272
C   C18       1.0  0.78310  0.79380  0.14780  1.0000 -0.1197247272
C   C19       1.0  0.28310  0.70620  0.85220  1.0000 -0.1197247272
C   C20       1.0  0.21690  0.29380  0.35220  1.0000 -0.1197247272
C   C21       1.0  0.72470  0.09360  0.66180  1.0000 -0.101385483
C   C22       1.0  0.77530  0.90640  0.16180  1.0000 -0.101385483
C   C23       1.0  0.27530  0.59360  0.83820  1.0000 -0.101385483
C   C24       1.0  0.22470  0.40640  0.33820  1.0000 -0.101385483
N   N1        1.0  0.70050  0.22400  0.56900  1.0000 -0.1197247272
N   N2        1.0  0.79950  0.77600  0.06900  1.0000 -0.1197247272
N   N3        1.0  0.29950  0.72400  0.93100  1.0000 -0.1197247272
N   N4        1.0  0.20050  0.27600  0.43100  1.0000 -0.1197247272
N   N5        1.0  0.69930  0.04060  0.59470  1.0000 -0.0786612229
N   N6        1.0  0.80070  0.95940  0.09470  1.0000 -0.0786612229
N   N7        1.0  0.30070  0.54060  0.90530  1.0000 -0.0786612229
N   N8        1.0  0.19930  0.45940  0.40530  1.0000 -0.0786612229
O   O1        1.0  0.80390  0.40050  0.32980  1.0000 -0.7303346168
O   O2        1.0  0.69610  0.59950  0.82980  1.0000 -0.7303346168
O   O3        1.0  0.19610  0.90050  0.17020  1.0000 -0.7303346168
O   O4        1.0  0.30390  0.09950  0.67020  1.0000 -0.7303346168
O   O5        1.0  0.85510  0.29220  0.18490  1.0000 -0.7174873547
O   O6        1.0  0.64490  0.70780  0.68490  1.0000 -0.7174873547
O   O7        1.0  0.14490  0.79220  0.31510  1.0000 -0.7174873547
O   O8        1.0  0.35510  0.20780  0.81510  1.0000 -0.7174873547
O   O9        1.0  0.70140  0.50890  0.20060  1.0000 -0.6974257848
O   O10       1.0  0.79860  0.49110  0.70060  1.0000 -0.6974257848
O   O11       1.0  0.29860  0.00890  0.29940  1.0000 -0.6974257848
O   O12       1.0  0.20140  0.99110  0.79940  1.0000 -0.6974257848
O   O13       1.0  0.00200  0.48340  0.20950  1.0000 -0.6974257848
O   O14       1.0  0.49800  0.51660  0.70950  1.0000 -0.6974257848
O   O15       1.0  0.99800  0.98340  0.29050  1.0000 -0.6974257848
O   O16       1.0  0.50200  0.01660  0.79050  1.0000 -0.6974257848
O   O17       1.0  0.64370  0.25930  0.36320  1.0000 -0.7303346168
O   O18       1.0  0.85630  0.74070  0.86320  1.0000 -0.7303346168
O   O19       1.0  0.35630  0.75930  0.13680  1.0000 -0.7303346168
O   O20       1.0  0.14370  0.24070  0.63680  1.0000 -0.7303346168
O   O21       1.0  0.69240  0.15160  0.20790  1.0000 -0.7174873547
O   O22       1.0  0.80760  0.84840  0.70790  1.0000 -0.7174873547
O   O23       1.0  0.30760  0.65160  0.29210  1.0000 -0.7174873547
O   O24       1.0  0.19240  0.34840  0.79210  1.0000 -0.7174873547
O   O25       1.0  0.19390  0.55620  0.14600  1.0000 -0.7303346168
O   O26       1.0  0.30610  0.44380  0.64600  1.0000 -0.7303346168
O   O27       1.0  0.80610  0.05620  0.35400  1.0000 -0.7303346168
O   O28       1.0  0.69390  0.94380  0.85400  1.0000 -0.7303346168
O   O29       1.0  0.50540  0.61450  0.16090  1.0000 -0.1312720251
O   O30       1.0  0.99460  0.38550  0.66090  1.0000 -0.1312720251
O   O31       1.0  0.49460  0.11450  0.33910  1.0000 -0.1375916721
O   O32       1.0  0.00540  0.88550  0.83910  1.0000 -0.1312720251
O   O33       1.0  0.67320  0.39810  0.44350  1.0000 -0.6974257848
O   O34       1.0  0.82680  0.60190  0.94350  1.0000 -0.6974257848
O   O35       1.0  0.32680  0.89810  0.05650  1.0000 -0.6974257848
O   O36       1.0  0.17320  0.10190  0.55650  1.0000 -0.6974257848
O   O37       1.0  0.64060  0.57050  0.07620  1.0000 -0.652222869
O   O38       1.0  0.85940  0.42950  0.57620  1.0000 -0.652222869
O   O39       1.0  0.35940  0.07050  0.42380  1.0000 -0.652222869
O   O40       1.0  0.14060  0.92950  0.92380  1.0000 -0.652222869
O   O41       1.0  0.96590  0.57160  0.09020  1.0000 -0.73744711
O   O42       1.0  0.53410  0.42840  0.59020  1.0000 -0.73744711
O   O43       1.0  0.03410  0.07160  0.40980  1.0000 -0.73744711
O   O44       1.0  0.46590  0.92840  0.90980  1.0000 -0.73744711
O   O45       1.0  0.85670  0.14590  0.10670  1.0000 -0.522642103
O   O46       1.0  0.64330  0.85410  0.60670  1.0000 -0.522642103
O   O47       1.0  0.14330  0.64590  0.39330  1.0000 -0.522642103
O   O48       1.0  0.35670  0.35410  0.89330  1.0000 -0.522642103
O   O49       1.0  0.52050  0.04350  0.31050  1.0000 -0.1096516714
O   O50       1.0  0.97950  0.95650  0.81050  1.0000 -0.1096516714
O   O51       1.0  0.47950  0.54350  0.18950  1.0000 -0.1096516714
O   O52       1.0  0.02050  0.45650  0.68950  1.0000 -0.1096516714
