# DDEC6 charges by PACMAN v1.1 (https://github.com/mtap-research/PACMAN-charge/)
data_2008[Cd][pyr]3[ASR]1
_chemical_formula_sum              "Cd4 H144 C192 N48 O24"
_cell_length_a       21.4457
_cell_length_b       21.4457
_cell_length_c       21.4457
_cell_angle_alpha    109.471
_cell_angle_beta     109.471
_cell_angle_gamma    109.471

_symmetry_space_group_name_H-M    "P 1"
_symmetry_Int_Tables_number       1

loop_
  _symmetry_equiv_pos_as_xyz
  'x, y, z'

loop_
  _atom_site_type_symbol
  _atom_site_label
  _atom_site_symmetry_multiplicity
  _atom_site_fract_x
  _atom_site_fract_y
  _atom_site_fract_z
  _atom_site_occupancy
  _atom_site_charge
Cd  Cd1       1.0  0.50000  0.50000  0.00000  1.0000 0.6004390426
Cd  Cd2       1.0  0.00000  0.50000  0.50000  1.0000 0.6004390426
Cd  Cd3       1.0  0.50000  0.00000  0.50000  1.0000 0.6004390426
Cd  Cd4       1.0  0.00000  0.00000  0.00000  1.0000 0.6004390426
H   H1        1.0  0.13880  0.29320  0.67960  1.0000 0.2739823468
H   H2        1.0  0.67960  0.13880  0.29320  1.0000 0.2739823468
H   H3        1.0  0.29320  0.67960  0.13880  1.0000 0.2739823468
H   H4        1.0  0.11360  0.45920  0.82040  1.0000 0.2739823468
H   H5        1.0  0.38640  0.20680  0.34560  1.0000 0.2739823468
H   H6        1.0  0.36120  0.04080  0.15440  1.0000 0.2739823468
H   H7        1.0  0.82040  0.11360  0.45920  1.0000 0.2739823468
H   H8        1.0  0.34560  0.38640  0.20680  1.0000 0.2739823468
H   H9        1.0  0.15440  0.36120  0.04080  1.0000 0.2739823468
H   H10       1.0  0.45920  0.82040  0.11360  1.0000 0.2739823468
H   H11       1.0  0.20680  0.34560  0.38640  1.0000 0.2739823468
H   H12       1.0  0.04080  0.15440  0.36120  1.0000 0.2739823468
H   H13       1.0  0.86120  0.70680  0.32040  1.0000 0.2739823468
H   H14       1.0  0.32040  0.86120  0.70680  1.0000 0.2739823468
H   H15       1.0  0.70680  0.32040  0.86120  1.0000 0.2739823468
H   H16       1.0  0.88640  0.54080  0.17960  1.0000 0.2739823468
H   H17       1.0  0.61360  0.79320  0.65440  1.0000 0.2739823468
H   H18       1.0  0.63880  0.95920  0.84560  1.0000 0.2739823468
H   H19       1.0  0.17960  0.88640  0.54080  1.0000 0.2739823468
H   H20       1.0  0.65440  0.61360  0.79320  1.0000 0.2739823468
H   H21       1.0  0.84560  0.63880  0.95920  1.0000 0.2739823468
H   H22       1.0  0.54080  0.17960  0.88640  1.0000 0.2739823468
H   H23       1.0  0.79320  0.65440  0.61360  1.0000 0.2739823468
H   H24       1.0  0.95920  0.84560  0.63880  1.0000 0.2739823468
H   H25       1.0  0.41990  0.50760  0.84110  1.0000 0.092995853
H   H26       1.0  0.84110  0.41990  0.50760  1.0000 0.092995853
H   H27       1.0  0.50760  0.84110  0.41990  1.0000 0.092995853
H   H28       1.0  0.16650  0.57880  0.65890  1.0000 0.092995853
H   H29       1.0  0.33350  0.99240  0.41230  1.0000 0.092995853
H   H30       1.0  0.08010  0.92120  0.08770  1.0000 0.092995853
H   H31       1.0  0.65890  0.16650  0.57880  1.0000 0.092995853
H   H32       1.0  0.41230  0.33350  0.99240  1.0000 0.092995853
H   H33       1.0  0.08770  0.08010  0.92120  1.0000 0.092995853
H   H34       1.0  0.57880  0.65890  0.16650  1.0000 0.092995853
H   H35       1.0  0.99240  0.41230  0.33350  1.0000 0.092995853
H   H36       1.0  0.92120  0.08770  0.08010  1.0000 0.092995853
H   H37       1.0  0.58010  0.49240  0.15890  1.0000 0.092995853
H   H38       1.0  0.15890  0.58010  0.49240  1.0000 0.092995853
H   H39       1.0  0.49240  0.15890  0.58010  1.0000 0.092995853
H   H40       1.0  0.83350  0.42120  0.34110  1.0000 0.092995853
H   H41       1.0  0.66650  0.00760  0.58770  1.0000 0.092995853
H   H42       1.0  0.91990  0.07880  0.91230  1.0000 0.092995853
H   H43       1.0  0.34110  0.83350  0.42120  1.0000 0.092995853
H   H44       1.0  0.58770  0.66650  0.00760  1.0000 0.092995853
H   H45       1.0  0.91230  0.91990  0.07880  1.0000 0.092995853
H   H46       1.0  0.42120  0.34110  0.83350  1.0000 0.092995853
H   H47       1.0  0.00760  0.58770  0.66650  1.0000 0.092995853
H   H48       1.0  0.07880  0.91230  0.91990  1.0000 0.092995853
H   H49       1.0  0.31100  0.44820  0.72800  1.0000 0.148063255
H   H50       1.0  0.72800  0.31100  0.44820  1.0000 0.148063255
H   H51       1.0  0.44820  0.72800  0.31100  1.0000 0.148063255
H   H52       1.0  0.22020  0.58300  0.77200  1.0000 0.148063255
H   H53       1.0  0.27980  0.05180  0.36280  1.0000 0.148063255
H   H54       1.0  0.18900  0.91700  0.13720  1.0000 0.148063255
H   H55       1.0  0.77200  0.22020  0.58300  1.0000 0.148063255
H   H56       1.0  0.36280  0.27980  0.05180  1.0000 0.148063255
H   H57       1.0  0.13720  0.18900  0.91700  1.0000 0.148063255
H   H58       1.0  0.58300  0.77200  0.22020  1.0000 0.148063255
H   H59       1.0  0.05180  0.36280  0.27980  1.0000 0.148063255
H   H60       1.0  0.91700  0.13720  0.18900  1.0000 0.148063255
H   H61       1.0  0.68900  0.55180  0.27200  1.0000 0.148063255
H   H62       1.0  0.27200  0.68900  0.55180  1.0000 0.148063255
H   H63       1.0  0.55180  0.27200  0.68900  1.0000 0.148063255
H   H64       1.0  0.77980  0.41700  0.22800  1.0000 0.148063255
H   H65       1.0  0.72020  0.94820  0.63720  1.0000 0.148063255
H   H66       1.0  0.81100  0.08300  0.86280  1.0000 0.148063255
H   H67       1.0  0.22800  0.77980  0.41700  1.0000 0.148063255
H   H68       1.0  0.63720  0.72020  0.94820  1.0000 0.148063255
H   H69       1.0  0.86280  0.81100  0.08300  1.0000 0.148063255
H   H70       1.0  0.41700  0.22800  0.77980  1.0000 0.148063255
H   H71       1.0  0.94820  0.63720  0.72020  1.0000 0.148063255
H   H72       1.0  0.08300  0.86280  0.81100  1.0000 0.148063255
H   H73       1.0  0.20710  0.31000  0.79670  1.0000 0.1386946299
H   H74       1.0  0.79670  0.20710  0.31000  1.0000 0.1386946299
H   H75       1.0  0.31000  0.79670  0.20710  1.0000 0.1386946299
H   H76       1.0  0.01330  0.41040  0.70330  1.0000 0.1386946299
H   H77       1.0  0.48670  0.19000  0.39710  1.0000 0.1386946299
H   H78       1.0  0.29290  0.08960  0.10290  1.0000 0.1386946299
H   H79       1.0  0.70330  0.01330  0.41040  1.0000 0.1386946299
H   H80       1.0  0.39710  0.48670  0.19000  1.0000 0.1386946299
H   H81       1.0  0.10290  0.29290  0.08960  1.0000 0.1386946299
H   H82       1.0  0.41040  0.70330  0.01330  1.0000 0.1386946299
H   H83       1.0  0.19000  0.39710  0.48670  1.0000 0.1386946299
H   H84       1.0  0.08960  0.10290  0.29290  1.0000 0.1386946299
H   H85       1.0  0.79290  0.69000  0.20330  1.0000 0.1386946299
H   H86       1.0  0.20330  0.79290  0.69000  1.0000 0.1386946299
H   H87       1.0  0.69000  0.20330  0.79290  1.0000 0.1386946299
H   H88       1.0  0.98670  0.58960  0.29670  1.0000 0.1386946299
H   H89       1.0  0.51330  0.81000  0.60290  1.0000 0.1386946299
H   H90       1.0  0.70710  0.91040  0.89710  1.0000 0.1386946299
H   H91       1.0  0.29670  0.98670  0.58960  1.0000 0.1386946299
H   H92       1.0  0.60290  0.51330  0.81000  1.0000 0.1386946299
H   H93       1.0  0.89710  0.70710  0.91040  1.0000 0.1386946299
H   H94       1.0  0.58960  0.29670  0.98670  1.0000 0.1386946299
H   H95       1.0  0.81000  0.60290  0.51330  1.0000 0.1386946299
H   H96       1.0  0.91040  0.89710  0.70710  1.0000 0.1386946299
H   H97       1.0  0.32060  0.37480  0.90980  1.0000 0.0951156493
H   H98       1.0  0.90980  0.32060  0.37480  1.0000 0.0951156493
H   H99       1.0  0.37480  0.90980  0.32060  1.0000 0.0951156493
H   H100      1.0  0.96500  0.41080  0.59020  1.0000 0.0951156493
H   H101      1.0  0.53500  0.12520  0.44580  1.0000 0.0951156493
H   H102      1.0  0.17940  0.08920  0.05420  1.0000 0.0951156493
H   H103      1.0  0.59020  0.96500  0.41080  1.0000 0.0951156493
H   H104      1.0  0.44580  0.53500  0.12520  1.0000 0.0951156493
H   H105      1.0  0.05420  0.17940  0.08920  1.0000 0.0951156493
H   H106      1.0  0.41080  0.59020  0.96500  1.0000 0.0951156493
H   H107      1.0  0.12520  0.44580  0.53500  1.0000 0.0951156493
H   H108      1.0  0.08920  0.05420  0.17940  1.0000 0.0951156493
H   H109      1.0  0.67940  0.62520  0.09020  1.0000 0.0951156493
H   H110      1.0  0.09020  0.67940  0.62520  1.0000 0.0951156493
H   H111      1.0  0.62520  0.09020  0.67940  1.0000 0.0951156493
H   H112      1.0  0.03500  0.58920  0.40980  1.0000 0.0951156493
H   H113      1.0  0.46500  0.87480  0.55420  1.0000 0.0951156493
H   H114      1.0  0.82060  0.91080  0.94580  1.0000 0.0951156493
H   H115      1.0  0.40980  0.03500  0.58920  1.0000 0.0951156493
H   H116      1.0  0.55420  0.46500  0.87480  1.0000 0.0951156493
H   H117      1.0  0.94580  0.82060  0.91080  1.0000 0.0951156493
H   H118      1.0  0.58920  0.40980  0.03500  1.0000 0.0951156493
H   H119      1.0  0.87480  0.55420  0.46500  1.0000 0.0951156493
H   H120      1.0  0.91080  0.94580  0.82060  1.0000 0.0951156493
H   H121      1.0  0.02750  0.29390  0.62720  1.0000 0.1121411717
H   H122      1.0  0.62720  0.02750  0.29390  1.0000 0.1121411717
H   H123      1.0  0.29390  0.62720  0.02750  1.0000 0.1121411717
H   H124      1.0  0.16670  0.40030  0.87280  1.0000 0.1121411717
H   H125      1.0  0.33333  0.20610  0.23360  1.0000 0.1121411717
H   H126      1.0  0.47250  0.09970  0.26640  1.0000 0.1121411717
H   H127      1.0  0.87280  0.16670  0.40030  1.0000 0.1121411717
H   H128      1.0  0.23360  0.33333  0.20610  1.0000 0.1121411717
H   H129      1.0  0.26640  0.47250  0.09970  1.0000 0.1121411717
H   H130      1.0  0.40030  0.87280  0.16670  1.0000 0.1121411717
H   H131      1.0  0.20610  0.23360  0.33333  1.0000 0.1121411717
H   H132      1.0  0.09970  0.26640  0.47250  1.0000 0.1121411717
H   H133      1.0  0.97250  0.70610  0.37280  1.0000 0.1121411717
H   H134      1.0  0.37280  0.97250  0.70610  1.0000 0.1121411717
H   H135      1.0  0.70610  0.37280  0.97250  1.0000 0.1121411717
H   H136      1.0  0.83330  0.59970  0.12720  1.0000 0.1121411717
H   H137      1.0  0.66667  0.79390  0.76640  1.0000 0.1121411717
H   H138      1.0  0.52750  0.90030  0.73360  1.0000 0.1121411717
H   H139      1.0  0.12720  0.83330  0.59970  1.0000 0.1121411717
H   H140      1.0  0.76640  0.66667  0.79390  1.0000 0.1121411717
H   H141      1.0  0.73360  0.52750  0.90030  1.0000 0.1121411717
H   H142      1.0  0.59970  0.12720  0.83330  1.0000 0.1121411717
H   H143      1.0  0.79390  0.76640  0.66667  1.0000 0.1121411717
H   H144      1.0  0.90030  0.73360  0.52750  1.0000 0.1121411717
C   C1        1.0  0.37661  0.46668  0.83353  1.0000 0.0625837525
C   C2        1.0  0.83353  0.37661  0.46668  1.0000 0.0625837525
C   C3        1.0  0.46668  0.83353  0.37661  1.0000 0.0625837525
C   C4        1.0  0.13315  0.54308  0.66647  1.0000 0.0625837525
C   C5        1.0  0.36685  0.03332  0.40993  1.0000 0.0625837525
C   C6        1.0  0.12339  0.95692  0.09007  1.0000 0.0625837525
C   C7        1.0  0.66647  0.13315  0.54308  1.0000 0.0625837525
C   C8        1.0  0.40993  0.36685  0.03332  1.0000 0.0625837525
C   C9        1.0  0.09007  0.12339  0.95692  1.0000 0.0625837525
C   C10       1.0  0.54308  0.66647  0.13315  1.0000 0.0625837525
C   C11       1.0  0.03332  0.40993  0.36685  1.0000 0.0625837525
C   C12       1.0  0.95692  0.09007  0.12339  1.0000 0.0625837525
C   C13       1.0  0.62339  0.53332  0.16647  1.0000 0.0625837525
C   C14       1.0  0.16647  0.62339  0.53332  1.0000 0.0625837525
C   C15       1.0  0.53332  0.16647  0.62339  1.0000 0.0625837525
C   C16       1.0  0.86685  0.45692  0.33353  1.0000 0.0625837525
C   C17       1.0  0.63315  0.96668  0.59007  1.0000 0.0625837525
C   C18       1.0  0.87661  0.04308  0.90993  1.0000 0.0625837525
C   C19       1.0  0.33353  0.86685  0.45692  1.0000 0.0625837525
C   C20       1.0  0.59007  0.63315  0.96668  1.0000 0.0625837525
C   C21       1.0  0.90993  0.87661  0.04308  1.0000 0.0625837525
C   C22       1.0  0.45692  0.33353  0.86685  1.0000 0.0625837525
C   C23       1.0  0.96668  0.59007  0.63315  1.0000 0.0625837525
C   C24       1.0  0.04308  0.90993  0.87661  1.0000 0.0625837525
C   C25       1.0  0.31098  0.43178  0.76460  1.0000 -0.2372708611
C   C26       1.0  0.76460  0.31098  0.43178  1.0000 -0.2372708611
C   C27       1.0  0.43178  0.76460  0.31098  1.0000 -0.2372708611
C   C28       1.0  0.16718  0.54638  0.73540  1.0000 -0.2372708611
C   C29       1.0  0.33282  0.06822  0.37920  1.0000 -0.2372708611
C   C30       1.0  0.18902  0.95362  0.12080  1.0000 -0.2372708611
C   C31       1.0  0.73540  0.16718  0.54638  1.0000 -0.2372708611
C   C32       1.0  0.37920  0.33282  0.06822  1.0000 -0.2372708611
C   C33       1.0  0.12080  0.18902  0.95362  1.0000 -0.2372708611
C   C34       1.0  0.54638  0.73540  0.16718  1.0000 -0.2372708611
C   C35       1.0  0.06822  0.37920  0.33282  1.0000 -0.2372708611
C   C36       1.0  0.95362  0.12080  0.18902  1.0000 -0.2372708611
C   C37       1.0  0.68902  0.56822  0.23540  1.0000 -0.2372708611
C   C38       1.0  0.23540  0.68902  0.56822  1.0000 -0.2372708611
C   C39       1.0  0.56822  0.23540  0.68902  1.0000 -0.2372708611
C   C40       1.0  0.83282  0.45362  0.26460  1.0000 -0.2372708611
C   C41       1.0  0.66718  0.93178  0.62080  1.0000 -0.2372708611
C   C42       1.0  0.81098  0.04638  0.87920  1.0000 -0.2372708611
C   C43       1.0  0.26460  0.83282  0.45362  1.0000 -0.2372708611
C   C44       1.0  0.62080  0.66718  0.93178  1.0000 -0.2372708611
C   C45       1.0  0.87920  0.81098  0.04638  1.0000 -0.2372708611
C   C46       1.0  0.45362  0.26460  0.83282  1.0000 -0.2372708611
C   C47       1.0  0.93178  0.62080  0.66718  1.0000 -0.2372708611
C   C48       1.0  0.04638  0.87920  0.81098  1.0000 -0.2372708611
C   C49       1.0  0.24556  0.37197  0.74991  1.0000 0.2606899908
C   C50       1.0  0.74991  0.24556  0.37197  1.0000 0.2606899908
C   C51       1.0  0.37197  0.74991  0.24556  1.0000 0.2606899908
C   C52       1.0  0.12206  0.49565  0.75009  1.0000 0.2606899908
C   C53       1.0  0.37794  0.12803  0.37359  1.0000 0.2606899908
C   C54       1.0  0.25444  0.00435  0.12641  1.0000 0.2606899908
C   C55       1.0  0.75009  0.12206  0.49565  1.0000 0.2606899908
C   C56       1.0  0.37359  0.37794  0.12803  1.0000 0.2606899908
C   C57       1.0  0.12641  0.25444  0.00435  1.0000 0.2606899908
C   C58       1.0  0.49565  0.75009  0.12206  1.0000 0.2606899908
C   C59       1.0  0.12803  0.37359  0.37794  1.0000 0.2606899908
C   C60       1.0  0.00435  0.12641  0.25444  1.0000 0.2606899908
C   C61       1.0  0.75444  0.62803  0.25009  1.0000 0.2606899908
C   C62       1.0  0.25009  0.75444  0.62803  1.0000 0.2606899908
C   C63       1.0  0.62803  0.25009  0.75444  1.0000 0.2606899908
C   C64       1.0  0.87794  0.50435  0.24991  1.0000 0.2606899908
C   C65       1.0  0.62206  0.87197  0.62641  1.0000 0.2606899908
C   C66       1.0  0.74556  0.99565  0.87359  1.0000 0.2606899908
C   C67       1.0  0.24991  0.87794  0.50435  1.0000 0.2606899908
C   C68       1.0  0.62641  0.62206  0.87197  1.0000 0.2606899908
C   C69       1.0  0.87359  0.74556  0.99565  1.0000 0.2606899908
C   C70       1.0  0.50435  0.24991  0.87794  1.0000 0.2606899908
C   C71       1.0  0.87197  0.62641  0.62206  1.0000 0.2606899908
C   C72       1.0  0.99565  0.87359  0.74556  1.0000 0.2606899908
C   C73       1.0  0.25101  0.35131  0.80550  1.0000 -0.2611314944
C   C74       1.0  0.80550  0.25101  0.35131  1.0000 -0.2611314944
C   C75       1.0  0.35131  0.80550  0.25101  1.0000 -0.2611314944
C   C76       1.0  0.04581  0.44551  0.69450  1.0000 -0.2611314944
C   C77       1.0  0.45419  0.14869  0.39970  1.0000 -0.2611314944
C   C78       1.0  0.24899  0.05449  0.10030  1.0000 -0.2611314944
C   C79       1.0  0.69450  0.04581  0.44551  1.0000 -0.2611314944
C   C80       1.0  0.39970  0.45419  0.14869  1.0000 -0.2611314944
C   C81       1.0  0.10030  0.24899  0.05449  1.0000 -0.2611314944
C   C82       1.0  0.44551  0.69450  0.04581  1.0000 -0.2611314944
C   C83       1.0  0.14869  0.39970  0.45419  1.0000 -0.2611314944
C   C84       1.0  0.05449  0.10030  0.24899  1.0000 -0.2611314944
C   C85       1.0  0.74899  0.64869  0.19450  1.0000 -0.2611314944
C   C86       1.0  0.19450  0.74899  0.64869  1.0000 -0.2611314944
C   C87       1.0  0.64869  0.19450  0.74899  1.0000 -0.2611314944
C   C88       1.0  0.95419  0.55449  0.30550  1.0000 -0.2611314944
C   C89       1.0  0.54581  0.85131  0.60030  1.0000 -0.2611314944
C   C90       1.0  0.75101  0.94551  0.89970  1.0000 -0.2611314944
C   C91       1.0  0.30550  0.95419  0.55449  1.0000 -0.2611314944
C   C92       1.0  0.60030  0.54581  0.85131  1.0000 -0.2611314944
C   C93       1.0  0.89970  0.75101  0.94551  1.0000 -0.2611314944
C   C94       1.0  0.55449  0.30550  0.95419  1.0000 -0.2611314944
C   C95       1.0  0.85131  0.60030  0.54581  1.0000 -0.2611314944
C   C96       1.0  0.94551  0.89970  0.75101  1.0000 -0.2611314944
C   C97       1.0  0.31930  0.39041  0.87249  1.0000 0.0625837525
C   C98       1.0  0.87249  0.31930  0.39041  1.0000 0.0625837525
C   C99       1.0  0.39041  0.87249  0.31930  1.0000 0.0625837525
C   C100      1.0  0.01792  0.44681  0.62751  1.0000 0.0625837525
C   C101      1.0  0.48208  0.10959  0.42889  1.0000 0.0625837525
C   C102      1.0  0.18070  0.05319  0.07111  1.0000 0.0625837525
C   C103      1.0  0.62751  0.01792  0.44681  1.0000 0.0625837525
C   C104      1.0  0.42889  0.48208  0.10959  1.0000 0.0625837525
C   C105      1.0  0.07111  0.18070  0.05319  1.0000 0.0625837525
C   C106      1.0  0.44681  0.62751  0.01792  1.0000 0.0625837525
C   C107      1.0  0.10959  0.42889  0.48208  1.0000 0.0625837525
C   C108      1.0  0.05319  0.07111  0.18070  1.0000 0.0625837525
C   C109      1.0  0.68070  0.60959  0.12751  1.0000 0.0625837525
C   C110      1.0  0.12751  0.68070  0.60959  1.0000 0.0625837525
C   C111      1.0  0.60959  0.12751  0.68070  1.0000 0.0625837525
C   C112      1.0  0.98208  0.55319  0.37249  1.0000 0.0625837525
C   C113      1.0  0.51792  0.89041  0.57111  1.0000 0.0625837525
C   C114      1.0  0.81930  0.94681  0.92889  1.0000 0.0625837525
C   C115      1.0  0.37249  0.98208  0.55319  1.0000 0.0625837525
C   C116      1.0  0.57111  0.51792  0.89041  1.0000 0.0625837525
C   C117      1.0  0.92889  0.81930  0.94681  1.0000 0.0625837525
C   C118      1.0  0.55319  0.37249  0.98208  1.0000 0.0625837525
C   C119      1.0  0.89041  0.57111  0.51792  1.0000 0.0625837525
C   C120      1.0  0.94681  0.92889  0.81930  1.0000 0.0625837525
C   C121      1.0  0.15678  0.33991  0.62107  1.0000 0.4445059998
C   C122      1.0  0.62107  0.15678  0.33991  1.0000 0.4445059998
C   C123      1.0  0.33991  0.62107  0.15678  1.0000 0.4445059998
C   C124      1.0  0.21884  0.53571  0.87893  1.0000 0.4453278788
C   C125      1.0  0.28116  0.16009  0.31687  1.0000 0.4445059998
C   C126      1.0  0.34322  0.96429  0.18313  1.0000 0.4445059998
C   C127      1.0  0.87893  0.21884  0.53571  1.0000 0.4445059998
C   C128      1.0  0.31687  0.28116  0.16009  1.0000 0.4445059998
C   C129      1.0  0.18313  0.34322  0.96429  1.0000 0.4453278788
C   C130      1.0  0.53571  0.87893  0.21884  1.0000 0.4445059998
C   C131      1.0  0.16009  0.31687  0.28116  1.0000 0.4445059998
C   C132      1.0  0.96429  0.18313  0.34322  1.0000 0.4445059998
C   C133      1.0  0.84322  0.66009  0.37893  1.0000 0.4445059998
C   C134      1.0  0.37893  0.84322  0.66009  1.0000 0.4445059998
C   C135      1.0  0.66009  0.37893  0.84322  1.0000 0.4453278788
C   C136      1.0  0.78116  0.46429  0.12107  1.0000 0.4445059998
C   C137      1.0  0.71884  0.83991  0.68313  1.0000 0.4445059998
C   C138      1.0  0.65678  0.03571  0.81687  1.0000 0.4445059998
C   C139      1.0  0.12107  0.78116  0.46429  1.0000 0.4445059998
C   C140      1.0  0.68313  0.71884  0.83991  1.0000 0.4445059998
C   C141      1.0  0.81687  0.65678  0.03571  1.0000 0.4445059998
C   C142      1.0  0.46429  0.12107  0.78116  1.0000 0.4445059998
C   C143      1.0  0.83991  0.68313  0.71884  1.0000 0.4453278788
C   C144      1.0  0.03571  0.81687  0.65678  1.0000 0.4453278788
C   C145      1.0  0.07494  0.28738  0.55882  1.0000 -0.0116388075
C   C146      1.0  0.55882  0.07494  0.28738  1.0000 -0.0116388075
C   C147      1.0  0.28738  0.55882  0.07494  1.0000 -0.0116388075
C   C148      1.0  0.22856  0.51612  0.94118  1.0000 -0.0116388075
C   C149      1.0  0.27144  0.21262  0.28756  1.0000 -0.0116388075
C   C150      1.0  0.42506  0.98388  0.21244  1.0000 -0.0116388075
C   C151      1.0  0.94118  0.22856  0.51612  1.0000 -0.0116388075
C   C152      1.0  0.28756  0.27144  0.21262  1.0000 -0.0116388075
C   C153      1.0  0.21244  0.42506  0.98388  1.0000 -0.0116388075
C   C154      1.0  0.51612  0.94118  0.22856  1.0000 -0.0116388075
C   C155      1.0  0.21262  0.28756  0.27144  1.0000 -0.0116388075
C   C156      1.0  0.98388  0.21244  0.42506  1.0000 -0.0116388075
C   C157      1.0  0.92506  0.71262  0.44118  1.0000 -0.0116388075
C   C158      1.0  0.44118  0.92506  0.71262  1.0000 -0.0116388075
C   C159      1.0  0.71262  0.44118  0.92506  1.0000 -0.0116388075
C   C160      1.0  0.77144  0.48388  0.05882  1.0000 -0.0116388075
C   C161      1.0  0.72856  0.78738  0.71244  1.0000 -0.0116388075
C   C162      1.0  0.57494  0.01612  0.78756  1.0000 -0.0116388075
C   C163      1.0  0.05882  0.77144  0.48388  1.0000 -0.0116388075
C   C164      1.0  0.71244  0.72856  0.78738  1.0000 -0.0116388075
C   C165      1.0  0.78756  0.57494  0.01612  1.0000 -0.0116388075
C   C166      1.0  0.48388  0.05882  0.77144  1.0000 -0.0116388075
C   C167      1.0  0.78738  0.71244  0.72856  1.0000 -0.0116388075
C   C168      1.0  0.01612  0.78756  0.57494  1.0000 -0.0116388075
C   C169      1.0  0.01621  0.27324  0.57507  1.0000 -0.1674952797
C   C170      1.0  0.57507  0.01621  0.27324  1.0000 -0.1674952797
C   C171      1.0  0.27324  0.57507  0.01621  1.0000 -0.1674952797
C   C172      1.0  0.19817  0.44114  0.92493  1.0000 -0.1674952797
C   C173      1.0  0.30183  0.22676  0.24297  1.0000 -0.1674952797
C   C174      1.0  0.48379  0.05886  0.25703  1.0000 -0.1674952797
C   C175      1.0  0.92493  0.19817  0.44114  1.0000 -0.1674952797
C   C176      1.0  0.24297  0.30183  0.22676  1.0000 -0.1674952797
C   C177      1.0  0.25703  0.48379  0.05886  1.0000 -0.1674952797
C   C178      1.0  0.44114  0.92493  0.19817  1.0000 -0.1674952797
C   C179      1.0  0.22676  0.24297  0.30183  1.0000 -0.1674952797
C   C180      1.0  0.05886  0.25703  0.48379  1.0000 -0.1674952797
C   C181      1.0  0.98379  0.72676  0.42493  1.0000 -0.1674952797
C   C182      1.0  0.42493  0.98379  0.72676  1.0000 -0.1674952797
C   C183      1.0  0.72676  0.42493  0.98379  1.0000 -0.1674952797
C   C184      1.0  0.80183  0.55886  0.07507  1.0000 -0.1674952797
C   C185      1.0  0.69817  0.77324  0.75703  1.0000 -0.1674952797
C   C186      1.0  0.51621  0.94114  0.74297  1.0000 -0.1674952797
C   C187      1.0  0.07507  0.80183  0.55886  1.0000 -0.1674952797
C   C188      1.0  0.75703  0.69817  0.77324  1.0000 -0.1674952797
C   C189      1.0  0.74297  0.51621  0.94114  1.0000 -0.1674952797
C   C190      1.0  0.55886  0.07507  0.80183  1.0000 -0.1674952797
C   C191      1.0  0.77324  0.75703  0.69817  1.0000 -0.1674952797
C   C192      1.0  0.94114  0.74297  0.51621  1.0000 -0.1674952797
N   N1        1.0  0.38298  0.44764  0.88736  1.0000 -0.2611314944
N   N2        1.0  0.88736  0.38298  0.44764  1.0000 -0.2651413373
N   N3        1.0  0.44764  0.88736  0.38298  1.0000 -0.2651413373
N   N4        1.0  0.06028  0.49562  0.61264  1.0000 -0.2611314944
N   N5        1.0  0.43972  0.05236  0.43534  1.0000 -0.2651413373
N   N6        1.0  0.11702  0.00438  0.06466  1.0000 -0.2611314944
N   N7        1.0  0.61264  0.06028  0.49562  1.0000 -0.2611314944
N   N8        1.0  0.43534  0.43972  0.05236  1.0000 -0.2651413373
N   N9        1.0  0.06466  0.11702  0.00438  1.0000 -0.2651413373
N   N10       1.0  0.49562  0.61264  0.06028  1.0000 -0.2651413373
N   N11       1.0  0.05236  0.43534  0.43972  1.0000 -0.2611314944
N   N12       1.0  0.00438  0.06466  0.11702  1.0000 -0.2611314944
N   N13       1.0  0.61702  0.55236  0.11264  1.0000 -0.2651413373
N   N14       1.0  0.11264  0.61702  0.55236  1.0000 -0.2651413373
N   N15       1.0  0.55236  0.11264  0.61702  1.0000 -0.2611314944
N   N16       1.0  0.93972  0.50438  0.38736  1.0000 -0.2611314944
N   N17       1.0  0.56028  0.94764  0.56466  1.0000 -0.2651413373
N   N18       1.0  0.88298  0.99562  0.93534  1.0000 -0.2611314944
N   N19       1.0  0.38736  0.93972  0.50438  1.0000 -0.2651413373
N   N20       1.0  0.56466  0.56028  0.94764  1.0000 -0.2651413373
N   N21       1.0  0.93534  0.88298  0.99562  1.0000 -0.2611314944
N   N22       1.0  0.50438  0.38736  0.93972  1.0000 -0.2611314944
N   N23       1.0  0.94764  0.56466  0.56028  1.0000 -0.2651413373
N   N24       1.0  0.99562  0.93534  0.88298  1.0000 -0.2651413373
N   N25       1.0  0.17545  0.33033  0.68250  1.0000 -0.37900374
N   N26       1.0  0.68250  0.17545  0.33033  1.0000 -0.37900374
N   N27       1.0  0.33033  0.68250  0.17545  1.0000 -0.37900374
N   N28       1.0  0.14783  0.49295  0.81750  1.0000 -0.37900374
N   N29       1.0  0.35217  0.16967  0.34512  1.0000 -0.37900374
N   N30       1.0  0.32455  0.00705  0.15488  1.0000 -0.37900374
N   N31       1.0  0.81750  0.14783  0.49295  1.0000 -0.37900374
N   N32       1.0  0.34512  0.35217  0.16967  1.0000 -0.37900374
N   N33       1.0  0.15488  0.32455  0.00705  1.0000 -0.37900374
N   N34       1.0  0.49295  0.81750  0.14783  1.0000 -0.37900374
N   N35       1.0  0.16967  0.34512  0.35217  1.0000 -0.37900374
N   N36       1.0  0.00705  0.15488  0.32455  1.0000 -0.37900374
N   N37       1.0  0.82455  0.66967  0.31750  1.0000 -0.37900374
N   N38       1.0  0.31750  0.82455  0.66967  1.0000 -0.37900374
N   N39       1.0  0.66967  0.31750  0.82455  1.0000 -0.37900374
N   N40       1.0  0.85217  0.50705  0.18250  1.0000 -0.37900374
N   N41       1.0  0.64783  0.83033  0.65488  1.0000 -0.37900374
N   N42       1.0  0.67545  0.99295  0.84512  1.0000 -0.37900374
N   N43       1.0  0.18250  0.85217  0.50705  1.0000 -0.37900374
N   N44       1.0  0.65488  0.64783  0.83033  1.0000 -0.37900374
N   N45       1.0  0.84512  0.67545  0.99295  1.0000 -0.37900374
N   N46       1.0  0.50705  0.18250  0.85217  1.0000 -0.37900374
N   N47       1.0  0.83033  0.65488  0.64783  1.0000 -0.37900374
N   N48       1.0  0.99295  0.84512  0.67545  1.0000 -0.37900374
O   O1        1.0  0.20147  0.38691  0.61456  1.0000 -0.4717571243
O   O2        1.0  0.61456  0.20147  0.38691  1.0000 -0.4717571243
O   O3        1.0  0.38691  0.61456  0.20147  1.0000 -0.4717571243
O   O4        1.0  0.27235  0.58691  0.88544  1.0000 -0.4717571243
O   O5        1.0  0.22765  0.11309  0.31456  1.0000 -0.4717571243
O   O6        1.0  0.29853  0.91309  0.18544  1.0000 -0.4717571243
O   O7        1.0  0.88544  0.27235  0.58691  1.0000 -0.4717571243
O   O8        1.0  0.31456  0.22765  0.11309  1.0000 -0.4717571243
O   O9        1.0  0.18544  0.29853  0.91309  1.0000 -0.4717571243
O   O10       1.0  0.58691  0.88544  0.27235  1.0000 -0.4717571243
O   O11       1.0  0.11309  0.31456  0.22765  1.0000 -0.4717571243
O   O12       1.0  0.91309  0.18544  0.29853  1.0000 -0.4717571243
O   O13       1.0  0.79853  0.61309  0.38544  1.0000 -0.4717571243
O   O14       1.0  0.38544  0.79853  0.61309  1.0000 -0.4717571243
O   O15       1.0  0.61309  0.38544  0.79853  1.0000 -0.4717571243
O   O16       1.0  0.72765  0.41309  0.11456  1.0000 -0.4717571243
O   O17       1.0  0.77235  0.88691  0.68544  1.0000 -0.4717571243
O   O18       1.0  0.70147  0.08691  0.81456  1.0000 -0.4717571243
O   O19       1.0  0.11456  0.72765  0.41309  1.0000 -0.4717571243
O   O20       1.0  0.68544  0.77235  0.88691  1.0000 -0.4717571243
O   O21       1.0  0.81456  0.70147  0.08691  1.0000 -0.4717571243
O   O22       1.0  0.41309  0.11456  0.72765  1.0000 -0.4717571243
O   O23       1.0  0.88691  0.68544  0.77235  1.0000 -0.4717571243
O   O24       1.0  0.08691  0.81456  0.70147  1.0000 -0.4717571243
