# DDEC6 charges by PACMAN v1.1 (https://github.com/mtap-research/PACMAN-charge/)
data_2009[Cd][nan]3[ASR]3
_chemical_formula_sum              "Cd8 H56 C96 N16 O32"
_cell_length_a       13.0913
_cell_length_b       13.2087
_cell_length_c       26.916
_cell_angle_alpha    90
_cell_angle_beta     90
_cell_angle_gamma    90

_symmetry_space_group_name_H-M    "P 1"
_symmetry_Int_Tables_number       1

loop_
  _symmetry_equiv_pos_as_xyz
  'x, y, z'

loop_
  _atom_site_type_symbol
  _atom_site_label
  _atom_site_symmetry_multiplicity
  _atom_site_fract_x
  _atom_site_fract_y
  _atom_site_fract_z
  _atom_site_occupancy
  _atom_site_charge
Cd  Cd1       1.0  0.80519  0.80353  0.17088  1.0000 0.8233778551
Cd  Cd2       1.0  0.19481  0.69647  0.67087  1.0000 0.8233778551
Cd  Cd3       1.0  0.30519  0.19647  0.32913  1.0000 0.8233778551
Cd  Cd4       1.0  0.69481  0.30353  0.82913  1.0000 0.8233778551
Cd  Cd5       1.0  0.19481  0.19647  0.82913  1.0000 0.8233778551
Cd  Cd6       1.0  0.80519  0.30353  0.32913  1.0000 0.8233778551
Cd  Cd7       1.0  0.69481  0.80353  0.67087  1.0000 0.8233778551
Cd  Cd8       1.0  0.30519  0.69647  0.17088  1.0000 0.8233778551
H   H1        1.0  0.82280  0.99670  0.24399  1.0000 0.1068672686
H   H2        1.0  0.17720  0.50330  0.74400  1.0000 0.1068672686
H   H3        1.0  0.32280  0.00330  0.25600  1.0000 0.1068672686
H   H4        1.0  0.67720  0.49670  0.75601  1.0000 0.1068672686
H   H5        1.0  0.17720  0.00330  0.75601  1.0000 0.1068672686
H   H6        1.0  0.82280  0.49670  0.25600  1.0000 0.1068672686
H   H7        1.0  0.67720  0.99670  0.74400  1.0000 0.1068672686
H   H8        1.0  0.32280  0.50330  0.24399  1.0000 0.1068672686
H   H9        1.0  0.04180  0.81210  0.20780  1.0000 0.1068672686
H   H10       1.0  0.95820  0.68790  0.70779  1.0000 0.1068672686
H   H11       1.0  0.54180  0.18790  0.29220  1.0000 0.1068672686
H   H12       1.0  0.45820  0.31210  0.79221  1.0000 0.1068672686
H   H13       1.0  0.95820  0.18790  0.79221  1.0000 0.1068672686
H   H14       1.0  0.04180  0.31210  0.29220  1.0000 0.1068672686
H   H15       1.0  0.45820  0.81210  0.70779  1.0000 0.1068672686
H   H16       1.0  0.54180  0.68790  0.20780  1.0000 0.1068672686
H   H17       1.0  0.65850  0.09170  0.24869  1.0000 0.1400986992
H   H18       1.0  0.34150  0.40830  0.74870  1.0000 0.1400986992
H   H19       1.0  0.15850  0.90830  0.25131  1.0000 0.1400986992
H   H20       1.0  0.84150  0.59170  0.75131  1.0000 0.1400986992
H   H21       1.0  0.34150  0.90830  0.75131  1.0000 0.1400986992
H   H22       1.0  0.65850  0.59170  0.25131  1.0000 0.1400986992
H   H23       1.0  0.84150  0.09170  0.74870  1.0000 0.1400986992
H   H24       1.0  0.15850  0.40830  0.24869  1.0000 0.1400986992
H   H25       1.0  0.80160  0.00270  0.10529  1.0000 0.1240459232
H   H26       1.0  0.19840  0.49730  0.60530  1.0000 0.1240459232
H   H27       1.0  0.30160  0.99730  0.39470  1.0000 0.1240459232
H   H28       1.0  0.69840  0.50270  0.89471  1.0000 0.1240459232
H   H29       1.0  0.19840  0.99730  0.89471  1.0000 0.1240459232
H   H30       1.0  0.80160  0.50270  0.39470  1.0000 0.1240459232
H   H31       1.0  0.69840  0.00270  0.60530  1.0000 0.1240459232
H   H32       1.0  0.30160  0.49730  0.10529  1.0000 0.1240459232
H   H33       1.0  0.87920  0.08460  0.03959  1.0000 0.1293047218
H   H34       1.0  0.12080  0.41540  0.53960  1.0000 0.1293047218
H   H35       1.0  0.37920  0.91540  0.46041  1.0000 0.1293047218
H   H36       1.0  0.62080  0.58460  0.96040  1.0000 0.1293047218
H   H37       1.0  0.12080  0.91540  0.96040  1.0000 0.1293047218
H   H38       1.0  0.87920  0.58460  0.46041  1.0000 0.1293047218
H   H39       1.0  0.62080  0.08460  0.53960  1.0000 0.1293047218
H   H40       1.0  0.37920  0.41540  0.03959  1.0000 0.1293047218
H   H41       1.0  0.06460  0.85460  0.02639  1.0000 0.1400986992
H   H42       1.0  0.93540  0.64540  0.52639  1.0000 0.1400986992
H   H43       1.0  0.56460  0.14540  0.47360  1.0000 0.1400986992
H   H44       1.0  0.43540  0.35460  0.97361  1.0000 0.1400986992
H   H45       1.0  0.93540  0.14540  0.97361  1.0000 0.1400986992
H   H46       1.0  0.06460  0.35460  0.47360  1.0000 0.1400986992
H   H47       1.0  0.43540  0.85460  0.52639  1.0000 0.1400986992
H   H48       1.0  0.56460  0.64540  0.02639  1.0000 0.1400986992
H   H49       1.0  0.99180  0.78630  0.09420  1.0000 0.1240459232
H   H50       1.0  0.00820  0.71370  0.59420  1.0000 0.1240459232
H   H51       1.0  0.49180  0.21370  0.40581  1.0000 0.1240459232
H   H52       1.0  0.50820  0.28630  0.90580  1.0000 0.1240459232
H   H53       1.0  0.00820  0.21370  0.90580  1.0000 0.1240459232
H   H54       1.0  0.99180  0.28630  0.40581  1.0000 0.1240459232
H   H55       1.0  0.50820  0.78630  0.59420  1.0000 0.1240459232
H   H56       1.0  0.49180  0.71370  0.09420  1.0000 0.1240459232
C   C1        1.0  0.64000  0.92300  0.20000  1.0000 0.5490632093
C   C2        1.0  0.36000  0.57700  0.70000  1.0000 0.5490632093
C   C3        1.0  0.14000  0.07700  0.30001  1.0000 0.5490632093
C   C4        1.0  0.86000  0.42300  0.80000  1.0000 0.5490632093
C   C5        1.0  0.36000  0.07700  0.80000  1.0000 0.5490632093
C   C6        1.0  0.64000  0.42300  0.30001  1.0000 0.5490632093
C   C7        1.0  0.86000  0.92300  0.70000  1.0000 0.5490632093
C   C8        1.0  0.14000  0.57700  0.20000  1.0000 0.5490632093
C   C9        1.0  0.55890  0.98700  0.22349  1.0000 0.0305759011
C   C10       1.0  0.44110  0.51300  0.72350  1.0000 0.0305759011
C   C11       1.0  0.05890  0.01300  0.27651  1.0000 0.0305759011
C   C12       1.0  0.94110  0.48700  0.77651  1.0000 0.0305759011
C   C13       1.0  0.44110  0.01300  0.77651  1.0000 0.0305759011
C   C14       1.0  0.55890  0.48700  0.27651  1.0000 0.0305759011
C   C15       1.0  0.94110  0.98700  0.72350  1.0000 0.0305759011
C   C16       1.0  0.05890  0.51300  0.22349  1.0000 0.0305759011
C   C17       1.0  0.45530  0.96100  0.22590  1.0000 -0.0787136854
C   C18       1.0  0.54470  0.53900  0.72589  1.0000 -0.0787136854
C   C19       1.0  0.95530  0.03900  0.27410  1.0000 -0.0787136854
C   C20       1.0  0.04470  0.46100  0.77411  1.0000 -0.0787136854
C   C21       1.0  0.54470  0.03900  0.77411  1.0000 -0.0787136854
C   C22       1.0  0.45530  0.46100  0.27410  1.0000 -0.0787136854
C   C23       1.0  0.04470  0.96100  0.72589  1.0000 -0.0787136854
C   C24       1.0  0.95530  0.53900  0.22590  1.0000 -0.0787136854
C   C25       1.0  0.41090  0.87020  0.20009  1.0000 0.5490632093
C   C26       1.0  0.58910  0.62980  0.70010  1.0000 0.5490632093
C   C27       1.0  0.91090  0.12980  0.29990  1.0000 0.5490632093
C   C28       1.0  0.08910  0.37020  0.79991  1.0000 0.5490632093
C   C29       1.0  0.58910  0.12980  0.79991  1.0000 0.5490632093
C   C30       1.0  0.41090  0.37020  0.29990  1.0000 0.5490632093
C   C31       1.0  0.08910  0.87020  0.70010  1.0000 0.5490632093
C   C32       1.0  0.91090  0.62980  0.20009  1.0000 0.5490632093
C   C33       1.0  0.89130  0.97840  0.24600  1.0000 0.0629972265
C   C34       1.0  0.10870  0.52160  0.74600  1.0000 0.0629972265
C   C35       1.0  0.39130  0.02160  0.25401  1.0000 0.0629972265
C   C36       1.0  0.60870  0.47840  0.75401  1.0000 0.0629972265
C   C37       1.0  0.10870  0.02160  0.75401  1.0000 0.0629972265
C   C38       1.0  0.89130  0.47840  0.25401  1.0000 0.0629972265
C   C39       1.0  0.60870  0.97840  0.74600  1.0000 0.0629972265
C   C40       1.0  0.39130  0.52160  0.24600  1.0000 0.0629972265
C   C41       1.0  0.01940  0.87000  0.22410  1.0000 0.0928184696
C   C42       1.0  0.98060  0.63000  0.72410  1.0000 0.0928184696
C   C43       1.0  0.51940  0.13000  0.27591  1.0000 0.0928184696
C   C44       1.0  0.48060  0.37000  0.77590  1.0000 0.0928184696
C   C45       1.0  0.98060  0.13000  0.77590  1.0000 0.0928184696
C   C46       1.0  0.01940  0.37000  0.27591  1.0000 0.0928184696
C   C47       1.0  0.48060  0.87000  0.72410  1.0000 0.0928184696
C   C48       1.0  0.51940  0.63000  0.22410  1.0000 0.0928184696
C   C49       1.0  0.59010  0.07260  0.24919  1.0000 -0.1493299605
C   C50       1.0  0.40990  0.42740  0.74920  1.0000 -0.1493299605
C   C51       1.0  0.09010  0.92740  0.25081  1.0000 -0.1493299605
C   C52       1.0  0.90990  0.57260  0.75080  1.0000 -0.1493299605
C   C53       1.0  0.40990  0.92740  0.75080  1.0000 -0.1493299605
C   C54       1.0  0.59010  0.57260  0.25081  1.0000 -0.1493299605
C   C55       1.0  0.90990  0.07260  0.74920  1.0000 -0.1493299605
C   C56       1.0  0.09010  0.42740  0.24919  1.0000 -0.1493299605
C   C57       1.0  0.85470  0.97060  0.08869  1.0000 0.0990697815
C   C58       1.0  0.14530  0.52940  0.58869  1.0000 0.0990697815
C   C59       1.0  0.35470  0.02940  0.41130  1.0000 0.0990697815
C   C60       1.0  0.64530  0.47060  0.91131  1.0000 0.0990697815
C   C61       1.0  0.14530  0.02940  0.91131  1.0000 0.0990697815
C   C62       1.0  0.85470  0.47060  0.41130  1.0000 0.0990697815
C   C63       1.0  0.64530  0.97060  0.58869  1.0000 0.0990697815
C   C64       1.0  0.35470  0.52940  0.08869  1.0000 0.0990697815
C   C65       1.0  0.90100  0.01990  0.04820  1.0000 -0.2190124841
C   C66       1.0  0.09900  0.48010  0.54820  1.0000 -0.2190124841
C   C67       1.0  0.40100  0.98010  0.45181  1.0000 -0.2190124841
C   C68       1.0  0.59900  0.51990  0.95181  1.0000 -0.2190124841
C   C69       1.0  0.09900  0.98010  0.95181  1.0000 -0.2190124841
C   C70       1.0  0.90100  0.51990  0.45181  1.0000 -0.2190124841
C   C71       1.0  0.59900  0.01990  0.54820  1.0000 -0.2190124841
C   C72       1.0  0.40100  0.48010  0.04820  1.0000 -0.2190124841
C   C73       1.0  0.97620  0.97600  0.02169  1.0000 0.1068672686
C   C74       1.0  0.02380  0.52400  0.52170  1.0000 0.0990697815
C   C75       1.0  0.47620  0.02400  0.47831  1.0000 0.1068672686
C   C76       1.0  0.52380  0.47600  0.97830  1.0000 0.0990697815
C   C77       1.0  0.02380  0.02400  0.97830  1.0000 0.0990697815
C   C78       1.0  0.97620  0.47600  0.47831  1.0000 0.1068672686
C   C79       1.0  0.52380  0.97600  0.52170  1.0000 0.1068672686
C   C80       1.0  0.47620  0.52400  0.02169  1.0000 0.1068672686
C   C81       1.0  0.00940  0.88740  0.04099  1.0000 -0.2296792745
C   C82       1.0  0.99060  0.61260  0.54100  1.0000 -0.2296792745
C   C83       1.0  0.50940  0.11260  0.45900  1.0000 -0.2296792745
C   C84       1.0  0.49060  0.38740  0.95900  1.0000 -0.2296792745
C   C85       1.0  0.99060  0.11260  0.95900  1.0000 -0.2296792745
C   C86       1.0  0.00940  0.38740  0.45900  1.0000 -0.2296792745
C   C87       1.0  0.49060  0.88740  0.54100  1.0000 -0.2296792745
C   C88       1.0  0.50940  0.61260  0.04099  1.0000 -0.2296792745
C   C89       1.0  0.96350  0.84540  0.08149  1.0000 0.0848954319
C   C90       1.0  0.03650  0.65460  0.58149  1.0000 0.0848954319
C   C91       1.0  0.46350  0.15460  0.41851  1.0000 0.0848954319
C   C92       1.0  0.53650  0.34540  0.91851  1.0000 0.0848954319
C   C93       1.0  0.03650  0.15460  0.91851  1.0000 0.0848954319
C   C94       1.0  0.96350  0.34540  0.41851  1.0000 0.0848954319
C   C95       1.0  0.53650  0.84540  0.58149  1.0000 0.0928184696
C   C96       1.0  0.46350  0.65460  0.08149  1.0000 0.0848954319
N   N1        1.0  0.92110  0.89490  0.22118  1.0000 -0.2395058349
N   N2        1.0  0.07890  0.60510  0.72118  1.0000 -0.2395058349
N   N3        1.0  0.42110  0.10510  0.27882  1.0000 -0.2395058349
N   N4        1.0  0.57890  0.39490  0.77882  1.0000 -0.2395058349
N   N5        1.0  0.07890  0.10510  0.77882  1.0000 -0.2395058349
N   N6        1.0  0.92110  0.39490  0.27882  1.0000 -0.2395058349
N   N7        1.0  0.57890  0.89490  0.72118  1.0000 -0.2395058349
N   N8        1.0  0.42110  0.60510  0.22118  1.0000 -0.2395058349
N   N9        1.0  0.88400  0.88110  0.10350  1.0000 -0.2296792745
N   N10       1.0  0.11600  0.61890  0.60350  1.0000 -0.2296792745
N   N11       1.0  0.38400  0.11890  0.39651  1.0000 -0.2296792745
N   N12       1.0  0.61600  0.38110  0.89651  1.0000 -0.2296792745
N   N13       1.0  0.11600  0.11890  0.89651  1.0000 -0.2296792745
N   N14       1.0  0.88400  0.38110  0.39651  1.0000 -0.2296792745
N   N15       1.0  0.61600  0.88110  0.60350  1.0000 -0.2296792745
N   N16       1.0  0.38400  0.61890  0.10350  1.0000 -0.2296792745
O   O1        1.0  0.68440  0.95750  0.16350  1.0000 -0.5399282203
O   O2        1.0  0.31560  0.54250  0.66349  1.0000 -0.5399282203
O   O3        1.0  0.18440  0.04250  0.33651  1.0000 -0.5399282203
O   O4        1.0  0.81560  0.45750  0.83651  1.0000 -0.5399282203
O   O5        1.0  0.31560  0.04250  0.83651  1.0000 -0.5399282203
O   O6        1.0  0.68440  0.45750  0.33651  1.0000 -0.5399282203
O   O7        1.0  0.81560  0.95750  0.66349  1.0000 -0.5399282203
O   O8        1.0  0.18440  0.54250  0.16350  1.0000 -0.5399282203
O   O9        1.0  0.66620  0.84370  0.22080  1.0000 -0.5046590493
O   O10       1.0  0.33380  0.65630  0.72079  1.0000 -0.5046590493
O   O11       1.0  0.16620  0.15630  0.27920  1.0000 -0.5046590493
O   O12       1.0  0.83380  0.34370  0.77921  1.0000 -0.5046590493
O   O13       1.0  0.33380  0.15630  0.77921  1.0000 -0.5046590493
O   O14       1.0  0.66620  0.34370  0.27920  1.0000 -0.5046590493
O   O15       1.0  0.83380  0.84370  0.72079  1.0000 -0.5046590493
O   O16       1.0  0.16620  0.65630  0.22080  1.0000 -0.5046590493
O   O17       1.0  0.45640  0.83090  0.16478  1.0000 -0.5464738236
O   O18       1.0  0.54360  0.66910  0.66478  1.0000 -0.5464738236
O   O19       1.0  0.95640  0.16910  0.33521  1.0000 -0.5464738236
O   O20       1.0  0.04360  0.33090  0.83522  1.0000 -0.5464738236
O   O21       1.0  0.54360  0.16910  0.83522  1.0000 -0.5464738236
O   O22       1.0  0.45640  0.33090  0.33521  1.0000 -0.5464738236
O   O23       1.0  0.04360  0.83090  0.66478  1.0000 -0.5464738236
O   O24       1.0  0.95640  0.66910  0.16478  1.0000 -0.5464738236
O   O25       1.0  0.32720  0.83780  0.21660  1.0000 -0.5311415718
O   O26       1.0  0.67280  0.66220  0.71660  1.0000 -0.5311415718
O   O27       1.0  0.82720  0.16220  0.28341  1.0000 -0.5311415718
O   O28       1.0  0.17280  0.33780  0.78341  1.0000 -0.5311415718
O   O29       1.0  0.67280  0.16220  0.78341  1.0000 -0.5311415718
O   O30       1.0  0.32720  0.33780  0.28341  1.0000 -0.5311415718
O   O31       1.0  0.17280  0.83780  0.71660  1.0000 -0.5311415718
O   O32       1.0  0.82720  0.66220  0.21660  1.0000 -0.5311415718
