# DDEC6 charges by PACMAN v1.1 (https://github.com/mtap-research/PACMAN-charge/)
data_2009[Cu][tbo]3[ASR]7
_chemical_formula_sum              "Cu12 H24 C72 O48"
_cell_length_a       18.6069
_cell_length_b       18.6069
_cell_length_c       18.6069
_cell_angle_alpha    60
_cell_angle_beta     60
_cell_angle_gamma    60

_symmetry_space_group_name_H-M    "P 1"
_symmetry_Int_Tables_number       1

loop_
  _symmetry_equiv_pos_as_xyz
  'x, y, z'

loop_
  _atom_site_type_symbol
  _atom_site_label
  _atom_site_symmetry_multiplicity
  _atom_site_fract_x
  _atom_site_fract_y
  _atom_site_fract_z
  _atom_site_occupancy
  _atom_site_charge
Cu  Cu1       1.0  0.50000  0.50000  0.07056  1.0000 0.8570678088
Cu  Cu2       1.0  0.50000  0.50000  0.92944  1.0000 0.8570678088
Cu  Cu3       1.0  0.07056  0.92944  0.50000  1.0000 0.8570678088
Cu  Cu4       1.0  0.92944  0.07056  0.50000  1.0000 0.8570678088
Cu  Cu5       1.0  0.50000  0.07056  0.92944  1.0000 0.8570678088
Cu  Cu6       1.0  0.50000  0.92944  0.07056  1.0000 0.8570678088
Cu  Cu7       1.0  0.07056  0.50000  0.50000  1.0000 0.8570678088
Cu  Cu8       1.0  0.92944  0.50000  0.50000  1.0000 0.8570678088
Cu  Cu9       1.0  0.50000  0.92944  0.50000  1.0000 0.8570678088
Cu  Cu10      1.0  0.50000  0.07056  0.50000  1.0000 0.8570678088
Cu  Cu11      1.0  0.07056  0.50000  0.92944  1.0000 0.8570678088
Cu  Cu12      1.0  0.92944  0.50000  0.07056  1.0000 0.8570678088
H   H1        1.0  0.46660  0.77220  0.98900  1.0000 0.138314379
H   H2        1.0  0.77220  0.46660  0.77220  1.0000 0.138314379
H   H3        1.0  0.98900  0.77220  0.46660  1.0000 0.138314379
H   H4        1.0  0.77220  0.98900  0.77220  1.0000 0.138314379
H   H5        1.0  0.46660  0.98900  0.77220  1.0000 0.138314379
H   H6        1.0  0.77220  0.77220  0.98900  1.0000 0.138314379
H   H7        1.0  0.98900  0.46660  0.77220  1.0000 0.138314379
H   H8        1.0  0.77220  0.77220  0.46660  1.0000 0.138314379
H   H9        1.0  0.46660  0.77220  0.77220  1.0000 0.138314379
H   H10       1.0  0.77220  0.98900  0.46660  1.0000 0.138314379
H   H11       1.0  0.98900  0.77220  0.77220  1.0000 0.138314379
H   H12       1.0  0.77220  0.46660  0.98900  1.0000 0.138314379
H   H13       1.0  0.22780  0.53340  0.01100  1.0000 0.138314379
H   H14       1.0  0.53340  0.22780  0.22780  1.0000 0.138314379
H   H15       1.0  0.22780  0.01100  0.53340  1.0000 0.138314379
H   H16       1.0  0.01100  0.22780  0.22780  1.0000 0.138314379
H   H17       1.0  0.01100  0.53340  0.22780  1.0000 0.138314379
H   H18       1.0  0.22780  0.22780  0.01100  1.0000 0.138314379
H   H19       1.0  0.53340  0.01100  0.22780  1.0000 0.138314379
H   H20       1.0  0.22780  0.22780  0.53340  1.0000 0.138314379
H   H21       1.0  0.22780  0.53340  0.22780  1.0000 0.138314379
H   H22       1.0  0.01100  0.22780  0.53340  1.0000 0.138314379
H   H23       1.0  0.22780  0.01100  0.22780  1.0000 0.138314379
H   H24       1.0  0.53340  0.22780  0.01100  1.0000 0.138314379
C   C1        1.0  0.47414  0.66286  0.93150  1.0000 0.5821951357
C   C2        1.0  0.46530  0.75810  0.88830  1.0000 -0.0304727229
C   C3        1.0  0.66286  0.47414  0.93150  1.0000 0.5821951357
C   C4        1.0  0.75810  0.46530  0.88830  1.0000 -0.0304727229
C   C5        1.0  0.93150  0.93150  0.47414  1.0000 0.5821951357
C   C6        1.0  0.88830  0.88830  0.46530  1.0000 -0.0304727229
C   C7        1.0  0.93150  0.93150  0.66286  1.0000 0.5821951357
C   C8        1.0  0.88830  0.88830  0.75810  1.0000 -0.0304727229
C   C9        1.0  0.47414  0.93150  0.93150  1.0000 0.5821951357
C   C10       1.0  0.46530  0.88830  0.88830  1.0000 -0.0304727229
C   C11       1.0  0.66286  0.93150  0.93150  1.0000 0.5821951357
C   C12       1.0  0.75810  0.88830  0.88830  1.0000 -0.0304727229
C   C13       1.0  0.93150  0.47414  0.66286  1.0000 0.5821951357
C   C14       1.0  0.88830  0.46530  0.75810  1.0000 -0.0304727229
C   C15       1.0  0.93150  0.66286  0.47414  1.0000 0.5821951357
C   C16       1.0  0.88830  0.75810  0.46530  1.0000 -0.0304727229
C   C17       1.0  0.47414  0.93150  0.66286  1.0000 0.5821951357
C   C18       1.0  0.46530  0.88830  0.75810  1.0000 -0.0304727229
C   C19       1.0  0.66286  0.93150  0.47414  1.0000 0.5821951357
C   C20       1.0  0.75810  0.88830  0.46530  1.0000 -0.0304727229
C   C21       1.0  0.93150  0.66286  0.93150  1.0000 0.5821951357
C   C22       1.0  0.88830  0.75810  0.88830  1.0000 -0.0304727229
C   C23       1.0  0.93150  0.47414  0.93150  1.0000 0.5821951357
C   C24       1.0  0.88830  0.46530  0.88830  1.0000 -0.0304727229
C   C25       1.0  0.33714  0.52586  0.06850  1.0000 0.5821951357
C   C26       1.0  0.24190  0.53470  0.11170  1.0000 -0.0304727229
C   C27       1.0  0.52586  0.33714  0.06850  1.0000 0.5821951357
C   C28       1.0  0.53470  0.24190  0.11170  1.0000 -0.0304727229
C   C29       1.0  0.06850  0.06850  0.52586  1.0000 0.5821951357
C   C30       1.0  0.11170  0.11170  0.53470  1.0000 -0.0304727229
C   C31       1.0  0.06850  0.06850  0.33714  1.0000 0.5821951357
C   C32       1.0  0.11170  0.11170  0.24190  1.0000 -0.0304727229
C   C33       1.0  0.06850  0.52586  0.06850  1.0000 0.5821951357
C   C34       1.0  0.11170  0.53470  0.11170  1.0000 -0.0304727229
C   C35       1.0  0.06850  0.33714  0.06850  1.0000 0.5821951357
C   C36       1.0  0.11170  0.24190  0.11170  1.0000 -0.0304727229
C   C37       1.0  0.52586  0.06850  0.33714  1.0000 0.5821951357
C   C38       1.0  0.53470  0.11170  0.24190  1.0000 -0.0304727229
C   C39       1.0  0.33714  0.06850  0.52586  1.0000 0.5821951357
C   C40       1.0  0.24190  0.11170  0.53470  1.0000 -0.0304727229
C   C41       1.0  0.06850  0.52586  0.33714  1.0000 0.5821951357
C   C42       1.0  0.11170  0.53470  0.24190  1.0000 -0.0304727229
C   C43       1.0  0.06850  0.33714  0.52586  1.0000 0.5821951357
C   C44       1.0  0.11170  0.24190  0.53470  1.0000 -0.0304727229
C   C45       1.0  0.33714  0.06850  0.06850  1.0000 0.5821951357
C   C46       1.0  0.24190  0.11170  0.11170  1.0000 -0.0304727229
C   C47       1.0  0.52586  0.06850  0.06850  1.0000 0.5821951357
C   C48       1.0  0.53470  0.11170  0.11170  1.0000 -0.0304727229
C   C49       1.0  0.46590  0.80130  0.93150  1.0000 -0.081346846
C   C50       1.0  0.80130  0.46590  0.80130  1.0000 -0.081346846
C   C51       1.0  0.93150  0.80130  0.46590  1.0000 -0.081346846
C   C52       1.0  0.80130  0.93150  0.80130  1.0000 -0.081346846
C   C53       1.0  0.46590  0.93150  0.80130  1.0000 -0.081346846
C   C54       1.0  0.80130  0.80130  0.93150  1.0000 -0.081346846
C   C55       1.0  0.93150  0.46590  0.80130  1.0000 -0.081346846
C   C56       1.0  0.80130  0.80130  0.46590  1.0000 -0.081346846
C   C57       1.0  0.46590  0.80130  0.80130  1.0000 -0.081346846
C   C58       1.0  0.80130  0.93150  0.46590  1.0000 -0.081346846
C   C59       1.0  0.93150  0.80130  0.80130  1.0000 -0.081346846
C   C60       1.0  0.80130  0.46590  0.93150  1.0000 -0.081346846
C   C61       1.0  0.19870  0.53410  0.06850  1.0000 -0.081346846
C   C62       1.0  0.53410  0.19870  0.19870  1.0000 -0.081346846
C   C63       1.0  0.19870  0.06850  0.53410  1.0000 -0.081346846
C   C64       1.0  0.06850  0.19870  0.19870  1.0000 -0.081346846
C   C65       1.0  0.06850  0.53410  0.19870  1.0000 -0.081346846
C   C66       1.0  0.19870  0.19870  0.06850  1.0000 -0.081346846
C   C67       1.0  0.53410  0.06850  0.19870  1.0000 -0.081346846
C   C68       1.0  0.19870  0.19870  0.53410  1.0000 -0.081346846
C   C69       1.0  0.19870  0.53410  0.19870  1.0000 -0.081346846
C   C70       1.0  0.06850  0.19870  0.53410  1.0000 -0.081346846
C   C71       1.0  0.19870  0.06850  0.19870  1.0000 -0.081346846
C   C72       1.0  0.53410  0.19870  0.06850  1.0000 -0.081346846
O   O1        1.0  0.47922  0.62612  0.00784  1.0000 -0.5186119251
O   O2        1.0  0.62612  0.47922  0.88682  1.0000 -0.5186119251
O   O3        1.0  0.00784  0.88682  0.47922  1.0000 -0.5186119251
O   O4        1.0  0.88682  0.00784  0.62612  1.0000 -0.5186119251
O   O5        1.0  0.47922  0.00784  0.88682  1.0000 -0.5186119251
O   O6        1.0  0.62612  0.88682  0.00784  1.0000 -0.5186119251
O   O7        1.0  0.00784  0.47922  0.62612  1.0000 -0.5186119251
O   O8        1.0  0.88682  0.62612  0.47922  1.0000 -0.5186119251
O   O9        1.0  0.47922  0.88682  0.62612  1.0000 -0.5186119251
O   O10       1.0  0.62612  0.00784  0.47922  1.0000 -0.5186119251
O   O11       1.0  0.00784  0.62612  0.88682  1.0000 -0.5186119251
O   O12       1.0  0.88682  0.47922  0.00784  1.0000 -0.5186119251
O   O13       1.0  0.37388  0.52078  0.99216  1.0000 -0.5186119251
O   O14       1.0  0.52078  0.37388  0.11318  1.0000 -0.5186119251
O   O15       1.0  0.11318  0.99216  0.52078  1.0000 -0.5186119251
O   O16       1.0  0.99216  0.11318  0.37388  1.0000 -0.5186119251
O   O17       1.0  0.99216  0.52078  0.11318  1.0000 -0.5186119251
O   O18       1.0  0.11318  0.37388  0.99216  1.0000 -0.5186119251
O   O19       1.0  0.52078  0.99216  0.37388  1.0000 -0.5186119251
O   O20       1.0  0.37388  0.11318  0.52078  1.0000 -0.5186119251
O   O21       1.0  0.11318  0.52078  0.37388  1.0000 -0.5186119251
O   O22       1.0  0.99216  0.37388  0.52078  1.0000 -0.5186119251
O   O23       1.0  0.37388  0.99216  0.11318  1.0000 -0.5186119251
O   O24       1.0  0.52078  0.11318  0.99216  1.0000 -0.5186119251
O   O25       1.0  0.52078  0.37388  0.99216  1.0000 -0.5186119251
O   O26       1.0  0.37388  0.52078  0.11318  1.0000 -0.5186119251
O   O27       1.0  0.99216  0.11318  0.52078  1.0000 -0.5186119251
O   O28       1.0  0.11318  0.99216  0.37388  1.0000 -0.5186119251
O   O29       1.0  0.52078  0.99216  0.11318  1.0000 -0.5186119251
O   O30       1.0  0.37388  0.11318  0.99216  1.0000 -0.5186119251
O   O31       1.0  0.99216  0.52078  0.37388  1.0000 -0.5186119251
O   O32       1.0  0.11318  0.37388  0.52078  1.0000 -0.5186119251
O   O33       1.0  0.52078  0.11318  0.37388  1.0000 -0.5186119251
O   O34       1.0  0.37388  0.99216  0.52078  1.0000 -0.5186119251
O   O35       1.0  0.99216  0.37388  0.11318  1.0000 -0.5186119251
O   O36       1.0  0.11318  0.52078  0.99216  1.0000 -0.5186119251
O   O37       1.0  0.62612  0.47922  0.00784  1.0000 -0.5186119251
O   O38       1.0  0.47922  0.62612  0.88682  1.0000 -0.5186119251
O   O39       1.0  0.88682  0.00784  0.47922  1.0000 -0.5186119251
O   O40       1.0  0.00784  0.88682  0.62612  1.0000 -0.5186119251
O   O41       1.0  0.00784  0.47922  0.88682  1.0000 -0.5186119251
O   O42       1.0  0.88682  0.62612  0.00784  1.0000 -0.5186119251
O   O43       1.0  0.47922  0.00784  0.62612  1.0000 -0.5186119251
O   O44       1.0  0.62612  0.88682  0.47922  1.0000 -0.5186119251
O   O45       1.0  0.88682  0.47922  0.62612  1.0000 -0.5186119251
O   O46       1.0  0.00784  0.62612  0.47922  1.0000 -0.5186119251
O   O47       1.0  0.62612  0.00784  0.88682  1.0000 -0.5186119251
O   O48       1.0  0.47922  0.88682  0.00784  1.0000 -0.5186119251
