# DDEC6 charges by PACMAN v1.1 (https://github.com/mtap-research/PACMAN-charge/)
data_2009[Cd][nan]3[ASR]1
_chemical_formula_sum              "Cd96 H576 C864 N720"
_cell_length_a       41.5947
_cell_length_b       41.5947
_cell_length_c       41.5947
_cell_angle_alpha    90
_cell_angle_beta     90
_cell_angle_gamma    90

_symmetry_space_group_name_H-M    "P 1"
_symmetry_Int_Tables_number       1

loop_
  _symmetry_equiv_pos_as_xyz
  'x, y, z'

loop_
  _atom_site_type_symbol
  _atom_site_label
  _atom_site_symmetry_multiplicity
  _atom_site_fract_x
  _atom_site_fract_y
  _atom_site_fract_z
  _atom_site_occupancy
  _atom_site_charge
Cd  Cd1       1.0  0.55136  0.67431  0.82091  1.0000 0.6239884725
Cd  Cd2       1.0  0.94864  0.32569  0.32091  1.0000 0.6239884725
Cd  Cd3       1.0  0.44864  0.17431  0.67909  1.0000 0.6239884725
Cd  Cd4       1.0  0.05136  0.82569  0.17909  1.0000 0.6239884725
Cd  Cd5       1.0  0.82091  0.55136  0.67431  1.0000 0.6239884725
Cd  Cd6       1.0  0.32091  0.94864  0.32569  1.0000 0.6239884725
Cd  Cd7       1.0  0.67909  0.44864  0.17431  1.0000 0.6239884725
Cd  Cd8       1.0  0.17909  0.05136  0.82569  1.0000 0.6239884725
Cd  Cd9       1.0  0.67431  0.82091  0.55136  1.0000 0.6239884725
Cd  Cd10      1.0  0.32569  0.32091  0.94864  1.0000 0.6239884725
Cd  Cd11      1.0  0.17431  0.67909  0.44864  1.0000 0.6239884725
Cd  Cd12      1.0  0.82569  0.17909  0.05136  1.0000 0.6297291674
Cd  Cd13      1.0  0.44864  0.32569  0.17909  1.0000 0.6239884725
Cd  Cd14      1.0  0.05136  0.67431  0.67909  1.0000 0.6239884725
Cd  Cd15      1.0  0.55136  0.82569  0.32091  1.0000 0.6297291674
Cd  Cd16      1.0  0.94864  0.17431  0.82091  1.0000 0.6239884725
Cd  Cd17      1.0  0.17909  0.44864  0.32569  1.0000 0.6239884725
Cd  Cd18      1.0  0.67909  0.05136  0.67431  1.0000 0.6239884725
Cd  Cd19      1.0  0.32091  0.55136  0.82569  1.0000 0.6239884725
Cd  Cd20      1.0  0.82091  0.94864  0.17431  1.0000 0.6297291674
Cd  Cd21      1.0  0.32569  0.17909  0.44864  1.0000 0.6239884725
Cd  Cd22      1.0  0.67431  0.67909  0.05136  1.0000 0.6239884725
Cd  Cd23      1.0  0.82569  0.32091  0.55136  1.0000 0.6297291674
Cd  Cd24      1.0  0.17431  0.82091  0.94864  1.0000 0.6239884725
Cd  Cd25      1.0  0.59388  0.75690  0.78729  1.0000 0.6239884725
Cd  Cd26      1.0  0.90612  0.24310  0.28729  1.0000 0.6239884725
Cd  Cd27      1.0  0.40612  0.25690  0.71271  1.0000 0.6239884725
Cd  Cd28      1.0  0.09388  0.74310  0.21271  1.0000 0.6239884725
Cd  Cd29      1.0  0.78729  0.59388  0.75690  1.0000 0.6239884725
Cd  Cd30      1.0  0.28729  0.90612  0.24310  1.0000 0.6239884725
Cd  Cd31      1.0  0.71271  0.40612  0.25690  1.0000 0.6239884725
Cd  Cd32      1.0  0.21271  0.09388  0.74310  1.0000 0.6239884725
Cd  Cd33      1.0  0.75690  0.78729  0.59388  1.0000 0.6239884725
Cd  Cd34      1.0  0.24310  0.28729  0.90612  1.0000 0.6239884725
Cd  Cd35      1.0  0.25690  0.71271  0.40612  1.0000 0.6239884725
Cd  Cd36      1.0  0.74310  0.21271  0.09388  1.0000 0.6239884725
Cd  Cd37      1.0  0.40612  0.24310  0.21271  1.0000 0.6239884725
Cd  Cd38      1.0  0.09388  0.75690  0.71271  1.0000 0.6239884725
Cd  Cd39      1.0  0.59388  0.74310  0.28729  1.0000 0.6239884725
Cd  Cd40      1.0  0.90612  0.25690  0.78729  1.0000 0.6239884725
Cd  Cd41      1.0  0.21271  0.40612  0.24310  1.0000 0.6239884725
Cd  Cd42      1.0  0.71271  0.09388  0.75690  1.0000 0.6239884725
Cd  Cd43      1.0  0.28729  0.59388  0.74310  1.0000 0.6239884725
Cd  Cd44      1.0  0.78729  0.90612  0.25690  1.0000 0.6239884725
Cd  Cd45      1.0  0.24310  0.21271  0.40612  1.0000 0.6239884725
Cd  Cd46      1.0  0.75690  0.71271  0.09388  1.0000 0.6239884725
Cd  Cd47      1.0  0.74310  0.28729  0.59388  1.0000 0.6239884725
Cd  Cd48      1.0  0.25690  0.78729  0.90612  1.0000 0.6239884725
Cd  Cd49      1.0  0.48016  0.82970  0.00647  1.0000 0.6297291674
Cd  Cd50      1.0  0.01984  0.17030  0.50647  1.0000 0.6297291674
Cd  Cd51      1.0  0.51984  0.32970  0.49353  1.0000 0.6297291674
Cd  Cd52      1.0  0.98016  0.67030  0.99353  1.0000 0.6297291674
Cd  Cd53      1.0  0.00647  0.48016  0.82970  1.0000 0.6297291674
Cd  Cd54      1.0  0.50647  0.01984  0.17030  1.0000 0.6297291674
Cd  Cd55      1.0  0.49353  0.51984  0.32970  1.0000 0.6297291674
Cd  Cd56      1.0  0.99353  0.98016  0.67030  1.0000 0.6297291674
Cd  Cd57      1.0  0.82970  0.00647  0.48016  1.0000 0.6297291674
Cd  Cd58      1.0  0.17030  0.50647  0.01984  1.0000 0.6297291674
Cd  Cd59      1.0  0.32970  0.49353  0.51984  1.0000 0.6297291674
Cd  Cd60      1.0  0.67030  0.99353  0.98016  1.0000 0.6297291674
Cd  Cd61      1.0  0.51984  0.17030  0.99353  1.0000 0.6297291674
Cd  Cd62      1.0  0.98016  0.82970  0.49353  1.0000 0.6297291674
Cd  Cd63      1.0  0.48016  0.67030  0.50647  1.0000 0.6297291674
Cd  Cd64      1.0  0.01984  0.32970  0.00647  1.0000 0.6297291674
Cd  Cd65      1.0  0.99353  0.51984  0.17030  1.0000 0.6297291674
Cd  Cd66      1.0  0.49353  0.98016  0.82970  1.0000 0.6297291674
Cd  Cd67      1.0  0.50647  0.48016  0.67030  1.0000 0.6297291674
Cd  Cd68      1.0  0.00647  0.01984  0.32970  1.0000 0.6297291674
Cd  Cd69      1.0  0.17030  0.99353  0.51984  1.0000 0.6297291674
Cd  Cd70      1.0  0.82970  0.49353  0.98016  1.0000 0.6297291674
Cd  Cd71      1.0  0.67030  0.50647  0.48016  1.0000 0.6297291674
Cd  Cd72      1.0  0.32970  0.00647  0.01984  1.0000 0.6297291674
Cd  Cd73      1.0  0.44326  0.71601  0.58702  1.0000 0.6239884725
Cd  Cd74      1.0  0.05674  0.28399  0.08702  1.0000 0.6239884725
Cd  Cd75      1.0  0.55674  0.21601  0.91298  1.0000 0.6297291674
Cd  Cd76      1.0  0.94326  0.78399  0.41298  1.0000 0.6297291674
Cd  Cd77      1.0  0.58702  0.44326  0.71601  1.0000 0.6239884725
Cd  Cd78      1.0  0.08702  0.05674  0.28399  1.0000 0.6239884725
Cd  Cd79      1.0  0.91298  0.55674  0.21601  1.0000 0.6297291674
Cd  Cd80      1.0  0.41298  0.94326  0.78399  1.0000 0.6239884725
Cd  Cd81      1.0  0.71601  0.58702  0.44326  1.0000 0.6297291674
Cd  Cd82      1.0  0.28399  0.08702  0.05674  1.0000 0.6297291674
Cd  Cd83      1.0  0.21601  0.91298  0.55674  1.0000 0.6297291674
Cd  Cd84      1.0  0.78399  0.41298  0.94326  1.0000 0.6297291674
Cd  Cd85      1.0  0.55674  0.28399  0.41298  1.0000 0.6297291674
Cd  Cd86      1.0  0.94326  0.71601  0.91298  1.0000 0.6297291674
Cd  Cd87      1.0  0.44326  0.78399  0.08702  1.0000 0.6297291674
Cd  Cd88      1.0  0.05674  0.21601  0.58702  1.0000 0.6239884725
Cd  Cd89      1.0  0.41298  0.55674  0.28399  1.0000 0.6297291674
Cd  Cd90      1.0  0.91298  0.94326  0.71601  1.0000 0.6297291674
Cd  Cd91      1.0  0.08702  0.44326  0.78399  1.0000 0.6239884725
Cd  Cd92      1.0  0.58702  0.05674  0.21601  1.0000 0.6297291674
Cd  Cd93      1.0  0.28399  0.41298  0.55674  1.0000 0.6239884725
Cd  Cd94      1.0  0.71601  0.91298  0.94326  1.0000 0.6297291674
Cd  Cd95      1.0  0.78399  0.08702  0.44326  1.0000 0.6297291674
Cd  Cd96      1.0  0.21601  0.58702  0.05674  1.0000 0.6297291674
H   H1        1.0  0.52360  0.75460  0.67680  1.0000 0.1334529364
H   H2        1.0  0.97640  0.24540  0.17680  1.0000 0.1334529364
H   H3        1.0  0.47640  0.25460  0.82320  1.0000 0.1334529364
H   H4        1.0  0.02360  0.74540  0.32320  1.0000 0.1334529364
H   H5        1.0  0.67680  0.52360  0.75460  1.0000 0.1334529364
H   H6        1.0  0.17680  0.97640  0.24540  1.0000 0.1334529364
H   H7        1.0  0.82320  0.47640  0.25460  1.0000 0.1334529364
H   H8        1.0  0.32320  0.02360  0.74540  1.0000 0.1334529364
H   H9        1.0  0.75460  0.67680  0.52360  1.0000 0.1334529364
H   H10       1.0  0.24540  0.17680  0.97640  1.0000 0.1334529364
H   H11       1.0  0.25460  0.82320  0.47640  1.0000 0.1334529364
H   H12       1.0  0.74540  0.32320  0.02360  1.0000 0.1334529364
H   H13       1.0  0.47640  0.24540  0.32320  1.0000 0.1334529364
H   H14       1.0  0.02360  0.75460  0.82320  1.0000 0.1334529364
H   H15       1.0  0.52360  0.74540  0.17680  1.0000 0.1334529364
H   H16       1.0  0.97640  0.25460  0.67680  1.0000 0.1334529364
H   H17       1.0  0.32320  0.47640  0.24540  1.0000 0.1334529364
H   H18       1.0  0.82320  0.02360  0.75460  1.0000 0.1334529364
H   H19       1.0  0.17680  0.52360  0.74540  1.0000 0.1334529364
H   H20       1.0  0.67680  0.97640  0.25460  1.0000 0.1334529364
H   H21       1.0  0.24540  0.32320  0.47640  1.0000 0.1334529364
H   H22       1.0  0.75460  0.82320  0.02360  1.0000 0.1334529364
H   H23       1.0  0.74540  0.17680  0.52360  1.0000 0.1334529364
H   H24       1.0  0.25460  0.67680  0.97640  1.0000 0.1334529364
H   H25       1.0  0.47360  0.67530  0.70350  1.0000 0.1334529364
H   H26       1.0  0.02640  0.32470  0.20350  1.0000 0.1334529364
H   H27       1.0  0.52640  0.17530  0.79650  1.0000 0.1334529364
H   H28       1.0  0.97360  0.82470  0.29650  1.0000 0.1334529364
H   H29       1.0  0.70350  0.47360  0.67530  1.0000 0.1334529364
H   H30       1.0  0.20350  0.02640  0.32470  1.0000 0.1334529364
H   H31       1.0  0.79650  0.52640  0.17530  1.0000 0.1334529364
H   H32       1.0  0.29650  0.97360  0.82470  1.0000 0.1334529364
H   H33       1.0  0.67530  0.70350  0.47360  1.0000 0.1334529364
H   H34       1.0  0.32470  0.20350  0.02640  1.0000 0.1334529364
H   H35       1.0  0.17530  0.79650  0.52640  1.0000 0.1334529364
H   H36       1.0  0.82470  0.29650  0.97360  1.0000 0.1334529364
H   H37       1.0  0.52640  0.32470  0.29650  1.0000 0.1334529364
H   H38       1.0  0.97360  0.67530  0.79650  1.0000 0.1334529364
H   H39       1.0  0.47360  0.82470  0.20350  1.0000 0.1334529364
H   H40       1.0  0.02640  0.17530  0.70350  1.0000 0.1334529364
H   H41       1.0  0.29650  0.52640  0.32470  1.0000 0.1334529364
H   H42       1.0  0.79650  0.97360  0.67530  1.0000 0.1334529364
H   H43       1.0  0.20350  0.47360  0.82470  1.0000 0.1334529364
H   H44       1.0  0.70350  0.02640  0.17530  1.0000 0.1334529364
H   H45       1.0  0.32470  0.29650  0.52640  1.0000 0.1334529364
H   H46       1.0  0.67530  0.79650  0.97360  1.0000 0.1334529364
H   H47       1.0  0.82470  0.20350  0.47360  1.0000 0.1334529364
H   H48       1.0  0.17530  0.70350  0.02640  1.0000 0.1334529364
H   H49       1.0  0.49400  0.75610  0.63000  1.0000 0.0968071785
H   H50       1.0  0.00600  0.24390  0.13000  1.0000 0.0968071785
H   H51       1.0  0.50600  0.25610  0.87000  1.0000 0.0968071785
H   H52       1.0  0.99400  0.74390  0.37000  1.0000 0.0968071785
H   H53       1.0  0.63000  0.49400  0.75610  1.0000 0.0968071785
H   H54       1.0  0.13000  0.00600  0.24390  1.0000 0.0968071785
H   H55       1.0  0.87000  0.50600  0.25610  1.0000 0.0968071785
H   H56       1.0  0.37000  0.99400  0.74390  1.0000 0.0968071785
H   H57       1.0  0.75610  0.63000  0.49400  1.0000 0.0968071785
H   H58       1.0  0.24390  0.13000  0.00600  1.0000 0.0968071785
H   H59       1.0  0.25610  0.87000  0.50600  1.0000 0.0968071785
H   H60       1.0  0.74390  0.37000  0.99400  1.0000 0.0968071785
H   H61       1.0  0.50600  0.24390  0.37000  1.0000 0.0968071785
H   H62       1.0  0.99400  0.75610  0.87000  1.0000 0.0968071785
H   H63       1.0  0.49400  0.74390  0.13000  1.0000 0.0968071785
H   H64       1.0  0.00600  0.25610  0.63000  1.0000 0.0968071785
H   H65       1.0  0.37000  0.50600  0.24390  1.0000 0.0968071785
H   H66       1.0  0.87000  0.99400  0.75610  1.0000 0.0968071785
H   H67       1.0  0.13000  0.49400  0.74390  1.0000 0.0968071785
H   H68       1.0  0.63000  0.00600  0.25610  1.0000 0.0968071785
H   H69       1.0  0.24390  0.37000  0.50600  1.0000 0.0968071785
H   H70       1.0  0.75610  0.87000  0.99400  1.0000 0.0968071785
H   H71       1.0  0.74390  0.13000  0.49400  1.0000 0.0968071785
H   H72       1.0  0.25610  0.63000  0.00600  1.0000 0.0968071785
H   H73       1.0  0.44790  0.67830  0.65360  1.0000 0.0911672275
H   H74       1.0  0.05210  0.32170  0.15360  1.0000 0.0911672275
H   H75       1.0  0.55210  0.17830  0.84640  1.0000 0.0911672275
H   H76       1.0  0.94790  0.82170  0.34640  1.0000 0.0911672275
H   H77       1.0  0.65360  0.44790  0.67830  1.0000 0.0911672275
H   H78       1.0  0.15360  0.05210  0.32170  1.0000 0.0911672275
H   H79       1.0  0.84640  0.55210  0.17830  1.0000 0.0911672275
H   H80       1.0  0.34640  0.94790  0.82170  1.0000 0.0911672275
H   H81       1.0  0.67830  0.65360  0.44790  1.0000 0.0911672275
H   H82       1.0  0.32170  0.15360  0.05210  1.0000 0.0911672275
H   H83       1.0  0.17830  0.84640  0.55210  1.0000 0.0911672275
H   H84       1.0  0.82170  0.34640  0.94790  1.0000 0.0911672275
H   H85       1.0  0.55210  0.32170  0.34640  1.0000 0.0911672275
H   H86       1.0  0.94790  0.67830  0.84640  1.0000 0.0911672275
H   H87       1.0  0.44790  0.82170  0.15360  1.0000 0.0911672275
H   H88       1.0  0.05210  0.17830  0.65360  1.0000 0.0911672275
H   H89       1.0  0.34640  0.55210  0.32170  1.0000 0.0911672275
H   H90       1.0  0.84640  0.94790  0.67830  1.0000 0.0911672275
H   H91       1.0  0.15360  0.44790  0.82170  1.0000 0.0911672275
H   H92       1.0  0.65360  0.05210  0.17830  1.0000 0.0911672275
H   H93       1.0  0.32170  0.34640  0.55210  1.0000 0.0911672275
H   H94       1.0  0.67830  0.84640  0.94790  1.0000 0.0911672275
H   H95       1.0  0.82170  0.15360  0.44790  1.0000 0.0911672275
H   H96       1.0  0.17830  0.65360  0.05210  1.0000 0.0911672275
H   H97       1.0  0.66800  0.60920  0.79820  1.0000 0.1334529364
H   H98       1.0  0.83200  0.39080  0.29820  1.0000 0.1334529364
H   H99       1.0  0.33200  0.10920  0.70180  1.0000 0.1334529364
H   H100      1.0  0.16800  0.89080  0.20180  1.0000 0.1334529364
H   H101      1.0  0.79820  0.66800  0.60920  1.0000 0.1334529364
H   H102      1.0  0.29820  0.83200  0.39080  1.0000 0.1334529364
H   H103      1.0  0.70180  0.33200  0.10920  1.0000 0.1334529364
H   H104      1.0  0.20180  0.16800  0.89080  1.0000 0.1334529364
H   H105      1.0  0.60920  0.79820  0.66800  1.0000 0.1334529364
H   H106      1.0  0.39080  0.29820  0.83200  1.0000 0.1334529364
H   H107      1.0  0.10920  0.70180  0.33200  1.0000 0.1334529364
H   H108      1.0  0.89080  0.20180  0.16800  1.0000 0.1334529364
H   H109      1.0  0.33200  0.39080  0.20180  1.0000 0.1334529364
H   H110      1.0  0.16800  0.60920  0.70180  1.0000 0.1334529364
H   H111      1.0  0.66800  0.89080  0.29820  1.0000 0.1334529364
H   H112      1.0  0.83200  0.10920  0.79820  1.0000 0.1334529364
H   H113      1.0  0.20180  0.33200  0.39080  1.0000 0.1334529364
H   H114      1.0  0.70180  0.16800  0.60920  1.0000 0.1334529364
H   H115      1.0  0.29820  0.66800  0.89080  1.0000 0.1334529364
H   H116      1.0  0.79820  0.83200  0.10920  1.0000 0.1334529364
H   H117      1.0  0.39080  0.20180  0.33200  1.0000 0.1334529364
H   H118      1.0  0.60920  0.70180  0.16800  1.0000 0.1334529364
H   H119      1.0  0.89080  0.29820  0.66800  1.0000 0.1334529364
H   H120      1.0  0.10920  0.79820  0.83200  1.0000 0.1334529364
H   H121      1.0  0.70690  0.69110  0.76550  1.0000 0.1334529364
H   H122      1.0  0.79310  0.30890  0.26550  1.0000 0.1334529364
H   H123      1.0  0.29310  0.19110  0.73450  1.0000 0.1334529364
H   H124      1.0  0.20690  0.80890  0.23450  1.0000 0.1334529364
H   H125      1.0  0.76550  0.70690  0.69110  1.0000 0.1334529364
H   H126      1.0  0.26550  0.79310  0.30890  1.0000 0.1334529364
H   H127      1.0  0.73450  0.29310  0.19110  1.0000 0.1334529364
H   H128      1.0  0.23450  0.20690  0.80890  1.0000 0.1334529364
H   H129      1.0  0.69110  0.76550  0.70690  1.0000 0.1334529364
H   H130      1.0  0.30890  0.26550  0.79310  1.0000 0.1334529364
H   H131      1.0  0.19110  0.73450  0.29310  1.0000 0.1334529364
H   H132      1.0  0.80890  0.23450  0.20690  1.0000 0.1334529364
H   H133      1.0  0.29310  0.30890  0.23450  1.0000 0.1334529364
H   H134      1.0  0.20690  0.69110  0.73450  1.0000 0.1334529364
H   H135      1.0  0.70690  0.80890  0.26550  1.0000 0.1334529364
H   H136      1.0  0.79310  0.19110  0.76550  1.0000 0.1334529364
H   H137      1.0  0.23450  0.29310  0.30890  1.0000 0.1334529364
H   H138      1.0  0.73450  0.20690  0.69110  1.0000 0.1334529364
H   H139      1.0  0.26550  0.70690  0.80890  1.0000 0.1334529364
H   H140      1.0  0.76550  0.79310  0.19110  1.0000 0.1334529364
H   H141      1.0  0.30890  0.23450  0.29310  1.0000 0.1334529364
H   H142      1.0  0.69110  0.73450  0.20690  1.0000 0.1334529364
H   H143      1.0  0.80890  0.26550  0.70690  1.0000 0.1334529364
H   H144      1.0  0.19110  0.76550  0.79310  1.0000 0.1334529364
H   H145      1.0  0.71540  0.58360  0.78430  1.0000 0.0911672275
H   H146      1.0  0.78460  0.41640  0.28430  1.0000 0.0911672275
H   H147      1.0  0.28460  0.08360  0.71570  1.0000 0.0911672275
H   H148      1.0  0.21540  0.91640  0.21570  1.0000 0.0911672275
H   H149      1.0  0.78430  0.71540  0.58360  1.0000 0.0911672275
H   H150      1.0  0.28430  0.78460  0.41640  1.0000 0.0911672275
H   H151      1.0  0.71570  0.28460  0.08360  1.0000 0.0911672275
H   H152      1.0  0.21570  0.21540  0.91640  1.0000 0.0911672275
H   H153      1.0  0.58360  0.78430  0.71540  1.0000 0.0911672275
H   H154      1.0  0.41640  0.28430  0.78460  1.0000 0.0911672275
H   H155      1.0  0.08360  0.71570  0.28460  1.0000 0.0911672275
H   H156      1.0  0.91640  0.21570  0.21540  1.0000 0.0911672275
H   H157      1.0  0.28460  0.41640  0.21570  1.0000 0.0911672275
H   H158      1.0  0.21540  0.58360  0.71570  1.0000 0.0911672275
H   H159      1.0  0.71540  0.91640  0.28430  1.0000 0.0911672275
H   H160      1.0  0.78460  0.08360  0.78430  1.0000 0.0911672275
H   H161      1.0  0.21570  0.28460  0.41640  1.0000 0.0911672275
H   H162      1.0  0.71570  0.21540  0.58360  1.0000 0.0911672275
H   H163      1.0  0.28430  0.71540  0.91640  1.0000 0.0911672275
H   H164      1.0  0.78430  0.78460  0.08360  1.0000 0.0911672275
H   H165      1.0  0.41640  0.21570  0.28460  1.0000 0.0911672275
H   H166      1.0  0.58360  0.71570  0.21540  1.0000 0.0911672275
H   H167      1.0  0.91640  0.28430  0.71540  1.0000 0.0911672275
H   H168      1.0  0.08360  0.78430  0.78460  1.0000 0.0911672275
H   H169      1.0  0.75140  0.66220  0.74870  1.0000 0.0911672275
H   H170      1.0  0.74860  0.33780  0.24870  1.0000 0.0911672275
H   H171      1.0  0.24860  0.16220  0.75130  1.0000 0.0911672275
H   H172      1.0  0.25140  0.83780  0.25130  1.0000 0.0911672275
H   H173      1.0  0.74870  0.75140  0.66220  1.0000 0.0911672275
H   H174      1.0  0.24870  0.74860  0.33780  1.0000 0.0911672275
H   H175      1.0  0.75130  0.24860  0.16220  1.0000 0.0911672275
H   H176      1.0  0.25130  0.25140  0.83780  1.0000 0.0911672275
H   H177      1.0  0.66220  0.74870  0.75140  1.0000 0.0911672275
H   H178      1.0  0.33780  0.24870  0.74860  1.0000 0.0911672275
H   H179      1.0  0.16220  0.75130  0.24860  1.0000 0.0911672275
H   H180      1.0  0.83780  0.25130  0.25140  1.0000 0.0911672275
H   H181      1.0  0.24860  0.33780  0.25130  1.0000 0.0911672275
H   H182      1.0  0.25140  0.66220  0.75130  1.0000 0.0911672275
H   H183      1.0  0.75140  0.83780  0.24870  1.0000 0.0911672275
H   H184      1.0  0.74860  0.16220  0.74870  1.0000 0.0911672275
H   H185      1.0  0.25130  0.24860  0.33780  1.0000 0.0911672275
H   H186      1.0  0.75130  0.25140  0.66220  1.0000 0.0911672275
H   H187      1.0  0.24870  0.75140  0.83780  1.0000 0.0911672275
H   H188      1.0  0.74870  0.74860  0.16220  1.0000 0.0911672275
H   H189      1.0  0.33780  0.25130  0.24860  1.0000 0.0911672275
H   H190      1.0  0.66220  0.75130  0.25140  1.0000 0.0911672275
H   H191      1.0  0.83780  0.24870  0.75140  1.0000 0.0911672275
H   H192      1.0  0.16220  0.74870  0.74860  1.0000 0.0911672275
H   H193      1.0  0.52230  0.82140  0.88800  1.0000 0.1384705376
H   H194      1.0  0.97770  0.17860  0.38800  1.0000 0.1384705376
H   H195      1.0  0.47770  0.32140  0.61200  1.0000 0.1384705376
H   H196      1.0  0.02230  0.67860  0.11200  1.0000 0.1384705376
H   H197      1.0  0.88800  0.52230  0.82140  1.0000 0.1384705376
H   H198      1.0  0.38800  0.97770  0.17860  1.0000 0.1384705376
H   H199      1.0  0.61200  0.47770  0.32140  1.0000 0.1384705376
H   H200      1.0  0.11200  0.02230  0.67860  1.0000 0.1384705376
H   H201      1.0  0.82140  0.88800  0.52230  1.0000 0.1384705376
H   H202      1.0  0.17860  0.38800  0.97770  1.0000 0.1384705376
H   H203      1.0  0.32140  0.61200  0.47770  1.0000 0.1384705376
H   H204      1.0  0.67860  0.11200  0.02230  1.0000 0.1384705376
H   H205      1.0  0.47770  0.17860  0.11200  1.0000 0.1384705376
H   H206      1.0  0.02230  0.82140  0.61200  1.0000 0.1384705376
H   H207      1.0  0.52230  0.67860  0.38800  1.0000 0.1384705376
H   H208      1.0  0.97770  0.32140  0.88800  1.0000 0.1384705376
H   H209      1.0  0.11200  0.47770  0.17860  1.0000 0.1384705376
H   H210      1.0  0.61200  0.02230  0.82140  1.0000 0.1384705376
H   H211      1.0  0.38800  0.52230  0.67860  1.0000 0.1384705376
H   H212      1.0  0.88800  0.97770  0.32140  1.0000 0.1384705376
H   H213      1.0  0.17860  0.11200  0.47770  1.0000 0.1384705376
H   H214      1.0  0.82140  0.61200  0.02230  1.0000 0.1384705376
H   H215      1.0  0.67860  0.38800  0.52230  1.0000 0.1384705376
H   H216      1.0  0.32140  0.88800  0.97770  1.0000 0.1384705376
H   H217      1.0  0.50760  0.73490  0.92930  1.0000 0.1384705376
H   H218      1.0  0.99240  0.26510  0.42930  1.0000 0.1384705376
H   H219      1.0  0.49240  0.23490  0.57070  1.0000 0.1384705376
H   H220      1.0  0.00760  0.76510  0.07070  1.0000 0.1384705376
H   H221      1.0  0.92930  0.50760  0.73490  1.0000 0.1384705376
H   H222      1.0  0.42930  0.99240  0.26510  1.0000 0.1384705376
H   H223      1.0  0.57070  0.49240  0.23490  1.0000 0.1384705376
H   H224      1.0  0.07070  0.00760  0.76510  1.0000 0.1384705376
H   H225      1.0  0.73490  0.92930  0.50760  1.0000 0.1384705376
H   H226      1.0  0.26510  0.42930  0.99240  1.0000 0.1384705376
H   H227      1.0  0.23490  0.57070  0.49240  1.0000 0.1384705376
H   H228      1.0  0.76510  0.07070  0.00760  1.0000 0.1384705376
H   H229      1.0  0.49240  0.26510  0.07070  1.0000 0.1384705376
H   H230      1.0  0.00760  0.73490  0.57070  1.0000 0.1384705376
H   H231      1.0  0.50760  0.76510  0.42930  1.0000 0.1384705376
H   H232      1.0  0.99240  0.23490  0.92930  1.0000 0.1384705376
H   H233      1.0  0.07070  0.49240  0.26510  1.0000 0.1384705376
H   H234      1.0  0.57070  0.00760  0.73490  1.0000 0.1384705376
H   H235      1.0  0.42930  0.50760  0.76510  1.0000 0.1384705376
H   H236      1.0  0.92930  0.99240  0.23490  1.0000 0.1384705376
H   H237      1.0  0.26510  0.07070  0.49240  1.0000 0.1384705376
H   H238      1.0  0.73490  0.57070  0.00760  1.0000 0.1384705376
H   H239      1.0  0.76510  0.42930  0.50760  1.0000 0.1384705376
H   H240      1.0  0.23490  0.92930  0.99240  1.0000 0.1384705376
H   H241      1.0  0.47990  0.76200  0.96950  1.0000 0.0968071785
H   H242      1.0  0.02010  0.23800  0.46950  1.0000 0.0968071785
H   H243      1.0  0.52010  0.26200  0.53050  1.0000 0.0968071785
H   H244      1.0  0.97990  0.73800  0.03050  1.0000 0.0968071785
H   H245      1.0  0.96950  0.47990  0.76200  1.0000 0.0968071785
H   H246      1.0  0.46950  0.02010  0.23800  1.0000 0.0968071785
H   H247      1.0  0.53050  0.52010  0.26200  1.0000 0.0968071785
H   H248      1.0  0.03050  0.97990  0.73800  1.0000 0.0968071785
H   H249      1.0  0.76200  0.96950  0.47990  1.0000 0.0968071785
H   H250      1.0  0.23800  0.46950  0.02010  1.0000 0.0968071785
H   H251      1.0  0.26200  0.53050  0.52010  1.0000 0.0968071785
H   H252      1.0  0.73800  0.03050  0.97990  1.0000 0.0968071785
H   H253      1.0  0.52010  0.23800  0.03050  1.0000 0.0968071785
H   H254      1.0  0.97990  0.76200  0.53050  1.0000 0.0968071785
H   H255      1.0  0.47990  0.73800  0.46950  1.0000 0.0968071785
H   H256      1.0  0.02010  0.26200  0.96950  1.0000 0.0968071785
H   H257      1.0  0.03050  0.52010  0.23800  1.0000 0.0968071785
H   H258      1.0  0.53050  0.97990  0.76200  1.0000 0.0968071785
H   H259      1.0  0.46950  0.47990  0.73800  1.0000 0.0968071785
H   H260      1.0  0.96950  0.02010  0.26200  1.0000 0.0968071785
H   H261      1.0  0.23800  0.03050  0.52010  1.0000 0.0968071785
H   H262      1.0  0.76200  0.53050  0.97990  1.0000 0.0968071785
H   H263      1.0  0.73800  0.46950  0.47990  1.0000 0.0968071785
H   H264      1.0  0.26200  0.96950  0.02010  1.0000 0.0968071785
H   H265      1.0  0.50340  0.84470  0.93540  1.0000 0.0911672275
H   H266      1.0  0.99660  0.15530  0.43540  1.0000 0.0911672275
H   H267      1.0  0.49660  0.34470  0.56460  1.0000 0.0911672275
H   H268      1.0  0.00340  0.65530  0.06460  1.0000 0.0911672275
H   H269      1.0  0.93540  0.50340  0.84470  1.0000 0.0911672275
H   H270      1.0  0.43540  0.99660  0.15530  1.0000 0.0911672275
H   H271      1.0  0.56460  0.49660  0.34470  1.0000 0.0911672275
H   H272      1.0  0.06460  0.00340  0.65530  1.0000 0.0911672275
H   H273      1.0  0.84470  0.93540  0.50340  1.0000 0.0911672275
H   H274      1.0  0.15530  0.43540  0.99660  1.0000 0.0911672275
H   H275      1.0  0.34470  0.56460  0.49660  1.0000 0.0911672275
H   H276      1.0  0.65530  0.06460  0.00340  1.0000 0.0911672275
H   H277      1.0  0.49660  0.15530  0.06460  1.0000 0.0911672275
H   H278      1.0  0.00340  0.84470  0.56460  1.0000 0.0911672275
H   H279      1.0  0.50340  0.65530  0.43540  1.0000 0.0911672275
H   H280      1.0  0.99660  0.34470  0.93540  1.0000 0.0911672275
H   H281      1.0  0.06460  0.49660  0.15530  1.0000 0.0911672275
H   H282      1.0  0.56460  0.00340  0.84470  1.0000 0.0911672275
H   H283      1.0  0.43540  0.50340  0.65530  1.0000 0.0911672275
H   H284      1.0  0.93540  0.99660  0.34470  1.0000 0.0911672275
H   H285      1.0  0.15530  0.06460  0.49660  1.0000 0.0911672275
H   H286      1.0  0.84470  0.56460  0.00340  1.0000 0.0911672275
H   H287      1.0  0.65530  0.43540  0.50340  1.0000 0.0911672275
H   H288      1.0  0.34470  0.93540  0.99660  1.0000 0.0911672275
H   H289      1.0  0.58610  0.55650  0.79580  1.0000 0.1384705376
H   H290      1.0  0.91390  0.44350  0.29580  1.0000 0.1384705376
H   H291      1.0  0.41390  0.05650  0.70420  1.0000 0.1384705376
H   H292      1.0  0.08610  0.94350  0.20420  1.0000 0.1384705376
H   H293      1.0  0.79580  0.58610  0.55650  1.0000 0.1384705376
H   H294      1.0  0.29580  0.91390  0.44350  1.0000 0.1384705376
H   H295      1.0  0.70420  0.41390  0.05650  1.0000 0.1384705376
H   H296      1.0  0.20420  0.08610  0.94350  1.0000 0.1384705376
H   H297      1.0  0.55650  0.79580  0.58610  1.0000 0.1384705376
H   H298      1.0  0.44350  0.29580  0.91390  1.0000 0.1384705376
H   H299      1.0  0.05650  0.70420  0.41390  1.0000 0.1384705376
H   H300      1.0  0.94350  0.20420  0.08610  1.0000 0.1384705376
H   H301      1.0  0.41390  0.44350  0.20420  1.0000 0.1384705376
H   H302      1.0  0.08610  0.55650  0.70420  1.0000 0.1384705376
H   H303      1.0  0.58610  0.94350  0.29580  1.0000 0.1384705376
H   H304      1.0  0.91390  0.05650  0.79580  1.0000 0.1384705376
H   H305      1.0  0.20420  0.41390  0.44350  1.0000 0.1384705376
H   H306      1.0  0.70420  0.08610  0.55650  1.0000 0.1384705376
H   H307      1.0  0.29580  0.58610  0.94350  1.0000 0.1384705376
H   H308      1.0  0.79580  0.91390  0.05650  1.0000 0.1384705376
H   H309      1.0  0.44350  0.20420  0.41390  1.0000 0.1384705376
H   H310      1.0  0.55650  0.70420  0.08610  1.0000 0.1384705376
H   H311      1.0  0.94350  0.29580  0.58610  1.0000 0.1384705376
H   H312      1.0  0.05650  0.79580  0.91390  1.0000 0.1384705376
H   H313      1.0  0.50820  0.58560  0.74490  1.0000 0.1384705376
H   H314      1.0  0.99180  0.41440  0.24490  1.0000 0.1384705376
H   H315      1.0  0.49180  0.08560  0.75510  1.0000 0.1384705376
H   H316      1.0  0.00820  0.91440  0.25510  1.0000 0.1384705376
H   H317      1.0  0.74490  0.50820  0.58560  1.0000 0.1384705376
H   H318      1.0  0.24490  0.99180  0.41440  1.0000 0.1384705376
H   H319      1.0  0.75510  0.49180  0.08560  1.0000 0.1384705376
H   H320      1.0  0.25510  0.00820  0.91440  1.0000 0.1384705376
H   H321      1.0  0.58560  0.74490  0.50820  1.0000 0.1384705376
H   H322      1.0  0.41440  0.24490  0.99180  1.0000 0.1384705376
H   H323      1.0  0.08560  0.75510  0.49180  1.0000 0.1384705376
H   H324      1.0  0.91440  0.25510  0.00820  1.0000 0.1384705376
H   H325      1.0  0.49180  0.41440  0.25510  1.0000 0.1384705376
H   H326      1.0  0.00820  0.58560  0.75510  1.0000 0.1384705376
H   H327      1.0  0.50820  0.91440  0.24490  1.0000 0.1384705376
H   H328      1.0  0.99180  0.08560  0.74490  1.0000 0.1384705376
H   H329      1.0  0.25510  0.49180  0.41440  1.0000 0.1384705376
H   H330      1.0  0.75510  0.00820  0.58560  1.0000 0.1384705376
H   H331      1.0  0.24490  0.50820  0.91440  1.0000 0.1384705376
H   H332      1.0  0.74490  0.99180  0.08560  1.0000 0.1384705376
H   H333      1.0  0.41440  0.25510  0.49180  1.0000 0.1384705376
H   H334      1.0  0.58560  0.75510  0.00820  1.0000 0.1384705376
H   H335      1.0  0.91440  0.24490  0.50820  1.0000 0.1384705376
H   H336      1.0  0.08560  0.74490  0.99180  1.0000 0.1384705376
H   H337      1.0  0.51150  0.63480  0.77300  1.0000 0.0911672275
H   H338      1.0  0.98850  0.36520  0.27300  1.0000 0.0911672275
H   H339      1.0  0.48850  0.13480  0.72700  1.0000 0.0911672275
H   H340      1.0  0.01150  0.86520  0.22700  1.0000 0.0911672275
H   H341      1.0  0.77300  0.51150  0.63480  1.0000 0.0911672275
H   H342      1.0  0.27300  0.98850  0.36520  1.0000 0.0911672275
H   H343      1.0  0.72700  0.48850  0.13480  1.0000 0.0911672275
H   H344      1.0  0.22700  0.01150  0.86520  1.0000 0.0911672275
H   H345      1.0  0.63480  0.77300  0.51150  1.0000 0.0911672275
H   H346      1.0  0.36520  0.27300  0.98850  1.0000 0.0911672275
H   H347      1.0  0.13480  0.72700  0.48850  1.0000 0.0911672275
H   H348      1.0  0.86520  0.22700  0.01150  1.0000 0.0911672275
H   H349      1.0  0.48850  0.36520  0.22700  1.0000 0.0911672275
H   H350      1.0  0.01150  0.63480  0.72700  1.0000 0.0911672275
H   H351      1.0  0.51150  0.86520  0.27300  1.0000 0.0911672275
H   H352      1.0  0.98850  0.13480  0.77300  1.0000 0.0911672275
H   H353      1.0  0.22700  0.48850  0.36520  1.0000 0.0911672275
H   H354      1.0  0.72700  0.01150  0.63480  1.0000 0.0911672275
H   H355      1.0  0.27300  0.51150  0.86520  1.0000 0.0911672275
H   H356      1.0  0.77300  0.98850  0.13480  1.0000 0.0911672275
H   H357      1.0  0.36520  0.22700  0.48850  1.0000 0.0911672275
H   H358      1.0  0.63480  0.72700  0.01150  1.0000 0.0911672275
H   H359      1.0  0.86520  0.27300  0.51150  1.0000 0.0911672275
H   H360      1.0  0.13480  0.77300  0.98850  1.0000 0.0911672275
H   H361      1.0  0.58930  0.60700  0.81850  1.0000 0.0968071785
H   H362      1.0  0.91070  0.39300  0.31850  1.0000 0.0968071785
H   H363      1.0  0.41070  0.10700  0.68150  1.0000 0.0968071785
H   H364      1.0  0.08930  0.89300  0.18150  1.0000 0.0968071785
H   H365      1.0  0.81850  0.58930  0.60700  1.0000 0.0968071785
H   H366      1.0  0.31850  0.91070  0.39300  1.0000 0.0968071785
H   H367      1.0  0.68150  0.41070  0.10700  1.0000 0.0968071785
H   H368      1.0  0.18150  0.08930  0.89300  1.0000 0.0968071785
H   H369      1.0  0.60700  0.81850  0.58930  1.0000 0.0968071785
H   H370      1.0  0.39300  0.31850  0.91070  1.0000 0.0968071785
H   H371      1.0  0.10700  0.68150  0.41070  1.0000 0.0968071785
H   H372      1.0  0.89300  0.18150  0.08930  1.0000 0.0968071785
H   H373      1.0  0.41070  0.39300  0.18150  1.0000 0.0968071785
H   H374      1.0  0.08930  0.60700  0.68150  1.0000 0.0968071785
H   H375      1.0  0.58930  0.89300  0.31850  1.0000 0.0968071785
H   H376      1.0  0.91070  0.10700  0.81850  1.0000 0.0911672275
H   H377      1.0  0.18150  0.41070  0.39300  1.0000 0.0968071785
H   H378      1.0  0.68150  0.08930  0.60700  1.0000 0.0968071785
H   H379      1.0  0.31850  0.58930  0.89300  1.0000 0.0968071785
H   H380      1.0  0.81850  0.91070  0.10700  1.0000 0.0911672275
H   H381      1.0  0.39300  0.18150  0.41070  1.0000 0.0968071785
H   H382      1.0  0.60700  0.68150  0.08930  1.0000 0.0968071785
H   H383      1.0  0.89300  0.31850  0.58930  1.0000 0.0968071785
H   H384      1.0  0.10700  0.81850  0.91070  1.0000 0.0911672275
H   H385      1.0  0.56290  0.87620  0.80440  1.0000 0.1384705376
H   H386      1.0  0.93710  0.12380  0.30440  1.0000 0.1384705376
H   H387      1.0  0.43710  0.37620  0.69560  1.0000 0.1384705376
H   H388      1.0  0.06290  0.62380  0.19560  1.0000 0.1384705376
H   H389      1.0  0.80440  0.56290  0.87620  1.0000 0.1384705376
H   H390      1.0  0.30440  0.93710  0.12380  1.0000 0.1384705376
H   H391      1.0  0.69560  0.43710  0.37620  1.0000 0.1384705376
H   H392      1.0  0.19560  0.06290  0.62380  1.0000 0.1384705376
H   H393      1.0  0.87620  0.80440  0.56290  1.0000 0.1384705376
H   H394      1.0  0.12380  0.30440  0.93710  1.0000 0.1384705376
H   H395      1.0  0.37620  0.69560  0.43710  1.0000 0.1384705376
H   H396      1.0  0.62380  0.19560  0.06290  1.0000 0.1384705376
H   H397      1.0  0.43710  0.12380  0.19560  1.0000 0.1384705376
H   H398      1.0  0.06290  0.87620  0.69560  1.0000 0.1384705376
H   H399      1.0  0.56290  0.62380  0.30440  1.0000 0.1384705376
H   H400      1.0  0.93710  0.37620  0.80440  1.0000 0.1384705376
H   H401      1.0  0.19560  0.43710  0.12380  1.0000 0.1384705376
H   H402      1.0  0.69560  0.06290  0.87620  1.0000 0.1384705376
H   H403      1.0  0.30440  0.56290  0.62380  1.0000 0.1384705376
H   H404      1.0  0.80440  0.93710  0.37620  1.0000 0.1384705376
H   H405      1.0  0.12380  0.19560  0.43710  1.0000 0.1384705376
H   H406      1.0  0.87620  0.69560  0.06290  1.0000 0.1384705376
H   H407      1.0  0.62380  0.30440  0.56290  1.0000 0.1384705376
H   H408      1.0  0.37620  0.80440  0.93710  1.0000 0.1384705376
H   H409      1.0  0.49050  0.82730  0.76990  1.0000 0.1384705376
H   H410      1.0  0.00950  0.17270  0.26990  1.0000 0.1384705376
H   H411      1.0  0.50950  0.32730  0.73010  1.0000 0.1384705376
H   H412      1.0  0.99050  0.67270  0.23010  1.0000 0.1384705376
H   H413      1.0  0.76990  0.49050  0.82730  1.0000 0.1384705376
H   H414      1.0  0.26990  0.00950  0.17270  1.0000 0.1384705376
H   H415      1.0  0.73010  0.50950  0.32730  1.0000 0.1384705376
H   H416      1.0  0.23010  0.99050  0.67270  1.0000 0.1384705376
H   H417      1.0  0.82730  0.76990  0.49050  1.0000 0.1384705376
H   H418      1.0  0.17270  0.26990  0.00950  1.0000 0.1384705376
H   H419      1.0  0.32730  0.73010  0.50950  1.0000 0.1384705376
H   H420      1.0  0.67270  0.23010  0.99050  1.0000 0.1384705376
H   H421      1.0  0.50950  0.17270  0.23010  1.0000 0.1384705376
H   H422      1.0  0.99050  0.82730  0.73010  1.0000 0.1384705376
H   H423      1.0  0.49050  0.67270  0.26990  1.0000 0.1384705376
H   H424      1.0  0.00950  0.32730  0.76990  1.0000 0.1384705376
H   H425      1.0  0.23010  0.50950  0.17270  1.0000 0.1384705376
H   H426      1.0  0.73010  0.99050  0.82730  1.0000 0.1384705376
H   H427      1.0  0.26990  0.49050  0.67270  1.0000 0.1384705376
H   H428      1.0  0.76990  0.00950  0.32730  1.0000 0.1384705376
H   H429      1.0  0.17270  0.23010  0.50950  1.0000 0.1384705376
H   H430      1.0  0.82730  0.73010  0.99050  1.0000 0.1384705376
H   H431      1.0  0.67270  0.26990  0.49050  1.0000 0.1384705376
H   H432      1.0  0.32730  0.76990  0.00950  1.0000 0.1384705376
H   H433      1.0  0.59500  0.83210  0.79670  1.0000 0.0968071785
H   H434      1.0  0.90500  0.16790  0.29670  1.0000 0.0968071785
H   H435      1.0  0.40500  0.33210  0.70330  1.0000 0.0968071785
H   H436      1.0  0.09500  0.66790  0.20330  1.0000 0.0968071785
H   H437      1.0  0.79670  0.59500  0.83210  1.0000 0.0968071785
H   H438      1.0  0.29670  0.90500  0.16790  1.0000 0.0968071785
H   H439      1.0  0.70330  0.40500  0.33210  1.0000 0.0968071785
H   H440      1.0  0.20330  0.09500  0.66790  1.0000 0.0968071785
H   H441      1.0  0.83210  0.79670  0.59500  1.0000 0.0968071785
H   H442      1.0  0.16790  0.29670  0.90500  1.0000 0.0968071785
H   H443      1.0  0.33210  0.70330  0.40500  1.0000 0.0968071785
H   H444      1.0  0.66790  0.20330  0.09500  1.0000 0.0968071785
H   H445      1.0  0.40500  0.16790  0.20330  1.0000 0.0968071785
H   H446      1.0  0.09500  0.83210  0.70330  1.0000 0.0968071785
H   H447      1.0  0.59500  0.66790  0.29670  1.0000 0.0968071785
H   H448      1.0  0.90500  0.33210  0.79670  1.0000 0.0968071785
H   H449      1.0  0.20330  0.40500  0.16790  1.0000 0.0968071785
H   H450      1.0  0.70330  0.09500  0.83210  1.0000 0.0968071785
H   H451      1.0  0.29670  0.59500  0.66790  1.0000 0.0968071785
H   H452      1.0  0.79670  0.90500  0.33210  1.0000 0.0968071785
H   H453      1.0  0.16790  0.20330  0.40500  1.0000 0.0968071785
H   H454      1.0  0.83210  0.70330  0.09500  1.0000 0.0968071785
H   H455      1.0  0.66790  0.29670  0.59500  1.0000 0.0968071785
H   H456      1.0  0.33210  0.79670  0.90500  1.0000 0.0968071785
H   H457      1.0  0.52730  0.78410  0.76230  1.0000 0.0911672275
H   H458      1.0  0.97270  0.21590  0.26230  1.0000 0.0911672275
H   H459      1.0  0.47270  0.28410  0.73770  1.0000 0.0911672275
H   H460      1.0  0.02730  0.71590  0.23770  1.0000 0.0911672275
H   H461      1.0  0.76230  0.52730  0.78410  1.0000 0.0911672275
H   H462      1.0  0.26230  0.97270  0.21590  1.0000 0.0911672275
H   H463      1.0  0.73770  0.47270  0.28410  1.0000 0.0911672275
H   H464      1.0  0.23770  0.02730  0.71590  1.0000 0.0911672275
H   H465      1.0  0.78410  0.76230  0.52730  1.0000 0.0911672275
H   H466      1.0  0.21590  0.26230  0.97270  1.0000 0.0911672275
H   H467      1.0  0.28410  0.73770  0.47270  1.0000 0.0911672275
H   H468      1.0  0.71590  0.23770  0.02730  1.0000 0.0911672275
H   H469      1.0  0.47270  0.21590  0.23770  1.0000 0.0911672275
H   H470      1.0  0.02730  0.78410  0.73770  1.0000 0.0911672275
H   H471      1.0  0.52730  0.71590  0.26230  1.0000 0.0911672275
H   H472      1.0  0.97270  0.28410  0.76230  1.0000 0.0911672275
H   H473      1.0  0.23770  0.47270  0.21590  1.0000 0.0911672275
H   H474      1.0  0.73770  0.02730  0.78410  1.0000 0.0911672275
H   H475      1.0  0.26230  0.52730  0.71590  1.0000 0.0911672275
H   H476      1.0  0.76230  0.97270  0.28410  1.0000 0.0911672275
H   H477      1.0  0.21590  0.23770  0.47270  1.0000 0.0911672275
H   H478      1.0  0.78410  0.73770  0.02730  1.0000 0.0911672275
H   H479      1.0  0.71590  0.26230  0.52730  1.0000 0.0911672275
H   H480      1.0  0.28410  0.76230  0.97270  1.0000 0.0911672275
H   H481      1.0  0.50070  0.94010  0.07440  1.0000 0.1334529364
H   H482      1.0  0.99930  0.05990  0.57440  1.0000 0.1334529364
H   H483      1.0  0.49930  0.44010  0.42560  1.0000 0.1334529364
H   H484      1.0  0.00070  0.55990  0.92560  1.0000 0.1334529364
H   H485      1.0  0.07440  0.50070  0.94010  1.0000 0.1334529364
H   H486      1.0  0.57440  0.99930  0.05990  1.0000 0.1334529364
H   H487      1.0  0.42560  0.49930  0.44010  1.0000 0.1334529364
H   H488      1.0  0.92560  0.00070  0.55990  1.0000 0.1334529364
H   H489      1.0  0.94010  0.07440  0.50070  1.0000 0.1334529364
H   H490      1.0  0.05990  0.57440  0.99930  1.0000 0.1334529364
H   H491      1.0  0.44010  0.42560  0.49930  1.0000 0.1334529364
H   H492      1.0  0.55990  0.92560  0.00070  1.0000 0.1334529364
H   H493      1.0  0.49930  0.05990  0.92560  1.0000 0.1334529364
H   H494      1.0  0.00070  0.94010  0.42560  1.0000 0.1334529364
H   H495      1.0  0.50070  0.55990  0.57440  1.0000 0.1334529364
H   H496      1.0  0.99930  0.44010  0.07440  1.0000 0.1334529364
H   H497      1.0  0.92560  0.49930  0.05990  1.0000 0.1334529364
H   H498      1.0  0.42560  0.00070  0.94010  1.0000 0.1334529364
H   H499      1.0  0.57440  0.50070  0.55990  1.0000 0.1334529364
H   H500      1.0  0.07440  0.99930  0.44010  1.0000 0.1334529364
H   H501      1.0  0.05990  0.92560  0.49930  1.0000 0.1334529364
H   H502      1.0  0.94010  0.42560  0.00070  1.0000 0.1334529364
H   H503      1.0  0.55990  0.57440  0.50070  1.0000 0.1334529364
H   H504      1.0  0.44010  0.07440  0.99930  1.0000 0.1334529364
H   H505      1.0  0.47470  0.89810  0.15660  1.0000 0.1334529364
H   H506      1.0  0.02530  0.10190  0.65660  1.0000 0.1384705376
H   H507      1.0  0.52530  0.39810  0.34340  1.0000 0.1384705376
H   H508      1.0  0.97470  0.60190  0.84340  1.0000 0.1334529364
H   H509      1.0  0.15660  0.47470  0.89810  1.0000 0.1334529364
H   H510      1.0  0.65660  0.02530  0.10190  1.0000 0.1384705376
H   H511      1.0  0.34340  0.52530  0.39810  1.0000 0.1384705376
H   H512      1.0  0.84340  0.97470  0.60190  1.0000 0.1334529364
H   H513      1.0  0.89810  0.15660  0.47470  1.0000 0.1334529364
H   H514      1.0  0.10190  0.65660  0.02530  1.0000 0.1384705376
H   H515      1.0  0.39810  0.34340  0.52530  1.0000 0.1384705376
H   H516      1.0  0.60190  0.84340  0.97470  1.0000 0.1334529364
H   H517      1.0  0.52530  0.10190  0.84340  1.0000 0.1384705376
H   H518      1.0  0.97470  0.89810  0.34340  1.0000 0.1334529364
H   H519      1.0  0.47470  0.60190  0.65660  1.0000 0.1334529364
H   H520      1.0  0.02530  0.39810  0.15660  1.0000 0.1334529364
H   H521      1.0  0.84340  0.52530  0.10190  1.0000 0.1384705376
H   H522      1.0  0.34340  0.97470  0.89810  1.0000 0.1384705376
H   H523      1.0  0.65660  0.47470  0.60190  1.0000 0.1334529364
H   H524      1.0  0.15660  0.02530  0.39810  1.0000 0.1334529364
H   H525      1.0  0.10190  0.84340  0.52530  1.0000 0.1384705376
H   H526      1.0  0.89810  0.34340  0.97470  1.0000 0.1334529364
H   H527      1.0  0.60190  0.65660  0.47470  1.0000 0.1334529364
H   H528      1.0  0.39810  0.15660  0.02530  1.0000 0.1334529364
H   H529      1.0  0.51400  0.98520  0.10220  1.0000 0.0968071785
H   H530      1.0  0.98600  0.01480  0.60220  1.0000 0.0968071785
H   H531      1.0  0.48600  0.48520  0.39780  1.0000 0.0968071785
H   H532      1.0  0.01400  0.51480  0.89780  1.0000 0.0911672275
H   H533      1.0  0.10220  0.51400  0.98520  1.0000 0.0911672275
H   H534      1.0  0.60220  0.98600  0.01480  1.0000 0.0968071785
H   H535      1.0  0.39780  0.48600  0.48520  1.0000 0.0968071785
H   H536      1.0  0.89780  0.01400  0.51480  1.0000 0.0968071785
H   H537      1.0  0.98520  0.10220  0.51400  1.0000 0.0968071785
H   H538      1.0  0.01480  0.60220  0.98600  1.0000 0.0911672275
H   H539      1.0  0.48520  0.39780  0.48600  1.0000 0.0968071785
H   H540      1.0  0.51480  0.89780  0.01400  1.0000 0.0968071785
H   H541      1.0  0.48600  0.01480  0.89780  1.0000 0.0968071785
H   H542      1.0  0.01400  0.98520  0.39780  1.0000 0.0911672275
H   H543      1.0  0.51400  0.51480  0.60220  1.0000 0.0911672275
H   H544      1.0  0.98600  0.48520  0.10220  1.0000 0.0968071785
H   H545      1.0  0.89780  0.48600  0.01480  1.0000 0.0968071785
H   H546      1.0  0.39780  0.01400  0.98520  1.0000 0.0911672275
H   H547      1.0  0.60220  0.51400  0.51480  1.0000 0.0911672275
H   H548      1.0  0.10220  0.98600  0.48520  1.0000 0.0911672275
H   H549      1.0  0.01480  0.89780  0.48600  1.0000 0.0968071785
H   H550      1.0  0.98520  0.39780  0.01400  1.0000 0.0968071785
H   H551      1.0  0.51480  0.60220  0.51400  1.0000 0.0911672275
H   H552      1.0  0.48520  0.10220  0.98600  1.0000 0.0911672275
H   H553      1.0  0.48790  0.94390  0.18290  1.0000 0.0911672275
H   H554      1.0  0.01210  0.05610  0.68290  1.0000 0.0911672275
H   H555      1.0  0.51210  0.44390  0.31710  1.0000 0.0911672275
H   H556      1.0  0.98790  0.55610  0.81710  1.0000 0.0911672275
H   H557      1.0  0.18290  0.48790  0.94390  1.0000 0.0911672275
H   H558      1.0  0.68290  0.01210  0.05610  1.0000 0.0911672275
H   H559      1.0  0.31710  0.51210  0.44390  1.0000 0.0911672275
H   H560      1.0  0.81710  0.98790  0.55610  1.0000 0.0911672275
H   H561      1.0  0.94390  0.18290  0.48790  1.0000 0.0911672275
H   H562      1.0  0.05610  0.68290  0.01210  1.0000 0.0911672275
H   H563      1.0  0.44390  0.31710  0.51210  1.0000 0.0911672275
H   H564      1.0  0.55610  0.81710  0.98790  1.0000 0.0911672275
H   H565      1.0  0.51210  0.05610  0.81710  1.0000 0.0911672275
H   H566      1.0  0.98790  0.94390  0.31710  1.0000 0.0911672275
H   H567      1.0  0.48790  0.55610  0.68290  1.0000 0.0911672275
H   H568      1.0  0.01210  0.44390  0.18290  1.0000 0.0911672275
H   H569      1.0  0.81710  0.51210  0.05610  1.0000 0.0911672275
H   H570      1.0  0.31710  0.98790  0.94390  1.0000 0.0911672275
H   H571      1.0  0.68290  0.48790  0.55610  1.0000 0.0911672275
H   H572      1.0  0.18290  0.01210  0.44390  1.0000 0.0911672275
H   H573      1.0  0.05610  0.81710  0.51210  1.0000 0.0911672275
H   H574      1.0  0.94390  0.31710  0.98790  1.0000 0.0911672275
H   H575      1.0  0.55610  0.68290  0.48790  1.0000 0.0911672275
H   H576      1.0  0.44390  0.18290  0.01210  1.0000 0.0911672275
C   C1        1.0  0.52040  0.71360  0.72560  1.0000 0.2285558512
C   C2        1.0  0.97960  0.28640  0.22560  1.0000 0.2285558512
C   C3        1.0  0.47960  0.21360  0.77440  1.0000 0.2285558512
C   C4        1.0  0.02040  0.78640  0.27440  1.0000 0.2285558512
C   C5        1.0  0.72560  0.52040  0.71360  1.0000 0.2285558512
C   C6        1.0  0.22560  0.97960  0.28640  1.0000 0.2285558512
C   C7        1.0  0.77440  0.47960  0.21360  1.0000 0.2285558512
C   C8        1.0  0.27440  0.02040  0.78640  1.0000 0.2285558512
C   C9        1.0  0.71360  0.72560  0.52040  1.0000 0.2285558512
C   C10       1.0  0.28640  0.22560  0.97960  1.0000 0.2285558512
C   C11       1.0  0.21360  0.77440  0.47960  1.0000 0.2285558512
C   C12       1.0  0.78640  0.27440  0.02040  1.0000 0.2285558512
C   C13       1.0  0.47960  0.28640  0.27440  1.0000 0.2285558512
C   C14       1.0  0.02040  0.71360  0.77440  1.0000 0.2285558512
C   C15       1.0  0.52040  0.78640  0.22560  1.0000 0.2285558512
C   C16       1.0  0.97960  0.21360  0.72560  1.0000 0.2285558512
C   C17       1.0  0.27440  0.47960  0.28640  1.0000 0.2285558512
C   C18       1.0  0.77440  0.02040  0.71360  1.0000 0.2285558512
C   C19       1.0  0.22560  0.52040  0.78640  1.0000 0.2285558512
C   C20       1.0  0.72560  0.97960  0.21360  1.0000 0.2285558512
C   C21       1.0  0.28640  0.27440  0.47960  1.0000 0.2285558512
C   C22       1.0  0.71360  0.77440  0.02040  1.0000 0.2285558512
C   C23       1.0  0.78640  0.22560  0.52040  1.0000 0.2285558512
C   C24       1.0  0.21360  0.72560  0.97960  1.0000 0.2285558512
C   C25       1.0  0.50180  0.71480  0.69590  1.0000 0.0911672275
C   C26       1.0  0.99820  0.28520  0.19590  1.0000 0.0911672275
C   C27       1.0  0.49820  0.21480  0.80410  1.0000 0.0808087225
C   C28       1.0  0.00180  0.78520  0.30410  1.0000 0.0911672275
C   C29       1.0  0.69590  0.50180  0.71480  1.0000 0.0911672275
C   C30       1.0  0.19590  0.99820  0.28520  1.0000 0.0911672275
C   C31       1.0  0.80410  0.49820  0.21480  1.0000 0.0808087225
C   C32       1.0  0.30410  0.00180  0.78520  1.0000 0.0911672275
C   C33       1.0  0.71480  0.69590  0.50180  1.0000 0.0911672275
C   C34       1.0  0.28520  0.19590  0.99820  1.0000 0.0911672275
C   C35       1.0  0.21480  0.80410  0.49820  1.0000 0.0808087225
C   C36       1.0  0.78520  0.30410  0.00180  1.0000 0.0911672275
C   C37       1.0  0.49820  0.28520  0.30410  1.0000 0.0911672275
C   C38       1.0  0.00180  0.71480  0.80410  1.0000 0.0911672275
C   C39       1.0  0.50180  0.78520  0.19590  1.0000 0.0911672275
C   C40       1.0  0.99820  0.21480  0.69590  1.0000 0.0911672275
C   C41       1.0  0.30410  0.49820  0.28520  1.0000 0.0911672275
C   C42       1.0  0.80410  0.00180  0.71480  1.0000 0.0911672275
C   C43       1.0  0.19590  0.50180  0.78520  1.0000 0.0911672275
C   C44       1.0  0.69590  0.99820  0.21480  1.0000 0.0911672275
C   C45       1.0  0.28520  0.30410  0.49820  1.0000 0.0911672275
C   C46       1.0  0.71480  0.80410  0.00180  1.0000 0.0911672275
C   C47       1.0  0.78520  0.19590  0.50180  1.0000 0.0911672275
C   C48       1.0  0.21480  0.69590  0.99820  1.0000 0.0911672275
C   C49       1.0  0.50760  0.73880  0.67300  1.0000 -0.1911151831
C   C50       1.0  0.99240  0.26120  0.17300  1.0000 -0.1911151831
C   C51       1.0  0.49240  0.23880  0.82700  1.0000 -0.1911151831
C   C52       1.0  0.00760  0.76120  0.32700  1.0000 -0.1911151831
C   C53       1.0  0.67300  0.50760  0.73880  1.0000 -0.1911151831
C   C54       1.0  0.17300  0.99240  0.26120  1.0000 -0.1911151831
C   C55       1.0  0.82700  0.49240  0.23880  1.0000 -0.1911151831
C   C56       1.0  0.32700  0.00760  0.76120  1.0000 -0.1911151831
C   C57       1.0  0.73880  0.67300  0.50760  1.0000 -0.1911151831
C   C58       1.0  0.26120  0.17300  0.99240  1.0000 -0.1911151831
C   C59       1.0  0.23880  0.82700  0.49240  1.0000 -0.1911151831
C   C60       1.0  0.76120  0.32700  0.00760  1.0000 -0.1911151831
C   C61       1.0  0.49240  0.26120  0.32700  1.0000 -0.1911151831
C   C62       1.0  0.00760  0.73880  0.82700  1.0000 -0.1911151831
C   C63       1.0  0.50760  0.76120  0.17300  1.0000 -0.1911151831
C   C64       1.0  0.99240  0.23880  0.67300  1.0000 -0.1911151831
C   C65       1.0  0.32700  0.49240  0.26120  1.0000 -0.1911151831
C   C66       1.0  0.82700  0.00760  0.73880  1.0000 -0.1911151831
C   C67       1.0  0.17300  0.50760  0.76120  1.0000 -0.1911151831
C   C68       1.0  0.67300  0.99240  0.23880  1.0000 -0.1911151831
C   C69       1.0  0.26120  0.32700  0.49240  1.0000 -0.1911151831
C   C70       1.0  0.73880  0.82700  0.00760  1.0000 -0.1911151831
C   C71       1.0  0.76120  0.17300  0.50760  1.0000 -0.1911151831
C   C72       1.0  0.23880  0.67300  0.99240  1.0000 -0.1911151831
C   C73       1.0  0.47880  0.69200  0.68880  1.0000 -0.1981051617
C   C74       1.0  0.02120  0.30800  0.18880  1.0000 -0.1981051617
C   C75       1.0  0.52120  0.19200  0.81120  1.0000 -0.1981051617
C   C76       1.0  0.97880  0.80800  0.31120  1.0000 -0.1981051617
C   C77       1.0  0.68880  0.47880  0.69200  1.0000 -0.1981051617
C   C78       1.0  0.18880  0.02120  0.30800  1.0000 -0.1981051617
C   C79       1.0  0.81120  0.52120  0.19200  1.0000 -0.1981051617
C   C80       1.0  0.31120  0.97880  0.80800  1.0000 -0.1981051617
C   C81       1.0  0.69200  0.68880  0.47880  1.0000 -0.1981051617
C   C82       1.0  0.30800  0.18880  0.02120  1.0000 -0.1981051617
C   C83       1.0  0.19200  0.81120  0.52120  1.0000 -0.1981051617
C   C84       1.0  0.80800  0.31120  0.97880  1.0000 -0.1981051617
C   C85       1.0  0.52120  0.30800  0.31120  1.0000 -0.1981051617
C   C86       1.0  0.97880  0.69200  0.81120  1.0000 -0.1981051617
C   C87       1.0  0.47880  0.80800  0.18880  1.0000 -0.1981051617
C   C88       1.0  0.02120  0.19200  0.68880  1.0000 -0.1981051617
C   C89       1.0  0.31120  0.52120  0.30800  1.0000 -0.1981051617
C   C90       1.0  0.81120  0.97880  0.69200  1.0000 -0.1981051617
C   C91       1.0  0.18880  0.47880  0.80800  1.0000 -0.1981051617
C   C92       1.0  0.68880  0.02120  0.19200  1.0000 -0.1981051617
C   C93       1.0  0.30800  0.31120  0.52120  1.0000 -0.1981051617
C   C94       1.0  0.69200  0.81120  0.97880  1.0000 -0.1981051617
C   C95       1.0  0.80800  0.18880  0.47880  1.0000 -0.1981051617
C   C96       1.0  0.19200  0.68880  0.02120  1.0000 -0.1981051617
C   C97       1.0  0.49000  0.73920  0.64490  1.0000 0.0603752363
C   C98       1.0  0.01000  0.26080  0.14490  1.0000 0.0603752363
C   C99       1.0  0.51000  0.23920  0.85510  1.0000 0.0603752363
C   C100      1.0  0.99000  0.76080  0.35510  1.0000 0.0603752363
C   C101      1.0  0.64490  0.49000  0.73920  1.0000 0.0603752363
C   C102      1.0  0.14490  0.01000  0.26080  1.0000 0.0603752363
C   C103      1.0  0.85510  0.51000  0.23920  1.0000 0.0603752363
C   C104      1.0  0.35510  0.99000  0.76080  1.0000 0.0603752363
C   C105      1.0  0.73920  0.64490  0.49000  1.0000 0.0603752363
C   C106      1.0  0.26080  0.14490  0.01000  1.0000 0.0603752363
C   C107      1.0  0.23920  0.85510  0.51000  1.0000 0.0603752363
C   C108      1.0  0.76080  0.35510  0.99000  1.0000 0.0603752363
C   C109      1.0  0.51000  0.26080  0.35510  1.0000 0.0603752363
C   C110      1.0  0.99000  0.73920  0.85510  1.0000 0.0603752363
C   C111      1.0  0.49000  0.76080  0.14490  1.0000 0.0603752363
C   C112      1.0  0.01000  0.23920  0.64490  1.0000 0.0603752363
C   C113      1.0  0.35510  0.51000  0.26080  1.0000 0.0603752363
C   C114      1.0  0.85510  0.99000  0.73920  1.0000 0.0603752363
C   C115      1.0  0.14490  0.49000  0.76080  1.0000 0.0603752363
C   C116      1.0  0.64490  0.01000  0.23920  1.0000 0.0603752363
C   C117      1.0  0.26080  0.35510  0.51000  1.0000 0.0603752363
C   C118      1.0  0.73920  0.85510  0.99000  1.0000 0.0603752363
C   C119      1.0  0.76080  0.14490  0.49000  1.0000 0.0603752363
C   C120      1.0  0.23920  0.64490  0.01000  1.0000 0.0603752363
C   C121      1.0  0.46310  0.69450  0.65880  1.0000 0.0733829403
C   C122      1.0  0.03690  0.30550  0.15880  1.0000 0.0733829403
C   C123      1.0  0.53690  0.19450  0.84120  1.0000 0.0733829403
C   C124      1.0  0.96310  0.80550  0.34120  1.0000 0.0733829403
C   C125      1.0  0.65880  0.46310  0.69450  1.0000 0.0733829403
C   C126      1.0  0.15880  0.03690  0.30550  1.0000 0.0733829403
C   C127      1.0  0.84120  0.53690  0.19450  1.0000 0.0733829403
C   C128      1.0  0.34120  0.96310  0.80550  1.0000 0.0733829403
C   C129      1.0  0.69450  0.65880  0.46310  1.0000 0.0733829403
C   C130      1.0  0.30550  0.15880  0.03690  1.0000 0.0733829403
C   C131      1.0  0.19450  0.84120  0.53690  1.0000 0.0733829403
C   C132      1.0  0.80550  0.34120  0.96310  1.0000 0.0733829403
C   C133      1.0  0.53690  0.30550  0.34120  1.0000 0.0733829403
C   C134      1.0  0.96310  0.69450  0.84120  1.0000 0.0733829403
C   C135      1.0  0.46310  0.80550  0.15880  1.0000 0.0733829403
C   C136      1.0  0.03690  0.19450  0.65880  1.0000 0.0733829403
C   C137      1.0  0.34120  0.53690  0.30550  1.0000 0.0733829403
C   C138      1.0  0.84120  0.96310  0.69450  1.0000 0.0733829403
C   C139      1.0  0.15880  0.46310  0.80550  1.0000 0.0733829403
C   C140      1.0  0.65880  0.03690  0.19450  1.0000 0.0733829403
C   C141      1.0  0.30550  0.34120  0.53690  1.0000 0.0733829403
C   C142      1.0  0.69450  0.84120  0.96310  1.0000 0.0733829403
C   C143      1.0  0.80550  0.15880  0.46310  1.0000 0.0733829403
C   C144      1.0  0.19450  0.65880  0.03690  1.0000 0.0733829403
C   C145      1.0  0.65260  0.67120  0.79150  1.0000 0.2382367735
C   C146      1.0  0.84740  0.32880  0.29150  1.0000 0.2382367735
C   C147      1.0  0.34740  0.17120  0.70850  1.0000 0.2382367735
C   C148      1.0  0.15260  0.82880  0.20850  1.0000 0.2382367735
C   C149      1.0  0.79150  0.65260  0.67120  1.0000 0.2382367735
C   C150      1.0  0.29150  0.84740  0.32880  1.0000 0.2382367735
C   C151      1.0  0.70850  0.34740  0.17120  1.0000 0.2382367735
C   C152      1.0  0.20850  0.15260  0.82880  1.0000 0.2382367735
C   C153      1.0  0.67120  0.79150  0.65260  1.0000 0.2382367735
C   C154      1.0  0.32880  0.29150  0.84740  1.0000 0.2382367735
C   C155      1.0  0.17120  0.70850  0.34740  1.0000 0.2382367735
C   C156      1.0  0.82880  0.20850  0.15260  1.0000 0.2382367735
C   C157      1.0  0.34740  0.32880  0.20850  1.0000 0.2382367735
C   C158      1.0  0.15260  0.67120  0.70850  1.0000 0.2382367735
C   C159      1.0  0.65260  0.82880  0.29150  1.0000 0.2382367735
C   C160      1.0  0.84740  0.17120  0.79150  1.0000 0.2382367735
C   C161      1.0  0.20850  0.34740  0.32880  1.0000 0.2382367735
C   C162      1.0  0.70850  0.15260  0.67120  1.0000 0.2382367735
C   C163      1.0  0.29150  0.65260  0.82880  1.0000 0.2382367735
C   C164      1.0  0.79150  0.84740  0.17120  1.0000 0.2382367735
C   C165      1.0  0.32880  0.20850  0.34740  1.0000 0.2382367735
C   C166      1.0  0.67120  0.70850  0.15260  1.0000 0.2382367735
C   C167      1.0  0.82880  0.29150  0.65260  1.0000 0.2382367735
C   C168      1.0  0.17120  0.79150  0.84740  1.0000 0.2382367735
C   C169      1.0  0.68170  0.65300  0.78220  1.0000 0.0911672275
C   C170      1.0  0.81830  0.34700  0.28220  1.0000 0.0911672275
C   C171      1.0  0.31830  0.15300  0.71780  1.0000 0.0911672275
C   C172      1.0  0.18170  0.84700  0.21780  1.0000 0.0911672275
C   C173      1.0  0.78220  0.68170  0.65300  1.0000 0.0911672275
C   C174      1.0  0.28220  0.81830  0.34700  1.0000 0.0911672275
C   C175      1.0  0.71780  0.31830  0.15300  1.0000 0.0911672275
C   C176      1.0  0.21780  0.18170  0.84700  1.0000 0.0911672275
C   C177      1.0  0.65300  0.78220  0.68170  1.0000 0.0911672275
C   C178      1.0  0.34700  0.28220  0.81830  1.0000 0.0911672275
C   C179      1.0  0.15300  0.71780  0.31830  1.0000 0.0911672275
C   C180      1.0  0.84700  0.21780  0.18170  1.0000 0.0911672275
C   C181      1.0  0.31830  0.34700  0.21780  1.0000 0.0911672275
C   C182      1.0  0.18170  0.65300  0.71780  1.0000 0.0911672275
C   C183      1.0  0.68170  0.84700  0.28220  1.0000 0.0911672275
C   C184      1.0  0.81830  0.15300  0.78220  1.0000 0.0808087225
C   C185      1.0  0.21780  0.31830  0.34700  1.0000 0.0911672275
C   C186      1.0  0.71780  0.18170  0.65300  1.0000 0.0911672275
C   C187      1.0  0.28220  0.68170  0.84700  1.0000 0.0911672275
C   C188      1.0  0.78220  0.81830  0.15300  1.0000 0.0808087225
C   C189      1.0  0.34700  0.21780  0.31830  1.0000 0.0911672275
C   C190      1.0  0.65300  0.71780  0.18170  1.0000 0.0911672275
C   C191      1.0  0.84700  0.28220  0.68170  1.0000 0.0911672275
C   C192      1.0  0.15300  0.78220  0.81830  1.0000 0.0808087225
C   C193      1.0  0.68490  0.62100  0.78830  1.0000 -0.1911151831
C   C194      1.0  0.81510  0.37900  0.28830  1.0000 -0.1911151831
C   C195      1.0  0.31510  0.12100  0.71170  1.0000 -0.1911151831
C   C196      1.0  0.18490  0.87900  0.21170  1.0000 -0.1911151831
C   C197      1.0  0.78830  0.68490  0.62100  1.0000 -0.1911151831
C   C198      1.0  0.28830  0.81510  0.37900  1.0000 -0.1911151831
C   C199      1.0  0.71170  0.31510  0.12100  1.0000 -0.1911151831
C   C200      1.0  0.21170  0.18490  0.87900  1.0000 -0.1911151831
C   C201      1.0  0.62100  0.78830  0.68490  1.0000 -0.1911151831
C   C202      1.0  0.37900  0.28830  0.81510  1.0000 -0.1911151831
C   C203      1.0  0.12100  0.71170  0.31510  1.0000 -0.1911151831
C   C204      1.0  0.87900  0.21170  0.18490  1.0000 -0.1911151831
C   C205      1.0  0.31510  0.37900  0.21170  1.0000 -0.1911151831
C   C206      1.0  0.18490  0.62100  0.71170  1.0000 -0.1911151831
C   C207      1.0  0.68490  0.87900  0.28830  1.0000 -0.1911151831
C   C208      1.0  0.81510  0.12100  0.78830  1.0000 -0.1911151831
C   C209      1.0  0.21170  0.31510  0.37900  1.0000 -0.1911151831
C   C210      1.0  0.71170  0.18490  0.62100  1.0000 -0.1911151831
C   C211      1.0  0.28830  0.68490  0.87900  1.0000 -0.1911151831
C   C212      1.0  0.78830  0.81510  0.12100  1.0000 -0.1911151831
C   C213      1.0  0.37900  0.21170  0.31510  1.0000 -0.1911151831
C   C214      1.0  0.62100  0.71170  0.18490  1.0000 -0.1911151831
C   C215      1.0  0.87900  0.28830  0.68490  1.0000 -0.1911151831
C   C216      1.0  0.12100  0.78830  0.81510  1.0000 -0.1911151831
C   C217      1.0  0.70760  0.66850  0.76870  1.0000 -0.1911151831
C   C218      1.0  0.79240  0.33150  0.26870  1.0000 -0.1911151831
C   C219      1.0  0.29240  0.16850  0.73130  1.0000 -0.1911151831
C   C220      1.0  0.20760  0.83150  0.23130  1.0000 -0.1911151831
C   C221      1.0  0.76870  0.70760  0.66850  1.0000 -0.1911151831
C   C222      1.0  0.26870  0.79240  0.33150  1.0000 -0.1911151831
C   C223      1.0  0.73130  0.29240  0.16850  1.0000 -0.1911151831
C   C224      1.0  0.23130  0.20760  0.83150  1.0000 -0.1911151831
C   C225      1.0  0.66850  0.76870  0.70760  1.0000 -0.1911151831
C   C226      1.0  0.33150  0.26870  0.79240  1.0000 -0.1911151831
C   C227      1.0  0.16850  0.73130  0.29240  1.0000 -0.1911151831
C   C228      1.0  0.83150  0.23130  0.20760  1.0000 -0.1911151831
C   C229      1.0  0.29240  0.33150  0.23130  1.0000 -0.1911151831
C   C230      1.0  0.20760  0.66850  0.73130  1.0000 -0.1911151831
C   C231      1.0  0.70760  0.83150  0.26870  1.0000 -0.1911151831
C   C232      1.0  0.79240  0.16850  0.76870  1.0000 -0.1911151831
C   C233      1.0  0.23130  0.29240  0.33150  1.0000 -0.1911151831
C   C234      1.0  0.73130  0.20760  0.66850  1.0000 -0.1911151831
C   C235      1.0  0.26870  0.70760  0.83150  1.0000 -0.1911151831
C   C236      1.0  0.76870  0.79240  0.16850  1.0000 -0.1911151831
C   C237      1.0  0.33150  0.23130  0.29240  1.0000 -0.1911151831
C   C238      1.0  0.66850  0.73130  0.20760  1.0000 -0.1911151831
C   C239      1.0  0.83150  0.26870  0.70760  1.0000 -0.1911151831
C   C240      1.0  0.16850  0.76870  0.79240  1.0000 -0.1911151831
C   C241      1.0  0.71350  0.60590  0.77970  1.0000 0.0504706248
C   C242      1.0  0.78650  0.39410  0.27970  1.0000 0.0504706248
C   C243      1.0  0.28650  0.10590  0.72030  1.0000 0.0504706248
C   C244      1.0  0.21350  0.89410  0.22030  1.0000 0.0504706248
C   C245      1.0  0.77970  0.71350  0.60590  1.0000 0.0504706248
C   C246      1.0  0.27970  0.78650  0.39410  1.0000 0.0504706248
C   C247      1.0  0.72030  0.28650  0.10590  1.0000 0.0504706248
C   C248      1.0  0.22030  0.21350  0.89410  1.0000 0.0504706248
C   C249      1.0  0.60590  0.77970  0.71350  1.0000 0.0504706248
C   C250      1.0  0.39410  0.27970  0.78650  1.0000 0.0504706248
C   C251      1.0  0.10590  0.72030  0.28650  1.0000 0.0504706248
C   C252      1.0  0.89410  0.22030  0.21350  1.0000 0.0504706248
C   C253      1.0  0.28650  0.39410  0.22030  1.0000 0.0504706248
C   C254      1.0  0.21350  0.60590  0.72030  1.0000 0.0504706248
C   C255      1.0  0.71350  0.89410  0.27970  1.0000 0.0504706248
C   C256      1.0  0.78650  0.10590  0.77970  1.0000 0.0504706248
C   C257      1.0  0.22030  0.28650  0.39410  1.0000 0.0504706248
C   C258      1.0  0.72030  0.21350  0.60590  1.0000 0.0504706248
C   C259      1.0  0.27970  0.71350  0.89410  1.0000 0.0504706248
C   C260      1.0  0.77970  0.78650  0.10590  1.0000 0.0504706248
C   C261      1.0  0.39410  0.22030  0.28650  1.0000 0.0504706248
C   C262      1.0  0.60590  0.72030  0.21350  1.0000 0.0504706248
C   C263      1.0  0.89410  0.27970  0.71350  1.0000 0.0504706248
C   C264      1.0  0.10590  0.77970  0.78650  1.0000 0.0504706248
C   C265      1.0  0.73470  0.65110  0.75970  1.0000 0.0603752363
C   C266      1.0  0.76530  0.34890  0.25970  1.0000 0.0603752363
C   C267      1.0  0.26530  0.15110  0.74030  1.0000 0.0603752363
C   C268      1.0  0.23470  0.84890  0.24030  1.0000 0.0603752363
C   C269      1.0  0.75970  0.73470  0.65110  1.0000 0.0603752363
C   C270      1.0  0.25970  0.76530  0.34890  1.0000 0.0603752363
C   C271      1.0  0.74030  0.26530  0.15110  1.0000 0.0603752363
C   C272      1.0  0.24030  0.23470  0.84890  1.0000 0.0603752363
C   C273      1.0  0.65110  0.75970  0.73470  1.0000 0.0603752363
C   C274      1.0  0.34890  0.25970  0.76530  1.0000 0.0603752363
C   C275      1.0  0.15110  0.74030  0.26530  1.0000 0.0603752363
C   C276      1.0  0.84890  0.24030  0.23470  1.0000 0.0603752363
C   C277      1.0  0.26530  0.34890  0.24030  1.0000 0.0603752363
C   C278      1.0  0.23470  0.65110  0.74030  1.0000 0.0603752363
C   C279      1.0  0.73470  0.84890  0.25970  1.0000 0.0603752363
C   C280      1.0  0.76530  0.15110  0.75970  1.0000 0.0603752363
C   C281      1.0  0.24030  0.26530  0.34890  1.0000 0.0603752363
C   C282      1.0  0.74030  0.23470  0.65110  1.0000 0.0603752363
C   C283      1.0  0.25970  0.73470  0.84890  1.0000 0.0603752363
C   C284      1.0  0.75970  0.76530  0.15110  1.0000 0.0603752363
C   C285      1.0  0.34890  0.24030  0.26530  1.0000 0.0603752363
C   C286      1.0  0.65110  0.74030  0.23470  1.0000 0.0603752363
C   C287      1.0  0.84890  0.25970  0.73470  1.0000 0.0603752363
C   C288      1.0  0.15110  0.75970  0.76530  1.0000 0.0603752363
C   C289      1.0  0.53530  0.75960  0.87730  1.0000 0.2208475389
C   C290      1.0  0.96470  0.24040  0.37730  1.0000 0.2208475389
C   C291      1.0  0.46470  0.25960  0.62270  1.0000 0.2208475389
C   C292      1.0  0.03530  0.74040  0.12270  1.0000 0.2208475389
C   C293      1.0  0.87730  0.53530  0.75960  1.0000 0.2208475389
C   C294      1.0  0.37730  0.96470  0.24040  1.0000 0.2208475389
C   C295      1.0  0.62270  0.46470  0.25960  1.0000 0.2208475389
C   C296      1.0  0.12270  0.03530  0.74040  1.0000 0.2208475389
C   C297      1.0  0.75960  0.87730  0.53530  1.0000 0.2208475389
C   C298      1.0  0.24040  0.37730  0.96470  1.0000 0.2208475389
C   C299      1.0  0.25960  0.62270  0.46470  1.0000 0.2208475389
C   C300      1.0  0.74040  0.12270  0.03530  1.0000 0.2208475389
C   C301      1.0  0.46470  0.24040  0.12270  1.0000 0.2208475389
C   C302      1.0  0.03530  0.75960  0.62270  1.0000 0.2208475389
C   C303      1.0  0.53530  0.74040  0.37730  1.0000 0.2208475389
C   C304      1.0  0.96470  0.25960  0.87730  1.0000 0.2208475389
C   C305      1.0  0.12270  0.46470  0.24040  1.0000 0.2208475389
C   C306      1.0  0.62270  0.03530  0.75960  1.0000 0.2208475389
C   C307      1.0  0.37730  0.53530  0.74040  1.0000 0.2208475389
C   C308      1.0  0.87730  0.96470  0.25960  1.0000 0.2208475389
C   C309      1.0  0.24040  0.12270  0.46470  1.0000 0.2208475389
C   C310      1.0  0.75960  0.62270  0.03530  1.0000 0.2208475389
C   C311      1.0  0.74040  0.37730  0.53530  1.0000 0.2208475389
C   C312      1.0  0.25960  0.87730  0.96470  1.0000 0.2208475389
C   C313      1.0  0.51920  0.77560  0.90480  1.0000 0.0808087225
C   C314      1.0  0.98080  0.22440  0.40480  1.0000 0.0808087225
C   C315      1.0  0.48080  0.27560  0.59520  1.0000 0.0808087225
C   C316      1.0  0.01920  0.72440  0.09520  1.0000 0.0808087225
C   C317      1.0  0.90480  0.51920  0.77560  1.0000 0.0808087225
C   C318      1.0  0.40480  0.98080  0.22440  1.0000 0.0808087225
C   C319      1.0  0.59520  0.48080  0.27560  1.0000 0.0808087225
C   C320      1.0  0.09520  0.01920  0.72440  1.0000 0.0808087225
C   C321      1.0  0.77560  0.90480  0.51920  1.0000 0.0808087225
C   C322      1.0  0.22440  0.40480  0.98080  1.0000 0.0808087225
C   C323      1.0  0.27560  0.59520  0.48080  1.0000 0.0808087225
C   C324      1.0  0.72440  0.09520  0.01920  1.0000 0.0808087225
C   C325      1.0  0.48080  0.22440  0.09520  1.0000 0.0808087225
C   C326      1.0  0.01920  0.77560  0.59520  1.0000 0.0808087225
C   C327      1.0  0.51920  0.72440  0.40480  1.0000 0.0808087225
C   C328      1.0  0.98080  0.27560  0.90480  1.0000 0.0808087225
C   C329      1.0  0.09520  0.48080  0.22440  1.0000 0.0808087225
C   C330      1.0  0.59520  0.01920  0.77560  1.0000 0.0808087225
C   C331      1.0  0.40480  0.51920  0.72440  1.0000 0.0808087225
C   C332      1.0  0.90480  0.98080  0.27560  1.0000 0.0808087225
C   C333      1.0  0.22440  0.09520  0.48080  1.0000 0.0808087225
C   C334      1.0  0.77560  0.59520  0.01920  1.0000 0.0808087225
C   C335      1.0  0.72440  0.40480  0.51920  1.0000 0.0808087225
C   C336      1.0  0.27560  0.90480  0.98080  1.0000 0.0808087225
C   C337      1.0  0.51610  0.80840  0.90570  1.0000 -0.1911151831
C   C338      1.0  0.98390  0.19160  0.40570  1.0000 -0.1911151831
C   C339      1.0  0.48390  0.30840  0.59430  1.0000 -0.1911151831
C   C340      1.0  0.01610  0.69160  0.09430  1.0000 -0.1911151831
C   C341      1.0  0.90570  0.51610  0.80840  1.0000 -0.1911151831
C   C342      1.0  0.40570  0.98390  0.19160  1.0000 -0.1911151831
C   C343      1.0  0.59430  0.48390  0.30840  1.0000 -0.1911151831
C   C344      1.0  0.09430  0.01610  0.69160  1.0000 -0.1911151831
C   C345      1.0  0.80840  0.90570  0.51610  1.0000 -0.1911151831
C   C346      1.0  0.19160  0.40570  0.98390  1.0000 -0.1911151831
C   C347      1.0  0.30840  0.59430  0.48390  1.0000 -0.1911151831
C   C348      1.0  0.69160  0.09430  0.01610  1.0000 -0.1911151831
C   C349      1.0  0.48390  0.19160  0.09430  1.0000 -0.1911151831
C   C350      1.0  0.01610  0.80840  0.59430  1.0000 -0.1911151831
C   C351      1.0  0.51610  0.69160  0.40570  1.0000 -0.1911151831
C   C352      1.0  0.98390  0.30840  0.90570  1.0000 -0.1911151831
C   C353      1.0  0.09430  0.48390  0.19160  1.0000 -0.1911151831
C   C354      1.0  0.59430  0.01610  0.80840  1.0000 -0.1911151831
C   C355      1.0  0.40570  0.51610  0.69160  1.0000 -0.1911151831
C   C356      1.0  0.90570  0.98390  0.30840  1.0000 -0.1911151831
C   C357      1.0  0.19160  0.09430  0.48390  1.0000 -0.1911151831
C   C358      1.0  0.80840  0.59430  0.01610  1.0000 -0.1911151831
C   C359      1.0  0.69160  0.40570  0.51610  1.0000 -0.1911151831
C   C360      1.0  0.30840  0.90570  0.98390  1.0000 -0.1911151831
C   C361      1.0  0.50630  0.75770  0.92930  1.0000 -0.1824199623
C   C362      1.0  0.99370  0.24230  0.42930  1.0000 -0.1824199623
C   C363      1.0  0.49370  0.25770  0.57070  1.0000 -0.1824199623
C   C364      1.0  0.00630  0.74230  0.07070  1.0000 -0.1824199623
C   C365      1.0  0.92930  0.50630  0.75770  1.0000 -0.1824199623
C   C366      1.0  0.42930  0.99370  0.24230  1.0000 -0.1824199623
C   C367      1.0  0.57070  0.49370  0.25770  1.0000 -0.1824199623
C   C368      1.0  0.07070  0.00630  0.74230  1.0000 -0.1824199623
C   C369      1.0  0.75770  0.92930  0.50630  1.0000 -0.1824199623
C   C370      1.0  0.24230  0.42930  0.99370  1.0000 -0.1824199623
C   C371      1.0  0.25770  0.57070  0.49370  1.0000 -0.1824199623
C   C372      1.0  0.74230  0.07070  0.00630  1.0000 -0.1824199623
C   C373      1.0  0.49370  0.24230  0.07070  1.0000 -0.1824199623
C   C374      1.0  0.00630  0.75770  0.57070  1.0000 -0.1824199623
C   C375      1.0  0.50630  0.74230  0.42930  1.0000 -0.1824199623
C   C376      1.0  0.99370  0.25770  0.92930  1.0000 -0.1824199623
C   C377      1.0  0.07070  0.49370  0.24230  1.0000 -0.1824199623
C   C378      1.0  0.57070  0.00630  0.75770  1.0000 -0.1824199623
C   C379      1.0  0.42930  0.50630  0.74230  1.0000 -0.1824199623
C   C380      1.0  0.92930  0.99370  0.25770  1.0000 -0.1824199623
C   C381      1.0  0.24230  0.07070  0.49370  1.0000 -0.1824199623
C   C382      1.0  0.75770  0.57070  0.00630  1.0000 -0.1824199623
C   C383      1.0  0.74230  0.42930  0.50630  1.0000 -0.1824199623
C   C384      1.0  0.25770  0.92930  0.99370  1.0000 -0.1824199623
C   C385      1.0  0.49120  0.77430  0.95390  1.0000 0.0733829403
C   C386      1.0  0.00880  0.22570  0.45390  1.0000 0.0733829403
C   C387      1.0  0.50880  0.27430  0.54610  1.0000 0.0733829403
C   C388      1.0  0.99120  0.72570  0.04610  1.0000 0.0733829403
C   C389      1.0  0.95390  0.49120  0.77430  1.0000 0.0733829403
C   C390      1.0  0.45390  0.00880  0.22570  1.0000 0.0733829403
C   C391      1.0  0.54610  0.50880  0.27430  1.0000 0.0733829403
C   C392      1.0  0.04610  0.99120  0.72570  1.0000 0.0733829403
C   C393      1.0  0.77430  0.95390  0.49120  1.0000 0.0733829403
C   C394      1.0  0.22570  0.45390  0.00880  1.0000 0.0733829403
C   C395      1.0  0.27430  0.54610  0.50880  1.0000 0.0733829403
C   C396      1.0  0.72570  0.04610  0.99120  1.0000 0.0733829403
C   C397      1.0  0.50880  0.22570  0.04610  1.0000 0.0733829403
C   C398      1.0  0.99120  0.77430  0.54610  1.0000 0.0733829403
C   C399      1.0  0.49120  0.72570  0.45390  1.0000 0.0733829403
C   C400      1.0  0.00880  0.27430  0.95390  1.0000 0.0733829403
C   C401      1.0  0.04610  0.50880  0.22570  1.0000 0.0733829403
C   C402      1.0  0.54610  0.99120  0.77430  1.0000 0.0733829403
C   C403      1.0  0.45390  0.49120  0.72570  1.0000 0.0733829403
C   C404      1.0  0.95390  0.00880  0.27430  1.0000 0.0733829403
C   C405      1.0  0.22570  0.04610  0.50880  1.0000 0.0733829403
C   C406      1.0  0.77430  0.54610  0.99120  1.0000 0.0733829403
C   C407      1.0  0.72570  0.45390  0.49120  1.0000 0.0733829403
C   C408      1.0  0.27430  0.95390  0.00880  1.0000 0.0733829403
C   C409      1.0  0.50330  0.82190  0.93360  1.0000 0.0603752363
C   C410      1.0  0.99670  0.17810  0.43360  1.0000 0.0603752363
C   C411      1.0  0.49670  0.32190  0.56640  1.0000 0.0603752363
C   C412      1.0  0.00330  0.67810  0.06640  1.0000 0.0603752363
C   C413      1.0  0.93360  0.50330  0.82190  1.0000 0.0603752363
C   C414      1.0  0.43360  0.99670  0.17810  1.0000 0.0603752363
C   C415      1.0  0.56640  0.49670  0.32190  1.0000 0.0603752363
C   C416      1.0  0.06640  0.00330  0.67810  1.0000 0.0603752363
C   C417      1.0  0.82190  0.93360  0.50330  1.0000 0.0603752363
C   C418      1.0  0.17810  0.43360  0.99670  1.0000 0.0603752363
C   C419      1.0  0.32190  0.56640  0.49670  1.0000 0.0603752363
C   C420      1.0  0.67810  0.06640  0.00330  1.0000 0.0603752363
C   C421      1.0  0.49670  0.17810  0.06640  1.0000 0.0603752363
C   C422      1.0  0.00330  0.82190  0.56640  1.0000 0.0603752363
C   C423      1.0  0.50330  0.67810  0.43360  1.0000 0.0603752363
C   C424      1.0  0.99670  0.32190  0.93360  1.0000 0.0603752363
C   C425      1.0  0.06640  0.49670  0.17810  1.0000 0.0603752363
C   C426      1.0  0.56640  0.00330  0.82190  1.0000 0.0603752363
C   C427      1.0  0.43360  0.50330  0.67810  1.0000 0.0603752363
C   C428      1.0  0.93360  0.99670  0.32190  1.0000 0.0603752363
C   C429      1.0  0.17810  0.06640  0.49670  1.0000 0.0603752363
C   C430      1.0  0.82190  0.56640  0.00330  1.0000 0.0603752363
C   C431      1.0  0.67810  0.43360  0.50330  1.0000 0.0603752363
C   C432      1.0  0.32190  0.93360  0.99670  1.0000 0.0603752363
C   C433      1.0  0.54760  0.53620  0.74720  1.0000 0.2519912382
C   C434      1.0  0.95240  0.46380  0.24720  1.0000 0.2519912382
C   C435      1.0  0.45240  0.03620  0.75280  1.0000 0.2519912382
C   C436      1.0  0.04760  0.96380  0.25280  1.0000 0.2519912382
C   C437      1.0  0.74720  0.54760  0.53620  1.0000 0.2519912382
C   C438      1.0  0.24720  0.95240  0.46380  1.0000 0.2519912382
C   C439      1.0  0.75280  0.45240  0.03620  1.0000 0.2519912382
C   C440      1.0  0.25280  0.04760  0.96380  1.0000 0.2519912382
C   C441      1.0  0.53620  0.74720  0.54760  1.0000 0.2519912382
C   C442      1.0  0.46380  0.24720  0.95240  1.0000 0.2519912382
C   C443      1.0  0.03620  0.75280  0.45240  1.0000 0.2519912382
C   C444      1.0  0.96380  0.25280  0.04760  1.0000 0.2519912382
C   C445      1.0  0.45240  0.46380  0.25280  1.0000 0.2519912382
C   C446      1.0  0.04760  0.53620  0.75280  1.0000 0.2519912382
C   C447      1.0  0.54760  0.96380  0.24720  1.0000 0.2519912382
C   C448      1.0  0.95240  0.03620  0.74720  1.0000 0.2519912382
C   C449      1.0  0.25280  0.45240  0.46380  1.0000 0.2519912382
C   C450      1.0  0.75280  0.04760  0.53620  1.0000 0.2519912382
C   C451      1.0  0.24720  0.54760  0.96380  1.0000 0.2519912382
C   C452      1.0  0.74720  0.95240  0.03620  1.0000 0.2519912382
C   C453      1.0  0.46380  0.25280  0.45240  1.0000 0.2519912382
C   C454      1.0  0.53620  0.75280  0.04760  1.0000 0.2519912382
C   C455      1.0  0.96380  0.24720  0.54760  1.0000 0.2519912382
C   C456      1.0  0.03620  0.74720  0.95240  1.0000 0.2519912382
C   C457      1.0  0.54900  0.56640  0.76590  1.0000 0.0911672275
C   C458      1.0  0.95100  0.43360  0.26590  1.0000 0.0911672275
C   C459      1.0  0.45100  0.06640  0.73410  1.0000 0.0911672275
C   C460      1.0  0.04900  0.93360  0.23410  1.0000 0.0911672275
C   C461      1.0  0.76590  0.54900  0.56640  1.0000 0.0911672275
C   C462      1.0  0.26590  0.95100  0.43360  1.0000 0.0911672275
C   C463      1.0  0.73410  0.45100  0.06640  1.0000 0.0911672275
C   C464      1.0  0.23410  0.04900  0.93360  1.0000 0.0911672275
C   C465      1.0  0.56640  0.76590  0.54900  1.0000 0.0911672275
C   C466      1.0  0.43360  0.26590  0.95100  1.0000 0.0911672275
C   C467      1.0  0.06640  0.73410  0.45100  1.0000 0.0911672275
C   C468      1.0  0.93360  0.23410  0.04900  1.0000 0.0911672275
C   C469      1.0  0.45100  0.43360  0.23410  1.0000 0.0911672275
C   C470      1.0  0.04900  0.56640  0.73410  1.0000 0.0911672275
C   C471      1.0  0.54900  0.93360  0.26590  1.0000 0.0911672275
C   C472      1.0  0.95100  0.06640  0.76590  1.0000 0.0911672275
C   C473      1.0  0.23410  0.45100  0.43360  1.0000 0.0911672275
C   C474      1.0  0.73410  0.04900  0.56640  1.0000 0.0911672275
C   C475      1.0  0.26590  0.54900  0.93360  1.0000 0.0911672275
C   C476      1.0  0.76590  0.95100  0.06640  1.0000 0.0911672275
C   C477      1.0  0.43360  0.23410  0.45100  1.0000 0.0911672275
C   C478      1.0  0.56640  0.73410  0.04900  1.0000 0.0911672275
C   C479      1.0  0.93360  0.26590  0.54900  1.0000 0.0911672275
C   C480      1.0  0.06640  0.76590  0.95100  1.0000 0.0911672275
C   C481      1.0  0.57130  0.57270  0.78950  1.0000 -0.1911151831
C   C482      1.0  0.92870  0.42730  0.28950  1.0000 -0.1911151831
C   C483      1.0  0.42870  0.07270  0.71050  1.0000 -0.1911151831
C   C484      1.0  0.07130  0.92730  0.21050  1.0000 -0.1911151831
C   C485      1.0  0.78950  0.57130  0.57270  1.0000 -0.1911151831
C   C486      1.0  0.28950  0.92870  0.42730  1.0000 -0.1911151831
C   C487      1.0  0.71050  0.42870  0.07270  1.0000 -0.1911151831
C   C488      1.0  0.21050  0.07130  0.92730  1.0000 -0.1911151831
C   C489      1.0  0.57270  0.78950  0.57130  1.0000 -0.1911151831
C   C490      1.0  0.42730  0.28950  0.92870  1.0000 -0.1911151831
C   C491      1.0  0.07270  0.71050  0.42870  1.0000 -0.1911151831
C   C492      1.0  0.92730  0.21050  0.07130  1.0000 -0.1911151831
C   C493      1.0  0.42870  0.42730  0.21050  1.0000 -0.1911151831
C   C494      1.0  0.07130  0.57270  0.71050  1.0000 -0.1911151831
C   C495      1.0  0.57130  0.92730  0.28950  1.0000 -0.1911151831
C   C496      1.0  0.92870  0.07270  0.78950  1.0000 -0.1911151831
C   C497      1.0  0.21050  0.42870  0.42730  1.0000 -0.1911151831
C   C498      1.0  0.71050  0.07130  0.57270  1.0000 -0.1911151831
C   C499      1.0  0.28950  0.57130  0.92730  1.0000 -0.1911151831
C   C500      1.0  0.78950  0.92870  0.07270  1.0000 -0.1911151831
C   C501      1.0  0.42730  0.21050  0.42870  1.0000 -0.1911151831
C   C502      1.0  0.57270  0.71050  0.07130  1.0000 -0.1911151831
C   C503      1.0  0.92730  0.28950  0.57130  1.0000 -0.1911151831
C   C504      1.0  0.07270  0.78950  0.92870  1.0000 -0.1911151831
C   C505      1.0  0.52500  0.58950  0.75980  1.0000 -0.1911151831
C   C506      1.0  0.97500  0.41050  0.25980  1.0000 -0.1911151831
C   C507      1.0  0.47500  0.08950  0.74020  1.0000 -0.1911151831
C   C508      1.0  0.02500  0.91050  0.24020  1.0000 -0.1911151831
C   C509      1.0  0.75980  0.52500  0.58950  1.0000 -0.1911151831
C   C510      1.0  0.25980  0.97500  0.41050  1.0000 -0.1911151831
C   C511      1.0  0.74020  0.47500  0.08950  1.0000 -0.1911151831
C   C512      1.0  0.24020  0.02500  0.91050  1.0000 -0.1911151831
C   C513      1.0  0.58950  0.75980  0.52500  1.0000 -0.1911151831
C   C514      1.0  0.41050  0.25980  0.97500  1.0000 -0.1911151831
C   C515      1.0  0.08950  0.74020  0.47500  1.0000 -0.1911151831
C   C516      1.0  0.91050  0.24020  0.02500  1.0000 -0.1911151831
C   C517      1.0  0.47500  0.41050  0.24020  1.0000 -0.1911151831
C   C518      1.0  0.02500  0.58950  0.74020  1.0000 -0.1911151831
C   C519      1.0  0.52500  0.91050  0.25980  1.0000 -0.1911151831
C   C520      1.0  0.97500  0.08950  0.75980  1.0000 -0.1911151831
C   C521      1.0  0.24020  0.47500  0.41050  1.0000 -0.1911151831
C   C522      1.0  0.74020  0.02500  0.58950  1.0000 -0.1911151831
C   C523      1.0  0.25980  0.52500  0.91050  1.0000 -0.1911151831
C   C524      1.0  0.75980  0.97500  0.08950  1.0000 -0.1911151831
C   C525      1.0  0.41050  0.24020  0.47500  1.0000 -0.1911151831
C   C526      1.0  0.58950  0.74020  0.02500  1.0000 -0.1911151831
C   C527      1.0  0.91050  0.25980  0.52500  1.0000 -0.1911151831
C   C528      1.0  0.08950  0.75980  0.97500  1.0000 -0.1911151831
C   C529      1.0  0.52720  0.61870  0.77690  1.0000 0.0733829403
C   C530      1.0  0.97280  0.38130  0.27690  1.0000 0.0808087225
C   C531      1.0  0.47280  0.11870  0.72310  1.0000 0.0733829403
C   C532      1.0  0.02720  0.88130  0.22310  1.0000 0.0733829403
C   C533      1.0  0.77690  0.52720  0.61870  1.0000 0.0733829403
C   C534      1.0  0.27690  0.97280  0.38130  1.0000 0.0733829403
C   C535      1.0  0.72310  0.47280  0.11870  1.0000 0.0733829403
C   C536      1.0  0.22310  0.02720  0.88130  1.0000 0.0733829403
C   C537      1.0  0.61870  0.77690  0.52720  1.0000 0.0733829403
C   C538      1.0  0.38130  0.27690  0.97280  1.0000 0.0808087225
C   C539      1.0  0.11870  0.72310  0.47280  1.0000 0.0733829403
C   C540      1.0  0.88130  0.22310  0.02720  1.0000 0.0733829403
C   C541      1.0  0.47280  0.38130  0.22310  1.0000 0.0733829403
C   C542      1.0  0.02720  0.61870  0.72310  1.0000 0.0733829403
C   C543      1.0  0.52720  0.88130  0.27690  1.0000 0.0733829403
C   C544      1.0  0.97280  0.11870  0.77690  1.0000 0.0733829403
C   C545      1.0  0.22310  0.47280  0.38130  1.0000 0.0733829403
C   C546      1.0  0.72310  0.02720  0.61870  1.0000 0.0733829403
C   C547      1.0  0.27690  0.52720  0.88130  1.0000 0.0808087225
C   C548      1.0  0.77690  0.97280  0.11870  1.0000 0.0733829403
C   C549      1.0  0.38130  0.22310  0.47280  1.0000 0.0733829403
C   C550      1.0  0.61870  0.72310  0.02720  1.0000 0.0733829403
C   C551      1.0  0.88130  0.27690  0.52720  1.0000 0.0808087225
C   C552      1.0  0.11870  0.77690  0.97280  1.0000 0.0733829403
C   C553      1.0  0.57230  0.60230  0.80400  1.0000 0.0733829403
C   C554      1.0  0.92770  0.39770  0.30400  1.0000 0.0733829403
C   C555      1.0  0.42770  0.10230  0.69600  1.0000 0.0733829403
C   C556      1.0  0.07230  0.89770  0.19600  1.0000 0.0733829403
C   C557      1.0  0.80400  0.57230  0.60230  1.0000 0.0733829403
C   C558      1.0  0.30400  0.92770  0.39770  1.0000 0.0733829403
C   C559      1.0  0.69600  0.42770  0.10230  1.0000 0.0733829403
C   C560      1.0  0.19600  0.07230  0.89770  1.0000 0.0733829403
C   C561      1.0  0.60230  0.80400  0.57230  1.0000 0.0733829403
C   C562      1.0  0.39770  0.30400  0.92770  1.0000 0.0733829403
C   C563      1.0  0.10230  0.69600  0.42770  1.0000 0.0733829403
C   C564      1.0  0.89770  0.19600  0.07230  1.0000 0.0733829403
C   C565      1.0  0.42770  0.39770  0.19600  1.0000 0.0733829403
C   C566      1.0  0.07230  0.60230  0.69600  1.0000 0.0733829403
C   C567      1.0  0.57230  0.89770  0.30400  1.0000 0.0733829403
C   C568      1.0  0.92770  0.10230  0.80400  1.0000 0.0733829403
C   C569      1.0  0.19600  0.42770  0.39770  1.0000 0.0733829403
C   C570      1.0  0.69600  0.07230  0.60230  1.0000 0.0733829403
C   C571      1.0  0.30400  0.57230  0.89770  1.0000 0.0733829403
C   C572      1.0  0.80400  0.92770  0.10230  1.0000 0.0733829403
C   C573      1.0  0.39770  0.19600  0.42770  1.0000 0.0733829403
C   C574      1.0  0.60230  0.69600  0.07230  1.0000 0.0733829403
C   C575      1.0  0.89770  0.30400  0.57230  1.0000 0.0733829403
C   C576      1.0  0.10230  0.80400  0.92770  1.0000 0.0733829403
C   C577      1.0  0.50320  0.88580  0.78730  1.0000 0.2208475389
C   C578      1.0  0.99680  0.11420  0.28730  1.0000 0.2285558512
C   C579      1.0  0.49680  0.38580  0.71270  1.0000 0.2285558512
C   C580      1.0  0.00320  0.61420  0.21270  1.0000 0.2285558512
C   C581      1.0  0.78730  0.50320  0.88580  1.0000 0.2208475389
C   C582      1.0  0.28730  0.99680  0.11420  1.0000 0.2285558512
C   C583      1.0  0.71270  0.49680  0.38580  1.0000 0.2285558512
C   C584      1.0  0.21270  0.00320  0.61420  1.0000 0.2285558512
C   C585      1.0  0.88580  0.78730  0.50320  1.0000 0.2208475389
C   C586      1.0  0.11420  0.28730  0.99680  1.0000 0.2285558512
C   C587      1.0  0.38580  0.71270  0.49680  1.0000 0.2285558512
C   C588      1.0  0.61420  0.21270  0.00320  1.0000 0.2285558512
C   C589      1.0  0.49680  0.11420  0.21270  1.0000 0.2285558512
C   C590      1.0  0.00320  0.88580  0.71270  1.0000 0.2285558512
C   C591      1.0  0.50320  0.61420  0.28730  1.0000 0.2285558512
C   C592      1.0  0.99680  0.38580  0.78730  1.0000 0.2285558512
C   C593      1.0  0.21270  0.49680  0.11420  1.0000 0.2285558512
C   C594      1.0  0.71270  0.00320  0.88580  1.0000 0.2285558512
C   C595      1.0  0.28730  0.50320  0.61420  1.0000 0.2285558512
C   C596      1.0  0.78730  0.99680  0.38580  1.0000 0.2285558512
C   C597      1.0  0.11420  0.21270  0.49680  1.0000 0.2285558512
C   C598      1.0  0.88580  0.71270  0.00320  1.0000 0.2285558512
C   C599      1.0  0.61420  0.28730  0.50320  1.0000 0.2285558512
C   C600      1.0  0.38580  0.78730  0.99680  1.0000 0.2285558512
C   C601      1.0  0.52340  0.85740  0.78350  1.0000 0.0733829403
C   C602      1.0  0.97660  0.14260  0.28350  1.0000 0.0733829403
C   C603      1.0  0.47660  0.35740  0.71650  1.0000 0.0733829403
C   C604      1.0  0.02340  0.64260  0.21650  1.0000 0.0733829403
C   C605      1.0  0.78350  0.52340  0.85740  1.0000 0.0733829403
C   C606      1.0  0.28350  0.97660  0.14260  1.0000 0.0733829403
C   C607      1.0  0.71650  0.47660  0.35740  1.0000 0.0733829403
C   C608      1.0  0.21650  0.02340  0.64260  1.0000 0.0733829403
C   C609      1.0  0.85740  0.78350  0.52340  1.0000 0.0733829403
C   C610      1.0  0.14260  0.28350  0.97660  1.0000 0.0733829403
C   C611      1.0  0.35740  0.71650  0.47660  1.0000 0.0733829403
C   C612      1.0  0.64260  0.21650  0.02340  1.0000 0.0733829403
C   C613      1.0  0.47660  0.14260  0.21650  1.0000 0.0733829403
C   C614      1.0  0.02340  0.85740  0.71650  1.0000 0.0733829403
C   C615      1.0  0.52340  0.64260  0.28350  1.0000 0.0733829403
C   C616      1.0  0.97660  0.35740  0.78350  1.0000 0.0733829403
C   C617      1.0  0.21650  0.47660  0.14260  1.0000 0.0733829403
C   C618      1.0  0.71650  0.02340  0.85740  1.0000 0.0733829403
C   C619      1.0  0.28350  0.52340  0.64260  1.0000 0.0733829403
C   C620      1.0  0.78350  0.97660  0.35740  1.0000 0.0733829403
C   C621      1.0  0.14260  0.21650  0.47660  1.0000 0.0733829403
C   C622      1.0  0.85740  0.71650  0.02340  1.0000 0.0733829403
C   C623      1.0  0.64260  0.28350  0.52340  1.0000 0.0733829403
C   C624      1.0  0.35740  0.78350  0.97660  1.0000 0.0733829403
C   C625      1.0  0.55430  0.85760  0.79440  1.0000 -0.2117908047
C   C626      1.0  0.94570  0.14240  0.29440  1.0000 -0.2117908047
C   C627      1.0  0.44570  0.35760  0.70560  1.0000 -0.2117908047
C   C628      1.0  0.05430  0.64240  0.20560  1.0000 -0.2117908047
C   C629      1.0  0.79440  0.55430  0.85760  1.0000 -0.2117908047
C   C630      1.0  0.29440  0.94570  0.14240  1.0000 -0.2117908047
C   C631      1.0  0.70560  0.44570  0.35760  1.0000 -0.2117908047
C   C632      1.0  0.20560  0.05430  0.64240  1.0000 -0.2117908047
C   C633      1.0  0.85760  0.79440  0.55430  1.0000 -0.2117908047
C   C634      1.0  0.14240  0.29440  0.94570  1.0000 -0.2117908047
C   C635      1.0  0.35760  0.70560  0.44570  1.0000 -0.2117908047
C   C636      1.0  0.64240  0.20560  0.05430  1.0000 -0.2117908047
C   C637      1.0  0.44570  0.14240  0.20560  1.0000 -0.2117908047
C   C638      1.0  0.05430  0.85760  0.70560  1.0000 -0.2117908047
C   C639      1.0  0.55430  0.64240  0.29440  1.0000 -0.2117908047
C   C640      1.0  0.94570  0.35760  0.79440  1.0000 -0.2117908047
C   C641      1.0  0.20560  0.44570  0.14240  1.0000 -0.2117908047
C   C642      1.0  0.70560  0.05430  0.85760  1.0000 -0.2117908047
C   C643      1.0  0.29440  0.55430  0.64240  1.0000 -0.2117908047
C   C644      1.0  0.79440  0.94570  0.35760  1.0000 -0.2117908047
C   C645      1.0  0.14240  0.20560  0.44570  1.0000 -0.2117908047
C   C646      1.0  0.85760  0.70560  0.05430  1.0000 -0.2117908047
C   C647      1.0  0.64240  0.29440  0.55430  1.0000 -0.2117908047
C   C648      1.0  0.35760  0.79440  0.94570  1.0000 -0.2117908047
C   C649      1.0  0.51260  0.83020  0.77460  1.0000 -0.1911151831
C   C650      1.0  0.98740  0.16980  0.27460  1.0000 -0.1911151831
C   C651      1.0  0.48740  0.33020  0.72540  1.0000 -0.1824199623
C   C652      1.0  0.01260  0.66980  0.22540  1.0000 -0.1911151831
C   C653      1.0  0.77460  0.51260  0.83020  1.0000 -0.1911151831
C   C654      1.0  0.27460  0.98740  0.16980  1.0000 -0.1911151831
C   C655      1.0  0.72540  0.48740  0.33020  1.0000 -0.1824199623
C   C656      1.0  0.22540  0.01260  0.66980  1.0000 -0.1911151831
C   C657      1.0  0.83020  0.77460  0.51260  1.0000 -0.1911151831
C   C658      1.0  0.16980  0.27460  0.98740  1.0000 -0.1911151831
C   C659      1.0  0.33020  0.72540  0.48740  1.0000 -0.1911151831
C   C660      1.0  0.66980  0.22540  0.01260  1.0000 -0.1911151831
C   C661      1.0  0.48740  0.16980  0.22540  1.0000 -0.1911151831
C   C662      1.0  0.01260  0.83020  0.72540  1.0000 -0.1911151831
C   C663      1.0  0.51260  0.66980  0.27460  1.0000 -0.1911151831
C   C664      1.0  0.98740  0.33020  0.77460  1.0000 -0.1911151831
C   C665      1.0  0.22540  0.48740  0.16980  1.0000 -0.1911151831
C   C666      1.0  0.72540  0.01260  0.83020  1.0000 -0.1824199623
C   C667      1.0  0.27460  0.51260  0.66980  1.0000 -0.1824199623
C   C668      1.0  0.77460  0.98740  0.33020  1.0000 -0.1911151831
C   C669      1.0  0.16980  0.22540  0.48740  1.0000 -0.1911151831
C   C670      1.0  0.83020  0.72540  0.01260  1.0000 -0.1911151831
C   C671      1.0  0.66980  0.27460  0.51260  1.0000 -0.1824199623
C   C672      1.0  0.33020  0.77460  0.98740  1.0000 -0.1911151831
C   C673      1.0  0.57300  0.83030  0.79090  1.0000 0.0603752363
C   C674      1.0  0.92700  0.16970  0.29090  1.0000 0.0603752363
C   C675      1.0  0.42700  0.33030  0.70910  1.0000 0.0603752363
C   C676      1.0  0.07300  0.66970  0.20910  1.0000 0.0603752363
C   C677      1.0  0.79090  0.57300  0.83030  1.0000 0.0603752363
C   C678      1.0  0.29090  0.92700  0.16970  1.0000 0.0603752363
C   C679      1.0  0.70910  0.42700  0.33030  1.0000 0.0603752363
C   C680      1.0  0.20910  0.07300  0.66970  1.0000 0.0603752363
C   C681      1.0  0.83030  0.79090  0.57300  1.0000 0.0603752363
C   C682      1.0  0.16970  0.29090  0.92700  1.0000 0.0603752363
C   C683      1.0  0.33030  0.70910  0.42700  1.0000 0.0603752363
C   C684      1.0  0.66970  0.20910  0.07300  1.0000 0.0603752363
C   C685      1.0  0.42700  0.16970  0.20910  1.0000 0.0603752363
C   C686      1.0  0.07300  0.83030  0.70910  1.0000 0.0603752363
C   C687      1.0  0.57300  0.66970  0.29090  1.0000 0.0603752363
C   C688      1.0  0.92700  0.33030  0.79090  1.0000 0.0603752363
C   C689      1.0  0.20910  0.42700  0.16970  1.0000 0.0603752363
C   C690      1.0  0.70910  0.07300  0.83030  1.0000 0.0603752363
C   C691      1.0  0.29090  0.57300  0.66970  1.0000 0.0603752363
C   C692      1.0  0.79090  0.92700  0.33030  1.0000 0.0603752363
C   C693      1.0  0.16970  0.20910  0.42700  1.0000 0.0603752363
C   C694      1.0  0.83030  0.70910  0.07300  1.0000 0.0603752363
C   C695      1.0  0.66970  0.29090  0.57300  1.0000 0.0603752363
C   C696      1.0  0.33030  0.79090  0.92700  1.0000 0.0603752363
C   C697      1.0  0.53530  0.80330  0.77190  1.0000 0.0911672275
C   C698      1.0  0.96470  0.19670  0.27190  1.0000 0.0911672275
C   C699      1.0  0.46470  0.30330  0.72810  1.0000 0.0911672275
C   C700      1.0  0.03530  0.69670  0.22810  1.0000 0.0911672275
C   C701      1.0  0.77190  0.53530  0.80330  1.0000 0.0911672275
C   C702      1.0  0.27190  0.96470  0.19670  1.0000 0.0911672275
C   C703      1.0  0.72810  0.46470  0.30330  1.0000 0.0911672275
C   C704      1.0  0.22810  0.03530  0.69670  1.0000 0.0911672275
C   C705      1.0  0.80330  0.77190  0.53530  1.0000 0.0911672275
C   C706      1.0  0.19670  0.27190  0.96470  1.0000 0.0911672275
C   C707      1.0  0.30330  0.72810  0.46470  1.0000 0.0911672275
C   C708      1.0  0.69670  0.22810  0.03530  1.0000 0.0911672275
C   C709      1.0  0.46470  0.19670  0.22810  1.0000 0.0911672275
C   C710      1.0  0.03530  0.80330  0.72810  1.0000 0.0911672275
C   C711      1.0  0.53530  0.69670  0.27190  1.0000 0.0911672275
C   C712      1.0  0.96470  0.30330  0.77190  1.0000 0.0911672275
C   C713      1.0  0.22810  0.46470  0.19670  1.0000 0.0911672275
C   C714      1.0  0.72810  0.03530  0.80330  1.0000 0.0911672275
C   C715      1.0  0.27190  0.53530  0.69670  1.0000 0.0911672275
C   C716      1.0  0.77190  0.96470  0.30330  1.0000 0.0911672275
C   C717      1.0  0.19670  0.22810  0.46470  1.0000 0.0911672275
C   C718      1.0  0.80330  0.72810  0.03530  1.0000 0.0911672275
C   C719      1.0  0.69670  0.27190  0.53530  1.0000 0.0911672275
C   C720      1.0  0.30330  0.77190  0.96470  1.0000 0.0911672275
C   C721      1.0  0.47560  0.88530  0.09380  1.0000 0.2285558512
C   C722      1.0  0.02440  0.11470  0.59380  1.0000 0.2285558512
C   C723      1.0  0.52440  0.38530  0.40620  1.0000 0.2285558512
C   C724      1.0  0.97560  0.61470  0.90620  1.0000 0.2285558512
C   C725      1.0  0.09380  0.47560  0.88530  1.0000 0.2285558512
C   C726      1.0  0.59380  0.02440  0.11470  1.0000 0.2285558512
C   C727      1.0  0.40620  0.52440  0.38530  1.0000 0.2285558512
C   C728      1.0  0.90620  0.97560  0.61470  1.0000 0.2285558512
C   C729      1.0  0.88530  0.09380  0.47560  1.0000 0.2285558512
C   C730      1.0  0.11470  0.59380  0.02440  1.0000 0.2285558512
C   C731      1.0  0.38530  0.40620  0.52440  1.0000 0.2285558512
C   C732      1.0  0.61470  0.90620  0.97560  1.0000 0.2285558512
C   C733      1.0  0.52440  0.11470  0.90620  1.0000 0.2285558512
C   C734      1.0  0.97560  0.88530  0.40620  1.0000 0.2285558512
C   C735      1.0  0.47560  0.61470  0.59380  1.0000 0.2285558512
C   C736      1.0  0.02440  0.38530  0.09380  1.0000 0.2285558512
C   C737      1.0  0.90620  0.52440  0.11470  1.0000 0.2285558512
C   C738      1.0  0.40620  0.97560  0.88530  1.0000 0.2285558512
C   C739      1.0  0.59380  0.47560  0.61470  1.0000 0.2285558512
C   C740      1.0  0.09380  0.02440  0.38530  1.0000 0.2285558512
C   C741      1.0  0.11470  0.90620  0.52440  1.0000 0.2285558512
C   C742      1.0  0.88530  0.40620  0.97560  1.0000 0.2285558512
C   C743      1.0  0.61470  0.59380  0.47560  1.0000 0.2285558512
C   C744      1.0  0.38530  0.09380  0.02440  1.0000 0.2285558512
C   C745      1.0  0.48510  0.91360  0.11170  1.0000 0.0808087225
C   C746      1.0  0.01490  0.08640  0.61170  1.0000 0.0808087225
C   C747      1.0  0.51490  0.41360  0.38830  1.0000 0.0808087225
C   C748      1.0  0.98510  0.58640  0.88830  1.0000 0.0808087225
C   C749      1.0  0.11170  0.48510  0.91360  1.0000 0.0808087225
C   C750      1.0  0.61170  0.01490  0.08640  1.0000 0.0808087225
C   C751      1.0  0.38830  0.51490  0.41360  1.0000 0.0808087225
C   C752      1.0  0.88830  0.98510  0.58640  1.0000 0.0808087225
C   C753      1.0  0.91360  0.11170  0.48510  1.0000 0.0808087225
C   C754      1.0  0.08640  0.61170  0.01490  1.0000 0.0808087225
C   C755      1.0  0.41360  0.38830  0.51490  1.0000 0.0808087225
C   C756      1.0  0.58640  0.88830  0.98510  1.0000 0.0808087225
C   C757      1.0  0.51490  0.08640  0.88830  1.0000 0.0808087225
C   C758      1.0  0.98510  0.91360  0.38830  1.0000 0.0808087225
C   C759      1.0  0.48510  0.58640  0.61170  1.0000 0.0808087225
C   C760      1.0  0.01490  0.41360  0.11170  1.0000 0.0808087225
C   C761      1.0  0.88830  0.51490  0.08640  1.0000 0.0808087225
C   C762      1.0  0.38830  0.98510  0.91360  1.0000 0.0808087225
C   C763      1.0  0.61170  0.48510  0.58640  1.0000 0.0808087225
C   C764      1.0  0.11170  0.01490  0.41360  1.0000 0.0808087225
C   C765      1.0  0.08640  0.88830  0.51490  1.0000 0.0808087225
C   C766      1.0  0.91360  0.38830  0.98510  1.0000 0.0808087225
C   C767      1.0  0.58640  0.61170  0.48510  1.0000 0.0808087225
C   C768      1.0  0.41360  0.11170  0.01490  1.0000 0.0808087225
C   C769      1.0  0.49750  0.94040  0.09700  1.0000 -0.1981051617
C   C770      1.0  0.00250  0.05960  0.59700  1.0000 -0.1981051617
C   C771      1.0  0.50250  0.44040  0.40300  1.0000 -0.1981051617
C   C772      1.0  0.99750  0.55960  0.90300  1.0000 -0.1981051617
C   C773      1.0  0.09700  0.49750  0.94040  1.0000 -0.1981051617
C   C774      1.0  0.59700  0.00250  0.05960  1.0000 -0.1981051617
C   C775      1.0  0.40300  0.50250  0.44040  1.0000 -0.1981051617
C   C776      1.0  0.90300  0.99750  0.55960  1.0000 -0.1981051617
C   C777      1.0  0.94040  0.09700  0.49750  1.0000 -0.1981051617
C   C778      1.0  0.05960  0.59700  0.00250  1.0000 -0.1981051617
C   C779      1.0  0.44040  0.40300  0.50250  1.0000 -0.1981051617
C   C780      1.0  0.55960  0.90300  0.99750  1.0000 -0.1981051617
C   C781      1.0  0.50250  0.05960  0.90300  1.0000 -0.1981051617
C   C782      1.0  0.99750  0.94040  0.40300  1.0000 -0.1981051617
C   C783      1.0  0.49750  0.55960  0.59700  1.0000 -0.1981051617
C   C784      1.0  0.00250  0.44040  0.09700  1.0000 -0.1981051617
C   C785      1.0  0.90300  0.50250  0.05960  1.0000 -0.1981051617
C   C786      1.0  0.40300  0.99750  0.94040  1.0000 -0.1981051617
C   C787      1.0  0.59700  0.49750  0.55960  1.0000 -0.1981051617
C   C788      1.0  0.09700  0.00250  0.44040  1.0000 -0.1981051617
C   C789      1.0  0.05960  0.90300  0.50250  1.0000 -0.1981051617
C   C790      1.0  0.94040  0.40300  0.99750  1.0000 -0.1981051617
C   C791      1.0  0.55960  0.59700  0.49750  1.0000 -0.1981051617
C   C792      1.0  0.44040  0.09700  0.00250  1.0000 -0.1981051617
C   C793      1.0  0.48230  0.91600  0.14460  1.0000 -0.1824199623
C   C794      1.0  0.01770  0.08400  0.64460  1.0000 -0.1824199623
C   C795      1.0  0.51770  0.41600  0.35540  1.0000 -0.1824199623
C   C796      1.0  0.98230  0.58400  0.85540  1.0000 -0.1824199623
C   C797      1.0  0.14460  0.48230  0.91600  1.0000 -0.1824199623
C   C798      1.0  0.64460  0.01770  0.08400  1.0000 -0.1824199623
C   C799      1.0  0.35540  0.51770  0.41600  1.0000 -0.1824199623
C   C800      1.0  0.85540  0.98230  0.58400  1.0000 -0.1824199623
C   C801      1.0  0.91600  0.14460  0.48230  1.0000 -0.1824199623
C   C802      1.0  0.08400  0.64460  0.01770  1.0000 -0.1824199623
C   C803      1.0  0.41600  0.35540  0.51770  1.0000 -0.1824199623
C   C804      1.0  0.58400  0.85540  0.98230  1.0000 -0.1911151831
C   C805      1.0  0.51770  0.08400  0.85540  1.0000 -0.1911151831
C   C806      1.0  0.98230  0.91600  0.35540  1.0000 -0.1824199623
C   C807      1.0  0.48230  0.58400  0.64460  1.0000 -0.1824199623
C   C808      1.0  0.01770  0.41600  0.14460  1.0000 -0.1824199623
C   C809      1.0  0.85540  0.51770  0.08400  1.0000 -0.1911151831
C   C810      1.0  0.35540  0.98230  0.91600  1.0000 -0.1824199623
C   C811      1.0  0.64460  0.48230  0.58400  1.0000 -0.1824199623
C   C812      1.0  0.14460  0.01770  0.41600  1.0000 -0.1824199623
C   C813      1.0  0.08400  0.85540  0.51770  1.0000 -0.1911151831
C   C814      1.0  0.91600  0.35540  0.98230  1.0000 -0.1824199623
C   C815      1.0  0.58400  0.64460  0.48230  1.0000 -0.1824199623
C   C816      1.0  0.41600  0.14460  0.01770  1.0000 -0.1824199623
C   C817      1.0  0.50530  0.96750  0.11380  1.0000 0.0603752363
C   C818      1.0  0.99470  0.03250  0.61380  1.0000 0.0603752363
C   C819      1.0  0.49470  0.46750  0.38620  1.0000 0.0603752363
C   C820      1.0  0.00530  0.53250  0.88620  1.0000 0.0603752363
C   C821      1.0  0.11380  0.50530  0.96750  1.0000 0.0603752363
C   C822      1.0  0.61380  0.99470  0.03250  1.0000 0.0603752363
C   C823      1.0  0.38620  0.49470  0.46750  1.0000 0.0603752363
C   C824      1.0  0.88620  0.00530  0.53250  1.0000 0.0603752363
C   C825      1.0  0.96750  0.11380  0.50530  1.0000 0.0603752363
C   C826      1.0  0.03250  0.61380  0.99470  1.0000 0.0603752363
C   C827      1.0  0.46750  0.38620  0.49470  1.0000 0.0603752363
C   C828      1.0  0.53250  0.88620  0.00530  1.0000 0.0603752363
C   C829      1.0  0.49470  0.03250  0.88620  1.0000 0.0603752363
C   C830      1.0  0.00530  0.96750  0.38620  1.0000 0.0603752363
C   C831      1.0  0.50530  0.53250  0.61380  1.0000 0.0603752363
C   C832      1.0  0.99470  0.46750  0.11380  1.0000 0.0603752363
C   C833      1.0  0.88620  0.49470  0.03250  1.0000 0.0603752363
C   C834      1.0  0.38620  0.00530  0.96750  1.0000 0.0603752363
C   C835      1.0  0.61380  0.50530  0.53250  1.0000 0.0603752363
C   C836      1.0  0.11380  0.99470  0.46750  1.0000 0.0603752363
C   C837      1.0  0.03250  0.88620  0.49470  1.0000 0.0603752363
C   C838      1.0  0.96750  0.38620  0.00530  1.0000 0.0603752363
C   C839      1.0  0.53250  0.61380  0.50530  1.0000 0.0603752363
C   C840      1.0  0.46750  0.11380  0.99470  1.0000 0.0603752363
C   C841      1.0  0.49030  0.94340  0.16020  1.0000 0.0265584573
C   C842      1.0  0.00970  0.05660  0.66020  1.0000 0.0265584573
C   C843      1.0  0.50970  0.44340  0.33980  1.0000 0.0265584573
C   C844      1.0  0.99030  0.55660  0.83980  1.0000 0.0265584573
C   C845      1.0  0.16020  0.49030  0.94340  1.0000 0.0265584573
C   C846      1.0  0.66020  0.00970  0.05660  1.0000 0.0265584573
C   C847      1.0  0.33980  0.50970  0.44340  1.0000 0.0265584573
C   C848      1.0  0.83980  0.99030  0.55660  1.0000 0.0265584573
C   C849      1.0  0.94340  0.16020  0.49030  1.0000 0.0265584573
C   C850      1.0  0.05660  0.66020  0.00970  1.0000 0.0265584573
C   C851      1.0  0.44340  0.33980  0.50970  1.0000 0.0265584573
C   C852      1.0  0.55660  0.83980  0.99030  1.0000 0.0265584573
C   C853      1.0  0.50970  0.05660  0.83980  1.0000 0.0265584573
C   C854      1.0  0.99030  0.94340  0.33980  1.0000 0.0265584573
C   C855      1.0  0.49030  0.55660  0.66020  1.0000 0.0265584573
C   C856      1.0  0.00970  0.44340  0.16020  1.0000 0.0265584573
C   C857      1.0  0.83980  0.50970  0.05660  1.0000 0.0265584573
C   C858      1.0  0.33980  0.99030  0.94340  1.0000 0.0265584573
C   C859      1.0  0.66020  0.49030  0.55660  1.0000 0.0265584573
C   C860      1.0  0.16020  0.00970  0.44340  1.0000 0.0265584573
C   C861      1.0  0.05660  0.83980  0.50970  1.0000 0.0265584573
C   C862      1.0  0.94340  0.33980  0.99030  1.0000 0.0265584573
C   C863      1.0  0.55660  0.66020  0.49030  1.0000 0.0265584573
C   C864      1.0  0.44340  0.16020  0.00970  1.0000 0.0265584573
N   N1        1.0  0.53860  0.70040  0.77090  1.0000 -0.0700216726
N   N2        1.0  0.96140  0.29960  0.27090  1.0000 -0.0700216726
N   N3        1.0  0.46140  0.20040  0.72910  1.0000 -0.0700216726
N   N4        1.0  0.03860  0.79960  0.22910  1.0000 -0.0700216726
N   N5        1.0  0.77090  0.53860  0.70040  1.0000 -0.0700216726
N   N6        1.0  0.27090  0.96140  0.29960  1.0000 -0.0700216726
N   N7        1.0  0.72910  0.46140  0.20040  1.0000 -0.0700216726
N   N8        1.0  0.22910  0.03860  0.79960  1.0000 -0.0700216726
N   N9        1.0  0.70040  0.77090  0.53860  1.0000 -0.0700216726
N   N10       1.0  0.29960  0.27090  0.96140  1.0000 -0.0700216726
N   N11       1.0  0.20040  0.72910  0.46140  1.0000 -0.0700216726
N   N12       1.0  0.79960  0.22910  0.03860  1.0000 -0.0700216726
N   N13       1.0  0.46140  0.29960  0.22910  1.0000 -0.0700216726
N   N14       1.0  0.03860  0.70040  0.72910  1.0000 -0.0700216726
N   N15       1.0  0.53860  0.79960  0.27090  1.0000 -0.0700216726
N   N16       1.0  0.96140  0.20040  0.77090  1.0000 -0.0700216726
N   N17       1.0  0.22910  0.46140  0.29960  1.0000 -0.0700216726
N   N18       1.0  0.72910  0.03860  0.70040  1.0000 -0.0700216726
N   N19       1.0  0.27090  0.53860  0.79960  1.0000 -0.0700216726
N   N20       1.0  0.77090  0.96140  0.20040  1.0000 -0.0700216726
N   N21       1.0  0.29960  0.22910  0.46140  1.0000 -0.0700216726
N   N22       1.0  0.70040  0.72910  0.03860  1.0000 -0.0700216726
N   N23       1.0  0.79960  0.27090  0.53860  1.0000 -0.0700216726
N   N24       1.0  0.20040  0.77090  0.96140  1.0000 -0.0700216726
N   N25       1.0  0.51740  0.69120  0.74840  1.0000 -0.2908485929
N   N26       1.0  0.98260  0.30880  0.24840  1.0000 -0.2908485929
N   N27       1.0  0.48260  0.19120  0.75160  1.0000 -0.2908485929
N   N28       1.0  0.01740  0.80880  0.25160  1.0000 -0.2908485929
N   N29       1.0  0.74840  0.51740  0.69120  1.0000 -0.2908485929
N   N30       1.0  0.24840  0.98260  0.30880  1.0000 -0.2908485929
N   N31       1.0  0.75160  0.48260  0.19120  1.0000 -0.2908485929
N   N32       1.0  0.25160  0.01740  0.80880  1.0000 -0.2908485929
N   N33       1.0  0.69120  0.74840  0.51740  1.0000 -0.2908485929
N   N34       1.0  0.30880  0.24840  0.98260  1.0000 -0.2908485929
N   N35       1.0  0.19120  0.75160  0.48260  1.0000 -0.2908485929
N   N36       1.0  0.80880  0.25160  0.01740  1.0000 -0.2908485929
N   N37       1.0  0.48260  0.30880  0.25160  1.0000 -0.2908485929
N   N38       1.0  0.01740  0.69120  0.75160  1.0000 -0.2908485929
N   N39       1.0  0.51740  0.80880  0.24840  1.0000 -0.2908485929
N   N40       1.0  0.98260  0.19120  0.74840  1.0000 -0.2908485929
N   N41       1.0  0.25160  0.48260  0.30880  1.0000 -0.2908485929
N   N42       1.0  0.75160  0.01740  0.69120  1.0000 -0.2908485929
N   N43       1.0  0.24840  0.51740  0.80880  1.0000 -0.2908485929
N   N44       1.0  0.74840  0.98260  0.19120  1.0000 -0.2908485929
N   N45       1.0  0.30880  0.25160  0.48260  1.0000 -0.2908485929
N   N46       1.0  0.69120  0.75160  0.01740  1.0000 -0.2908485929
N   N47       1.0  0.80880  0.24840  0.51740  1.0000 -0.2908485929
N   N48       1.0  0.19120  0.74840  0.98260  1.0000 -0.2908485929
N   N49       1.0  0.55400  0.72690  0.76150  1.0000 -0.0700216726
N   N50       1.0  0.94600  0.27310  0.26150  1.0000 -0.0700216726
N   N51       1.0  0.44600  0.22690  0.73850  1.0000 -0.0700216726
N   N52       1.0  0.05400  0.77310  0.23850  1.0000 -0.0700216726
N   N53       1.0  0.76150  0.55400  0.72690  1.0000 -0.0700216726
N   N54       1.0  0.26150  0.94600  0.27310  1.0000 -0.0700216726
N   N55       1.0  0.73850  0.44600  0.22690  1.0000 -0.0700216726
N   N56       1.0  0.23850  0.05400  0.77310  1.0000 -0.0700216726
N   N57       1.0  0.72690  0.76150  0.55400  1.0000 -0.0700216726
N   N58       1.0  0.27310  0.26150  0.94600  1.0000 -0.0700216726
N   N59       1.0  0.22690  0.73850  0.44600  1.0000 -0.0700216726
N   N60       1.0  0.77310  0.23850  0.05400  1.0000 -0.0700216726
N   N61       1.0  0.44600  0.27310  0.23850  1.0000 -0.0700216726
N   N62       1.0  0.05400  0.72690  0.73850  1.0000 -0.0700216726
N   N63       1.0  0.55400  0.77310  0.26150  1.0000 -0.0700216726
N   N64       1.0  0.94600  0.22690  0.76150  1.0000 -0.0700216726
N   N65       1.0  0.23850  0.44600  0.27310  1.0000 -0.0700216726
N   N66       1.0  0.73850  0.05400  0.72690  1.0000 -0.0700216726
N   N67       1.0  0.26150  0.55400  0.77310  1.0000 -0.0700216726
N   N68       1.0  0.76150  0.94600  0.22690  1.0000 -0.0700216726
N   N69       1.0  0.27310  0.23850  0.44600  1.0000 -0.0700216726
N   N70       1.0  0.72690  0.73850  0.05400  1.0000 -0.0700216726
N   N71       1.0  0.77310  0.26150  0.55400  1.0000 -0.0700216726
N   N72       1.0  0.22690  0.76150  0.94600  1.0000 -0.0700216726
N   N73       1.0  0.54250  0.73580  0.73291  1.0000 -0.2789747538
N   N74       1.0  0.95750  0.26420  0.23291  1.0000 -0.2789747538
N   N75       1.0  0.45750  0.23580  0.76709  1.0000 -0.2789747538
N   N76       1.0  0.04250  0.76420  0.26709  1.0000 -0.2789747538
N   N77       1.0  0.73291  0.54250  0.73580  1.0000 -0.2789747538
N   N78       1.0  0.23291  0.95750  0.26420  1.0000 -0.2789747538
N   N79       1.0  0.76709  0.45750  0.23580  1.0000 -0.2789747538
N   N80       1.0  0.26709  0.04250  0.76420  1.0000 -0.2789747538
N   N81       1.0  0.73580  0.73291  0.54250  1.0000 -0.2789747538
N   N82       1.0  0.26420  0.23291  0.95750  1.0000 -0.2789747538
N   N83       1.0  0.23580  0.76709  0.45750  1.0000 -0.2789747538
N   N84       1.0  0.76420  0.26709  0.04250  1.0000 -0.2789747538
N   N85       1.0  0.45750  0.26420  0.26709  1.0000 -0.2789747538
N   N86       1.0  0.04250  0.73580  0.76709  1.0000 -0.2789747538
N   N87       1.0  0.54250  0.76420  0.23291  1.0000 -0.2789747538
N   N88       1.0  0.95750  0.23580  0.73291  1.0000 -0.2789747538
N   N89       1.0  0.26709  0.45750  0.26420  1.0000 -0.2789747538
N   N90       1.0  0.76709  0.04250  0.73580  1.0000 -0.2789747538
N   N91       1.0  0.23291  0.54250  0.76420  1.0000 -0.2789747538
N   N92       1.0  0.73291  0.95750  0.23580  1.0000 -0.2789747538
N   N93       1.0  0.26420  0.26709  0.45750  1.0000 -0.2789747538
N   N94       1.0  0.73580  0.76709  0.04250  1.0000 -0.2789747538
N   N95       1.0  0.76420  0.23291  0.54250  1.0000 -0.2789747538
N   N96       1.0  0.23580  0.73291  0.95750  1.0000 -0.2789747538
N   N97       1.0  0.46780  0.71740  0.63740  1.0000 -0.2363539589
N   N98       1.0  0.03220  0.28260  0.13740  1.0000 -0.2363539589
N   N99       1.0  0.53220  0.21740  0.86260  1.0000 -0.2363539589
N   N100      1.0  0.96780  0.78260  0.36260  1.0000 -0.2363539589
N   N101      1.0  0.63740  0.46780  0.71740  1.0000 -0.2363539589
N   N102      1.0  0.13740  0.03220  0.28260  1.0000 -0.2363539589
N   N103      1.0  0.86260  0.53220  0.21740  1.0000 -0.2363539589
N   N104      1.0  0.36260  0.96780  0.78260  1.0000 -0.2363539589
N   N105      1.0  0.71740  0.63740  0.46780  1.0000 -0.2363539589
N   N106      1.0  0.28260  0.13740  0.03220  1.0000 -0.2363539589
N   N107      1.0  0.21740  0.86260  0.53220  1.0000 -0.2363539589
N   N108      1.0  0.78260  0.36260  0.96780  1.0000 -0.2363539589
N   N109      1.0  0.53220  0.28260  0.36260  1.0000 -0.2363539589
N   N110      1.0  0.96780  0.71740  0.86260  1.0000 -0.2363539589
N   N111      1.0  0.46780  0.78260  0.13740  1.0000 -0.2363539589
N   N112      1.0  0.03220  0.21740  0.63740  1.0000 -0.2363539589
N   N113      1.0  0.36260  0.53220  0.28260  1.0000 -0.2363539589
N   N114      1.0  0.86260  0.96780  0.71740  1.0000 -0.2363539589
N   N115      1.0  0.13740  0.46780  0.78260  1.0000 -0.2363539589
N   N116      1.0  0.63740  0.03220  0.21740  1.0000 -0.2363539589
N   N117      1.0  0.28260  0.36260  0.53220  1.0000 -0.2363539589
N   N118      1.0  0.71740  0.86260  0.96780  1.0000 -0.2363539589
N   N119      1.0  0.78260  0.13740  0.46780  1.0000 -0.2363539589
N   N120      1.0  0.21740  0.63740  0.03220  1.0000 -0.2363539589
N   N121      1.0  0.60580  0.68130  0.80680  1.0000 -0.0616787402
N   N122      1.0  0.89420  0.31870  0.30680  1.0000 -0.0616787402
N   N123      1.0  0.39420  0.18130  0.69320  1.0000 -0.0616787402
N   N124      1.0  0.10580  0.81870  0.19320  1.0000 -0.0616787402
N   N125      1.0  0.80680  0.60580  0.68130  1.0000 -0.0616787402
N   N126      1.0  0.30680  0.89420  0.31870  1.0000 -0.0616787402
N   N127      1.0  0.69320  0.39420  0.18130  1.0000 -0.0616787402
N   N128      1.0  0.19320  0.10580  0.81870  1.0000 -0.0616787402
N   N129      1.0  0.68130  0.80680  0.60580  1.0000 -0.0616787402
N   N130      1.0  0.31870  0.30680  0.89420  1.0000 -0.0616787402
N   N131      1.0  0.18130  0.69320  0.39420  1.0000 -0.0616787402
N   N132      1.0  0.81870  0.19320  0.10580  1.0000 -0.0616787402
N   N133      1.0  0.39420  0.31870  0.19320  1.0000 -0.0616787402
N   N134      1.0  0.10580  0.68130  0.69320  1.0000 -0.0616787402
N   N135      1.0  0.60580  0.81870  0.30680  1.0000 -0.0616787402
N   N136      1.0  0.89420  0.18130  0.80680  1.0000 -0.0616787402
N   N137      1.0  0.19320  0.39420  0.31870  1.0000 -0.0616787402
N   N138      1.0  0.69320  0.10580  0.68130  1.0000 -0.0616787402
N   N139      1.0  0.30680  0.60580  0.81870  1.0000 -0.0616787402
N   N140      1.0  0.80680  0.89420  0.18130  1.0000 -0.0616787402
N   N141      1.0  0.31870  0.19320  0.39420  1.0000 -0.0616787402
N   N142      1.0  0.68130  0.69320  0.10580  1.0000 -0.0616787402
N   N143      1.0  0.81870  0.30680  0.60580  1.0000 -0.0616787402
N   N144      1.0  0.18130  0.80680  0.89420  1.0000 -0.0616787402
N   N145      1.0  0.62630  0.65650  0.80410  1.0000 -0.2989471214
N   N146      1.0  0.87370  0.34350  0.30410  1.0000 -0.2989471214
N   N147      1.0  0.37370  0.15650  0.69590  1.0000 -0.2989471214
N   N148      1.0  0.12630  0.84350  0.19590  1.0000 -0.2989471214
N   N149      1.0  0.80410  0.62630  0.65650  1.0000 -0.2989471214
N   N150      1.0  0.30410  0.87370  0.34350  1.0000 -0.2989471214
N   N151      1.0  0.69590  0.37370  0.15650  1.0000 -0.2989471214
N   N152      1.0  0.19590  0.12630  0.84350  1.0000 -0.2989471214
N   N153      1.0  0.65650  0.80410  0.62630  1.0000 -0.2989471214
N   N154      1.0  0.34350  0.30410  0.87370  1.0000 -0.2989471214
N   N155      1.0  0.15650  0.69590  0.37370  1.0000 -0.2989471214
N   N156      1.0  0.84350  0.19590  0.12630  1.0000 -0.2989471214
N   N157      1.0  0.37370  0.34350  0.19590  1.0000 -0.2989471214
N   N158      1.0  0.12630  0.65650  0.69590  1.0000 -0.2989471214
N   N159      1.0  0.62630  0.84350  0.30410  1.0000 -0.2989471214
N   N160      1.0  0.87370  0.15650  0.80410  1.0000 -0.2989471214
N   N161      1.0  0.19590  0.37370  0.34350  1.0000 -0.2989471214
N   N162      1.0  0.69590  0.12630  0.65650  1.0000 -0.2989471214
N   N163      1.0  0.30410  0.62630  0.84350  1.0000 -0.2989471214
N   N164      1.0  0.80410  0.87370  0.15650  1.0000 -0.2989471214
N   N165      1.0  0.34350  0.19590  0.37370  1.0000 -0.2989471214
N   N166      1.0  0.65650  0.69590  0.12630  1.0000 -0.2989471214
N   N167      1.0  0.84350  0.30410  0.62630  1.0000 -0.2989471214
N   N168      1.0  0.15650  0.80410  0.87370  1.0000 -0.2989471214
N   N169      1.0  0.61900  0.70860  0.79750  1.0000 -0.0700216726
N   N170      1.0  0.88100  0.29140  0.29750  1.0000 -0.0700216726
N   N171      1.0  0.38100  0.20860  0.70250  1.0000 -0.0700216726
N   N172      1.0  0.11900  0.79140  0.20250  1.0000 -0.0700216726
N   N173      1.0  0.79750  0.61900  0.70860  1.0000 -0.0700216726
N   N174      1.0  0.29750  0.88100  0.29140  1.0000 -0.0700216726
N   N175      1.0  0.70250  0.38100  0.20860  1.0000 -0.0700216726
N   N176      1.0  0.20250  0.11900  0.79140  1.0000 -0.0700216726
N   N177      1.0  0.70860  0.79750  0.61900  1.0000 -0.0700216726
N   N178      1.0  0.29140  0.29750  0.88100  1.0000 -0.0700216726
N   N179      1.0  0.20860  0.70250  0.38100  1.0000 -0.0700216726
N   N180      1.0  0.79140  0.20250  0.11900  1.0000 -0.0700216726
N   N181      1.0  0.38100  0.29140  0.20250  1.0000 -0.0700216726
N   N182      1.0  0.11900  0.70860  0.70250  1.0000 -0.0700216726
N   N183      1.0  0.61900  0.79140  0.29750  1.0000 -0.0700216726
N   N184      1.0  0.88100  0.20860  0.79750  1.0000 -0.0700216726
N   N185      1.0  0.20250  0.38100  0.29140  1.0000 -0.0700216726
N   N186      1.0  0.70250  0.11900  0.70860  1.0000 -0.0700216726
N   N187      1.0  0.29750  0.61900  0.79140  1.0000 -0.0700216726
N   N188      1.0  0.79750  0.88100  0.20860  1.0000 -0.0700216726
N   N189      1.0  0.29140  0.20250  0.38100  1.0000 -0.0700216726
N   N190      1.0  0.70860  0.70250  0.11900  1.0000 -0.0700216726
N   N191      1.0  0.79140  0.29750  0.61900  1.0000 -0.0700216726
N   N192      1.0  0.20860  0.79750  0.88100  1.0000 -0.0700216726
N   N193      1.0  0.64940  0.70280  0.78720  1.0000 -0.2989471214
N   N194      1.0  0.85060  0.29720  0.28720  1.0000 -0.2989471214
N   N195      1.0  0.35060  0.20280  0.71280  1.0000 -0.2989471214
N   N196      1.0  0.14940  0.79720  0.21280  1.0000 -0.2989471214
N   N197      1.0  0.78720  0.64940  0.70280  1.0000 -0.2989471214
N   N198      1.0  0.28720  0.85060  0.29720  1.0000 -0.2989471214
N   N199      1.0  0.71280  0.35060  0.20280  1.0000 -0.2989471214
N   N200      1.0  0.21280  0.14940  0.79720  1.0000 -0.2989471214
N   N201      1.0  0.70280  0.78720  0.64940  1.0000 -0.2989471214
N   N202      1.0  0.29720  0.28720  0.85060  1.0000 -0.2989471214
N   N203      1.0  0.20280  0.71280  0.35060  1.0000 -0.2989471214
N   N204      1.0  0.79720  0.21280  0.14940  1.0000 -0.2989471214
N   N205      1.0  0.35060  0.29720  0.21280  1.0000 -0.2989471214
N   N206      1.0  0.14940  0.70280  0.71280  1.0000 -0.2989471214
N   N207      1.0  0.64940  0.79720  0.28720  1.0000 -0.2989471214
N   N208      1.0  0.85060  0.20280  0.78720  1.0000 -0.2989471214
N   N209      1.0  0.21280  0.35060  0.29720  1.0000 -0.2989471214
N   N210      1.0  0.71280  0.14940  0.70280  1.0000 -0.2989471214
N   N211      1.0  0.28720  0.64940  0.79720  1.0000 -0.2989471214
N   N212      1.0  0.78720  0.85060  0.20280  1.0000 -0.2989471214
N   N213      1.0  0.29720  0.21280  0.35060  1.0000 -0.2989471214
N   N214      1.0  0.70280  0.71280  0.14940  1.0000 -0.2989471214
N   N215      1.0  0.79720  0.28720  0.64940  1.0000 -0.2989471214
N   N216      1.0  0.20280  0.78720  0.85060  1.0000 -0.2989471214
N   N217      1.0  0.73870  0.62010  0.76550  1.0000 -0.230095708
N   N218      1.0  0.76130  0.37990  0.26550  1.0000 -0.230095708
N   N219      1.0  0.26130  0.12010  0.73450  1.0000 -0.230095708
N   N220      1.0  0.23870  0.87990  0.23450  1.0000 -0.2214665277
N   N221      1.0  0.76550  0.73870  0.62010  1.0000 -0.230095708
N   N222      1.0  0.26550  0.76130  0.37990  1.0000 -0.230095708
N   N223      1.0  0.73450  0.26130  0.12010  1.0000 -0.230095708
N   N224      1.0  0.23450  0.23870  0.87990  1.0000 -0.2214665277
N   N225      1.0  0.62010  0.76550  0.73870  1.0000 -0.230095708
N   N226      1.0  0.37990  0.26550  0.76130  1.0000 -0.230095708
N   N227      1.0  0.12010  0.73450  0.26130  1.0000 -0.230095708
N   N228      1.0  0.87990  0.23450  0.23870  1.0000 -0.2214665277
N   N229      1.0  0.26130  0.37990  0.23450  1.0000 -0.230095708
N   N230      1.0  0.23870  0.62010  0.73450  1.0000 -0.230095708
N   N231      1.0  0.73870  0.87990  0.26550  1.0000 -0.230095708
N   N232      1.0  0.76130  0.12010  0.76550  1.0000 -0.2214665277
N   N233      1.0  0.23450  0.26130  0.37990  1.0000 -0.230095708
N   N234      1.0  0.73450  0.23870  0.62010  1.0000 -0.230095708
N   N235      1.0  0.26550  0.73870  0.87990  1.0000 -0.230095708
N   N236      1.0  0.76550  0.76130  0.12010  1.0000 -0.2214665277
N   N237      1.0  0.37990  0.23450  0.26130  1.0000 -0.230095708
N   N238      1.0  0.62010  0.73450  0.23870  1.0000 -0.230095708
N   N239      1.0  0.87990  0.26550  0.73870  1.0000 -0.230095708
N   N240      1.0  0.12010  0.76550  0.76130  1.0000 -0.230095708
N   N241      1.0  0.56230  0.75100  0.83520  1.0000 -0.0806408888
N   N242      1.0  0.93770  0.24900  0.33520  1.0000 -0.0855860999
N   N243      1.0  0.43770  0.25100  0.66480  1.0000 -0.0855860999
N   N244      1.0  0.06230  0.74900  0.16480  1.0000 -0.0855860999
N   N245      1.0  0.83520  0.56230  0.75100  1.0000 -0.0806408888
N   N246      1.0  0.33520  0.93770  0.24900  1.0000 -0.0855860999
N   N247      1.0  0.66480  0.43770  0.25100  1.0000 -0.0855860999
N   N248      1.0  0.16480  0.06230  0.74900  1.0000 -0.0806408888
N   N249      1.0  0.75100  0.83520  0.56230  1.0000 -0.0806408888
N   N250      1.0  0.24900  0.33520  0.93770  1.0000 -0.0855860999
N   N251      1.0  0.25100  0.66480  0.43770  1.0000 -0.0855860999
N   N252      1.0  0.74900  0.16480  0.06230  1.0000 -0.0806408888
N   N253      1.0  0.43770  0.24900  0.16480  1.0000 -0.0855860999
N   N254      1.0  0.06230  0.75100  0.66480  1.0000 -0.0855860999
N   N255      1.0  0.56230  0.74900  0.33520  1.0000 -0.0855860999
N   N256      1.0  0.93770  0.25100  0.83520  1.0000 -0.0855860999
N   N257      1.0  0.16480  0.43770  0.24900  1.0000 -0.0855860999
N   N258      1.0  0.66480  0.06230  0.75100  1.0000 -0.0806408888
N   N259      1.0  0.33520  0.56230  0.74900  1.0000 -0.0855860999
N   N260      1.0  0.83520  0.93770  0.25100  1.0000 -0.0855860999
N   N261      1.0  0.24900  0.16480  0.43770  1.0000 -0.0855860999
N   N262      1.0  0.75100  0.66480  0.06230  1.0000 -0.0855860999
N   N263      1.0  0.74900  0.33520  0.56230  1.0000 -0.0806408888
N   N264      1.0  0.25100  0.83520  0.93770  1.0000 -0.0855860999
N   N265      1.0  0.55330  0.77400  0.85560  1.0000 -0.2633062244
N   N266      1.0  0.94670  0.22600  0.35560  1.0000 -0.2633062244
N   N267      1.0  0.44670  0.27400  0.64440  1.0000 -0.2633062244
N   N268      1.0  0.05330  0.72600  0.14440  1.0000 -0.2633062244
N   N269      1.0  0.85560  0.55330  0.77400  1.0000 -0.2633062244
N   N270      1.0  0.35560  0.94670  0.22600  1.0000 -0.2633062244
N   N271      1.0  0.64440  0.44670  0.27400  1.0000 -0.2633062244
N   N272      1.0  0.14440  0.05330  0.72600  1.0000 -0.2633062244
N   N273      1.0  0.77400  0.85560  0.55330  1.0000 -0.2633062244
N   N274      1.0  0.22600  0.35560  0.94670  1.0000 -0.2633062244
N   N275      1.0  0.27400  0.64440  0.44670  1.0000 -0.2633062244
N   N276      1.0  0.72600  0.14440  0.05330  1.0000 -0.2633062244
N   N277      1.0  0.44670  0.22600  0.14440  1.0000 -0.2633062244
N   N278      1.0  0.05330  0.77400  0.64440  1.0000 -0.2633062244
N   N279      1.0  0.55330  0.72600  0.35560  1.0000 -0.2633062244
N   N280      1.0  0.94670  0.27400  0.85560  1.0000 -0.2633062244
N   N281      1.0  0.14440  0.44670  0.22600  1.0000 -0.2633062244
N   N282      1.0  0.64440  0.05330  0.77400  1.0000 -0.2633062244
N   N283      1.0  0.35560  0.55330  0.72600  1.0000 -0.2633062244
N   N284      1.0  0.85560  0.94670  0.27400  1.0000 -0.2633062244
N   N285      1.0  0.22600  0.14440  0.44670  1.0000 -0.2633062244
N   N286      1.0  0.77400  0.64440  0.05330  1.0000 -0.2633062244
N   N287      1.0  0.72600  0.35560  0.55330  1.0000 -0.2633062244
N   N288      1.0  0.27400  0.85560  0.94670  1.0000 -0.2633062244
N   N289      1.0  0.54990  0.72240  0.84560  1.0000 -0.0700216726
N   N290      1.0  0.95010  0.27760  0.34560  1.0000 -0.0700216726
N   N291      1.0  0.45010  0.22240  0.65440  1.0000 -0.0700216726
N   N292      1.0  0.04990  0.77760  0.15440  1.0000 -0.0700216726
N   N293      1.0  0.84560  0.54990  0.72240  1.0000 -0.0700216726
N   N294      1.0  0.34560  0.95010  0.27760  1.0000 -0.0700216726
N   N295      1.0  0.65440  0.45010  0.22240  1.0000 -0.0700216726
N   N296      1.0  0.15440  0.04990  0.77760  1.0000 -0.0700216726
N   N297      1.0  0.72240  0.84560  0.54990  1.0000 -0.0700216726
N   N298      1.0  0.27760  0.34560  0.95010  1.0000 -0.0700216726
N   N299      1.0  0.22240  0.65440  0.45010  1.0000 -0.0700216726
N   N300      1.0  0.77760  0.15440  0.04990  1.0000 -0.0700216726
N   N301      1.0  0.45010  0.27760  0.15440  1.0000 -0.0700216726
N   N302      1.0  0.04990  0.72240  0.65440  1.0000 -0.0700216726
N   N303      1.0  0.54990  0.77760  0.34560  1.0000 -0.0700216726
N   N304      1.0  0.95010  0.22240  0.84560  1.0000 -0.0700216726
N   N305      1.0  0.15440  0.45010  0.27760  1.0000 -0.0700216726
N   N306      1.0  0.65440  0.04990  0.72240  1.0000 -0.0700216726
N   N307      1.0  0.34560  0.54990  0.77760  1.0000 -0.0700216726
N   N308      1.0  0.84560  0.95010  0.22240  1.0000 -0.0700216726
N   N309      1.0  0.27760  0.15440  0.45010  1.0000 -0.0700216726
N   N310      1.0  0.72240  0.65440  0.04990  1.0000 -0.0700216726
N   N311      1.0  0.77760  0.34560  0.54990  1.0000 -0.0700216726
N   N312      1.0  0.22240  0.84560  0.95010  1.0000 -0.0700216726
N   N313      1.0  0.53300  0.72770  0.87220  1.0000 -0.2689914061
N   N314      1.0  0.96700  0.27230  0.37220  1.0000 -0.2689914061
N   N315      1.0  0.46700  0.22770  0.62780  1.0000 -0.2689914061
N   N316      1.0  0.03300  0.77230  0.12780  1.0000 -0.2689914061
N   N317      1.0  0.87220  0.53300  0.72770  1.0000 -0.2689914061
N   N318      1.0  0.37220  0.96700  0.27230  1.0000 -0.2689914061
N   N319      1.0  0.62780  0.46700  0.22770  1.0000 -0.2689914061
N   N320      1.0  0.12780  0.03300  0.77230  1.0000 -0.2689914061
N   N321      1.0  0.72770  0.87220  0.53300  1.0000 -0.2689914061
N   N322      1.0  0.27230  0.37220  0.96700  1.0000 -0.2689914061
N   N323      1.0  0.22770  0.62780  0.46700  1.0000 -0.2689914061
N   N324      1.0  0.77230  0.12780  0.03300  1.0000 -0.2689914061
N   N325      1.0  0.46700  0.27230  0.12780  1.0000 -0.2689914061
N   N326      1.0  0.03300  0.72770  0.62780  1.0000 -0.2689914061
N   N327      1.0  0.53300  0.77230  0.37220  1.0000 -0.2689914061
N   N328      1.0  0.96700  0.22770  0.87220  1.0000 -0.2689914061
N   N329      1.0  0.12780  0.46700  0.27230  1.0000 -0.2689914061
N   N330      1.0  0.62780  0.03300  0.72770  1.0000 -0.2689914061
N   N331      1.0  0.37220  0.53300  0.77230  1.0000 -0.2689914061
N   N332      1.0  0.87220  0.96700  0.22770  1.0000 -0.2689914061
N   N333      1.0  0.27230  0.12780  0.46700  1.0000 -0.2689914061
N   N334      1.0  0.72770  0.62780  0.03300  1.0000 -0.2689914061
N   N335      1.0  0.77230  0.37220  0.53300  1.0000 -0.2689914061
N   N336      1.0  0.22770  0.87220  0.96700  1.0000 -0.2689914061
N   N337      1.0  0.49130  0.80540  0.95710  1.0000 -0.2214665277
N   N338      1.0  0.00870  0.19460  0.45710  1.0000 -0.2214665277
N   N339      1.0  0.50870  0.30540  0.54290  1.0000 -0.2214665277
N   N340      1.0  0.99130  0.69460  0.04290  1.0000 -0.2214665277
N   N341      1.0  0.95710  0.49130  0.80540  1.0000 -0.2214665277
N   N342      1.0  0.45710  0.00870  0.19460  1.0000 -0.2214665277
N   N343      1.0  0.54290  0.50870  0.30540  1.0000 -0.2214665277
N   N344      1.0  0.04290  0.99130  0.69460  1.0000 -0.2214665277
N   N345      1.0  0.80540  0.95710  0.49130  1.0000 -0.2214665277
N   N346      1.0  0.19460  0.45710  0.00870  1.0000 -0.2214665277
N   N347      1.0  0.30540  0.54290  0.50870  1.0000 -0.2214665277
N   N348      1.0  0.69460  0.04290  0.99130  1.0000 -0.2214665277
N   N349      1.0  0.50870  0.19460  0.04290  1.0000 -0.2214665277
N   N350      1.0  0.99130  0.80540  0.54290  1.0000 -0.2214665277
N   N351      1.0  0.49130  0.69460  0.45710  1.0000 -0.2214665277
N   N352      1.0  0.00870  0.30540  0.95710  1.0000 -0.2214665277
N   N353      1.0  0.04290  0.50870  0.19460  1.0000 -0.2214665277
N   N354      1.0  0.54290  0.99130  0.80540  1.0000 -0.2214665277
N   N355      1.0  0.45710  0.49130  0.69460  1.0000 -0.2214665277
N   N356      1.0  0.95710  0.00870  0.30540  1.0000 -0.2214665277
N   N357      1.0  0.19460  0.04290  0.50870  1.0000 -0.2214665277
N   N358      1.0  0.80540  0.54290  0.99130  1.0000 -0.2214665277
N   N359      1.0  0.69460  0.45710  0.49130  1.0000 -0.2214665277
N   N360      1.0  0.30540  0.95710  0.00870  1.0000 -0.2214665277
N   N361      1.0  0.53470  0.50110  0.71380  1.0000 -0.0806408888
N   N362      1.0  0.96530  0.49890  0.21380  1.0000 -0.0806408888
N   N363      1.0  0.46530  0.00110  0.78620  1.0000 -0.0806408888
N   N364      1.0  0.03470  0.99890  0.28620  1.0000 -0.0806408888
N   N365      1.0  0.71380  0.53470  0.50110  1.0000 -0.0806408888
N   N366      1.0  0.21380  0.96530  0.49890  1.0000 -0.0806408888
N   N367      1.0  0.78620  0.46530  0.00110  1.0000 -0.0806408888
N   N368      1.0  0.28620  0.03470  0.99890  1.0000 -0.0806408888
N   N369      1.0  0.50110  0.71380  0.53470  1.0000 -0.0806408888
N   N370      1.0  0.49890  0.21380  0.96530  1.0000 -0.0806408888
N   N371      1.0  0.00110  0.78620  0.46530  1.0000 -0.0806408888
N   N372      1.0  0.99890  0.28620  0.03470  1.0000 -0.0806408888
N   N373      1.0  0.46530  0.49890  0.28620  1.0000 -0.0806408888
N   N374      1.0  0.03470  0.50110  0.78620  1.0000 -0.0855860999
N   N375      1.0  0.53470  0.99890  0.21380  1.0000 -0.0806408888
N   N376      1.0  0.96530  0.00110  0.71380  1.0000 -0.0806408888
N   N377      1.0  0.28620  0.46530  0.49890  1.0000 -0.0806408888
N   N378      1.0  0.78620  0.03470  0.50110  1.0000 -0.0806408888
N   N379      1.0  0.21380  0.53470  0.99890  1.0000 -0.0806408888
N   N380      1.0  0.71380  0.96530  0.00110  1.0000 -0.0806408888
N   N381      1.0  0.49890  0.28620  0.46530  1.0000 -0.0806408888
N   N382      1.0  0.50110  0.78620  0.03470  1.0000 -0.0806408888
N   N383      1.0  0.99890  0.21380  0.53470  1.0000 -0.0806408888
N   N384      1.0  0.00110  0.71380  0.96530  1.0000 -0.0806408888
N   N385      1.0  0.56030  0.49060  0.72870  1.0000 -0.0474261097
N   N386      1.0  0.93970  0.50940  0.22870  1.0000 -0.0474261097
N   N387      1.0  0.43970  0.99060  0.77130  1.0000 -0.0474261097
N   N388      1.0  0.06030  0.00940  0.27130  1.0000 -0.0474261097
N   N389      1.0  0.72870  0.56030  0.49060  1.0000 -0.0474261097
N   N390      1.0  0.22870  0.93970  0.50940  1.0000 -0.0474261097
N   N391      1.0  0.77130  0.43970  0.99060  1.0000 -0.0474261097
N   N392      1.0  0.27130  0.06030  0.00940  1.0000 -0.0474261097
N   N393      1.0  0.49060  0.72870  0.56030  1.0000 -0.0474261097
N   N394      1.0  0.50940  0.22870  0.93970  1.0000 -0.0474261097
N   N395      1.0  0.99060  0.77130  0.43970  1.0000 -0.0474261097
N   N396      1.0  0.00940  0.27130  0.06030  1.0000 -0.0474261097
N   N397      1.0  0.43970  0.50940  0.27130  1.0000 -0.0474261097
N   N398      1.0  0.06030  0.49060  0.77130  1.0000 -0.0474261097
N   N399      1.0  0.56030  0.00940  0.22870  1.0000 -0.0474261097
N   N400      1.0  0.93970  0.99060  0.72870  1.0000 -0.0474261097
N   N401      1.0  0.27130  0.43970  0.50940  1.0000 -0.0474261097
N   N402      1.0  0.77130  0.06030  0.49060  1.0000 -0.0474261097
N   N403      1.0  0.22870  0.56030  0.00940  1.0000 -0.0474261097
N   N404      1.0  0.72870  0.93970  0.99060  1.0000 -0.0474261097
N   N405      1.0  0.50940  0.27130  0.43970  1.0000 -0.0474261097
N   N406      1.0  0.49060  0.77130  0.06030  1.0000 -0.0474261097
N   N407      1.0  0.00940  0.22870  0.56030  1.0000 -0.0474261097
N   N408      1.0  0.99060  0.72870  0.93970  1.0000 -0.0474261097
N   N409      1.0  0.56920  0.51220  0.75080  1.0000 -0.2989471214
N   N410      1.0  0.93080  0.48780  0.25080  1.0000 -0.2989471214
N   N411      1.0  0.43080  0.01220  0.74920  1.0000 -0.2989471214
N   N412      1.0  0.06920  0.98780  0.24920  1.0000 -0.2989471214
N   N413      1.0  0.75080  0.56920  0.51220  1.0000 -0.2989471214
N   N414      1.0  0.25080  0.93080  0.48780  1.0000 -0.2989471214
N   N415      1.0  0.74920  0.43080  0.01220  1.0000 -0.2989471214
N   N416      1.0  0.24920  0.06920  0.98780  1.0000 -0.2989471214
N   N417      1.0  0.51220  0.75080  0.56920  1.0000 -0.2989471214
N   N418      1.0  0.48780  0.25080  0.93080  1.0000 -0.2989471214
N   N419      1.0  0.01220  0.74920  0.43080  1.0000 -0.2989471214
N   N420      1.0  0.98780  0.24920  0.06920  1.0000 -0.2989471214
N   N421      1.0  0.43080  0.48780  0.24920  1.0000 -0.2989471214
N   N422      1.0  0.06920  0.51220  0.74920  1.0000 -0.2989471214
N   N423      1.0  0.56920  0.98780  0.25080  1.0000 -0.2989471214
N   N424      1.0  0.93080  0.01220  0.75080  1.0000 -0.2989471214
N   N425      1.0  0.24920  0.43080  0.48780  1.0000 -0.2989471214
N   N426      1.0  0.74920  0.06920  0.51220  1.0000 -0.2989471214
N   N427      1.0  0.25080  0.56920  0.98780  1.0000 -0.2989471214
N   N428      1.0  0.75080  0.93080  0.01220  1.0000 -0.2989471214
N   N429      1.0  0.48780  0.24920  0.43080  1.0000 -0.2989471214
N   N430      1.0  0.51220  0.74920  0.06920  1.0000 -0.2989471214
N   N431      1.0  0.98780  0.25080  0.56920  1.0000 -0.2989471214
N   N432      1.0  0.01220  0.75080  0.93080  1.0000 -0.2989471214
N   N433      1.0  0.52660  0.53030  0.72600  1.0000 -0.2908485929
N   N434      1.0  0.97340  0.46970  0.22600  1.0000 -0.2908485929
N   N435      1.0  0.47340  0.03030  0.77400  1.0000 -0.2908485929
N   N436      1.0  0.02660  0.96970  0.27400  1.0000 -0.2908485929
N   N437      1.0  0.72600  0.52660  0.53030  1.0000 -0.2908485929
N   N438      1.0  0.22600  0.97340  0.46970  1.0000 -0.2908485929
N   N439      1.0  0.77400  0.47340  0.03030  1.0000 -0.2908485929
N   N440      1.0  0.27400  0.02660  0.96970  1.0000 -0.2908485929
N   N441      1.0  0.53030  0.72600  0.52660  1.0000 -0.2908485929
N   N442      1.0  0.46970  0.22600  0.97340  1.0000 -0.2908485929
N   N443      1.0  0.03030  0.77400  0.47340  1.0000 -0.2908485929
N   N444      1.0  0.96970  0.27400  0.02660  1.0000 -0.2908485929
N   N445      1.0  0.47340  0.46970  0.27400  1.0000 -0.2908485929
N   N446      1.0  0.02660  0.53030  0.77400  1.0000 -0.2908485929
N   N447      1.0  0.52660  0.96970  0.22600  1.0000 -0.2908485929
N   N448      1.0  0.97340  0.03030  0.72600  1.0000 -0.2908485929
N   N449      1.0  0.27400  0.47340  0.46970  1.0000 -0.2908485929
N   N450      1.0  0.77400  0.02660  0.53030  1.0000 -0.2908485929
N   N451      1.0  0.22600  0.52660  0.96970  1.0000 -0.2908485929
N   N452      1.0  0.72600  0.97340  0.03030  1.0000 -0.2908485929
N   N453      1.0  0.46970  0.27400  0.47340  1.0000 -0.2908485929
N   N454      1.0  0.53030  0.77400  0.02660  1.0000 -0.2908485929
N   N455      1.0  0.96970  0.22600  0.52660  1.0000 -0.2908485929
N   N456      1.0  0.03030  0.72600  0.97340  1.0000 -0.2908485929
N   N457      1.0  0.55040  0.62460  0.79830  1.0000 -0.230095708
N   N458      1.0  0.94960  0.37540  0.29830  1.0000 -0.230095708
N   N459      1.0  0.44960  0.12460  0.70170  1.0000 -0.230095708
N   N460      1.0  0.05040  0.87540  0.20170  1.0000 -0.230095708
N   N461      1.0  0.79830  0.55040  0.62460  1.0000 -0.230095708
N   N462      1.0  0.29830  0.94960  0.37540  1.0000 -0.230095708
N   N463      1.0  0.70170  0.44960  0.12460  1.0000 -0.230095708
N   N464      1.0  0.20170  0.05040  0.87540  1.0000 -0.230095708
N   N465      1.0  0.62460  0.79830  0.55040  1.0000 -0.230095708
N   N466      1.0  0.37540  0.29830  0.94960  1.0000 -0.230095708
N   N467      1.0  0.12460  0.70170  0.44960  1.0000 -0.230095708
N   N468      1.0  0.87540  0.20170  0.05040  1.0000 -0.230095708
N   N469      1.0  0.44960  0.37540  0.20170  1.0000 -0.230095708
N   N470      1.0  0.05040  0.62460  0.70170  1.0000 -0.230095708
N   N471      1.0  0.55040  0.87540  0.29830  1.0000 -0.230095708
N   N472      1.0  0.94960  0.12460  0.79830  1.0000 -0.230095708
N   N473      1.0  0.20170  0.44960  0.37540  1.0000 -0.230095708
N   N474      1.0  0.70170  0.05040  0.62460  1.0000 -0.230095708
N   N475      1.0  0.29830  0.55040  0.87540  1.0000 -0.230095708
N   N476      1.0  0.79830  0.94960  0.12460  1.0000 -0.230095708
N   N477      1.0  0.37540  0.20170  0.44960  1.0000 -0.230095708
N   N478      1.0  0.62460  0.70170  0.05040  1.0000 -0.230095708
N   N479      1.0  0.87540  0.29830  0.55040  1.0000 -0.230095708
N   N480      1.0  0.12460  0.79830  0.94960  1.0000 -0.230095708
N   N481      1.0  0.46960  0.85290  0.05560  1.0000 -0.0700216726
N   N482      1.0  0.03040  0.14710  0.55560  1.0000 -0.0700216726
N   N483      1.0  0.53040  0.35290  0.44440  1.0000 -0.0700216726
N   N484      1.0  0.96960  0.64710  0.94440  1.0000 -0.0700216726
N   N485      1.0  0.05560  0.46960  0.85290  1.0000 -0.0700216726
N   N486      1.0  0.55560  0.03040  0.14710  1.0000 -0.0700216726
N   N487      1.0  0.44440  0.53040  0.35290  1.0000 -0.0700216726
N   N488      1.0  0.94440  0.96960  0.64710  1.0000 -0.0700216726
N   N489      1.0  0.85290  0.05560  0.46960  1.0000 -0.0700216726
N   N490      1.0  0.14710  0.55560  0.03040  1.0000 -0.0700216726
N   N491      1.0  0.35290  0.44440  0.53040  1.0000 -0.0700216726
N   N492      1.0  0.64710  0.94440  0.96960  1.0000 -0.0700216726
N   N493      1.0  0.53040  0.14710  0.94440  1.0000 -0.0700216726
N   N494      1.0  0.96960  0.85290  0.44440  1.0000 -0.0700216726
N   N495      1.0  0.46960  0.64710  0.55560  1.0000 -0.0700216726
N   N496      1.0  0.03040  0.35290  0.05560  1.0000 -0.0700216726
N   N497      1.0  0.94440  0.53040  0.14710  1.0000 -0.0700216726
N   N498      1.0  0.44440  0.96960  0.85290  1.0000 -0.0700216726
N   N499      1.0  0.55560  0.46960  0.64710  1.0000 -0.0700216726
N   N500      1.0  0.05560  0.03040  0.35290  1.0000 -0.0700216726
N   N501      1.0  0.14710  0.94440  0.53040  1.0000 -0.0700216726
N   N502      1.0  0.85290  0.44440  0.96960  1.0000 -0.0700216726
N   N503      1.0  0.64710  0.55560  0.46960  1.0000 -0.0700216726
N   N504      1.0  0.35290  0.05560  0.03040  1.0000 -0.0700216726
N   N505      1.0  0.45806  0.83910  0.08220  1.0000 -0.0616787402
N   N506      1.0  0.04194  0.16090  0.58220  1.0000 -0.0616787402
N   N507      1.0  0.54194  0.33910  0.41780  1.0000 -0.0616787402
N   N508      1.0  0.95806  0.66090  0.91780  1.0000 -0.0616787402
N   N509      1.0  0.08220  0.45806  0.83910  1.0000 -0.0616787402
N   N510      1.0  0.58220  0.04194  0.16090  1.0000 -0.0616787402
N   N511      1.0  0.41780  0.54194  0.33910  1.0000 -0.0616787402
N   N512      1.0  0.91780  0.95806  0.66090  1.0000 -0.0616787402
N   N513      1.0  0.83910  0.08220  0.45806  1.0000 -0.0616787402
N   N514      1.0  0.16090  0.58220  0.04194  1.0000 -0.0616787402
N   N515      1.0  0.33910  0.41780  0.54194  1.0000 -0.0616787402
N   N516      1.0  0.66090  0.91780  0.95806  1.0000 -0.0616787402
N   N517      1.0  0.54194  0.16090  0.91780  1.0000 -0.0616787402
N   N518      1.0  0.95806  0.83910  0.41780  1.0000 -0.0616787402
N   N519      1.0  0.45806  0.66090  0.58220  1.0000 -0.0616787402
N   N520      1.0  0.04194  0.33910  0.08220  1.0000 -0.0616787402
N   N521      1.0  0.91780  0.54194  0.16090  1.0000 -0.0616787402
N   N522      1.0  0.41780  0.95806  0.83910  1.0000 -0.0616787402
N   N523      1.0  0.58220  0.45806  0.66090  1.0000 -0.0616787402
N   N524      1.0  0.08220  0.04194  0.33910  1.0000 -0.0616787402
N   N525      1.0  0.16090  0.91780  0.54194  1.0000 -0.0616787402
N   N526      1.0  0.83910  0.41780  0.95806  1.0000 -0.0616787402
N   N527      1.0  0.66090  0.58220  0.45806  1.0000 -0.0616787402
N   N528      1.0  0.33910  0.08220  0.04194  1.0000 -0.0616787402
N   N529      1.0  0.48000  0.88240  0.06220  1.0000 -0.2789747538
N   N530      1.0  0.02000  0.11760  0.56220  1.0000 -0.2789747538
N   N531      1.0  0.52000  0.38240  0.43780  1.0000 -0.2789747538
N   N532      1.0  0.98000  0.61760  0.93780  1.0000 -0.2789747538
N   N533      1.0  0.06220  0.48000  0.88240  1.0000 -0.2789747538
N   N534      1.0  0.56220  0.02000  0.11760  1.0000 -0.2789747538
N   N535      1.0  0.43780  0.52000  0.38240  1.0000 -0.2789747538
N   N536      1.0  0.93780  0.98000  0.61760  1.0000 -0.2789747538
N   N537      1.0  0.88240  0.06220  0.48000  1.0000 -0.2789747538
N   N538      1.0  0.11760  0.56220  0.02000  1.0000 -0.2789747538
N   N539      1.0  0.38240  0.43780  0.52000  1.0000 -0.2789747538
N   N540      1.0  0.61760  0.93780  0.98000  1.0000 -0.2789747538
N   N541      1.0  0.52000  0.11760  0.93780  1.0000 -0.2789747538
N   N542      1.0  0.98000  0.88240  0.43780  1.0000 -0.2689914061
N   N543      1.0  0.48000  0.61760  0.56220  1.0000 -0.2789747538
N   N544      1.0  0.02000  0.38240  0.06220  1.0000 -0.2789747538
N   N545      1.0  0.93780  0.52000  0.11760  1.0000 -0.2789747538
N   N546      1.0  0.43780  0.98000  0.88240  1.0000 -0.2689914061
N   N547      1.0  0.56220  0.48000  0.61760  1.0000 -0.2789747538
N   N548      1.0  0.06220  0.02000  0.38240  1.0000 -0.2789747538
N   N549      1.0  0.11760  0.93780  0.52000  1.0000 -0.2789747538
N   N550      1.0  0.88240  0.43780  0.98000  1.0000 -0.2789747538
N   N551      1.0  0.61760  0.56220  0.48000  1.0000 -0.2789747538
N   N552      1.0  0.38240  0.06220  0.02000  1.0000 -0.2789747538
N   N553      1.0  0.46160  0.85950  0.10663  1.0000 -0.2789747538
N   N554      1.0  0.03840  0.14050  0.60663  1.0000 -0.2789747538
N   N555      1.0  0.53840  0.35950  0.39337  1.0000 -0.2789747538
N   N556      1.0  0.96160  0.64050  0.89337  1.0000 -0.2789747538
N   N557      1.0  0.10663  0.46160  0.85950  1.0000 -0.2789747538
N   N558      1.0  0.60663  0.03840  0.14050  1.0000 -0.2789747538
N   N559      1.0  0.39337  0.53840  0.35950  1.0000 -0.2789747538
N   N560      1.0  0.89337  0.96160  0.64050  1.0000 -0.2789747538
N   N561      1.0  0.85950  0.10663  0.46160  1.0000 -0.2789747538
N   N562      1.0  0.14050  0.60663  0.03840  1.0000 -0.2789747538
N   N563      1.0  0.35950  0.39337  0.53840  1.0000 -0.2789747538
N   N564      1.0  0.64050  0.89337  0.96160  1.0000 -0.2789747538
N   N565      1.0  0.53840  0.14050  0.89337  1.0000 -0.2789747538
N   N566      1.0  0.96160  0.85950  0.39337  1.0000 -0.2789747538
N   N567      1.0  0.46160  0.64050  0.60663  1.0000 -0.2789747538
N   N568      1.0  0.03840  0.35950  0.10663  1.0000 -0.2789747538
N   N569      1.0  0.89337  0.53840  0.14050  1.0000 -0.2789747538
N   N570      1.0  0.39337  0.96160  0.85950  1.0000 -0.2789747538
N   N571      1.0  0.60663  0.46160  0.64050  1.0000 -0.2789747538
N   N572      1.0  0.10663  0.03840  0.35950  1.0000 -0.2789747538
N   N573      1.0  0.14050  0.89337  0.53840  1.0000 -0.2789747538
N   N574      1.0  0.85950  0.39337  0.96160  1.0000 -0.2789747538
N   N575      1.0  0.64050  0.60663  0.46160  1.0000 -0.2789747538
N   N576      1.0  0.35950  0.10663  0.03840  1.0000 -0.2789747538
N   N577      1.0  0.50160  0.97050  0.14530  1.0000 -0.230095708
N   N578      1.0  0.99840  0.02950  0.64530  1.0000 -0.230095708
N   N579      1.0  0.49840  0.47050  0.35470  1.0000 -0.230095708
N   N580      1.0  0.00160  0.52950  0.85470  1.0000 -0.230095708
N   N581      1.0  0.14530  0.50160  0.97050  1.0000 -0.230095708
N   N582      1.0  0.64530  0.99840  0.02950  1.0000 -0.230095708
N   N583      1.0  0.35470  0.49840  0.47050  1.0000 -0.230095708
N   N584      1.0  0.85470  0.00160  0.52950  1.0000 -0.230095708
N   N585      1.0  0.97050  0.14530  0.50160  1.0000 -0.230095708
N   N586      1.0  0.02950  0.64530  0.99840  1.0000 -0.230095708
N   N587      1.0  0.47050  0.35470  0.49840  1.0000 -0.230095708
N   N588      1.0  0.52950  0.85470  0.00160  1.0000 -0.230095708
N   N589      1.0  0.49840  0.02950  0.85470  1.0000 -0.230095708
N   N590      1.0  0.00160  0.97050  0.35470  1.0000 -0.230095708
N   N591      1.0  0.50160  0.52950  0.64530  1.0000 -0.230095708
N   N592      1.0  0.99840  0.47050  0.14530  1.0000 -0.230095708
N   N593      1.0  0.85470  0.49840  0.02950  1.0000 -0.230095708
N   N594      1.0  0.35470  0.00160  0.97050  1.0000 -0.230095708
N   N595      1.0  0.64530  0.50160  0.52950  1.0000 -0.230095708
N   N596      1.0  0.14530  0.99840  0.47050  1.0000 -0.230095708
N   N597      1.0  0.02950  0.85470  0.49840  1.0000 -0.230095708
N   N598      1.0  0.97050  0.35470  0.00160  1.0000 -0.230095708
N   N599      1.0  0.52950  0.64530  0.50160  1.0000 -0.230095708
N   N600      1.0  0.47050  0.14530  0.99840  1.0000 -0.230095708
N   N601      1.0  0.48890  0.93250  0.80160  1.0000 -0.0806408888
N   N602      1.0  0.01110  0.06750  0.30160  1.0000 -0.0806408888
N   N603      1.0  0.51110  0.43250  0.69840  1.0000 -0.0806408888
N   N604      1.0  0.98890  0.56750  0.19840  1.0000 -0.0806408888
N   N605      1.0  0.80160  0.48890  0.93250  1.0000 -0.0700216726
N   N606      1.0  0.30160  0.01110  0.06750  1.0000 -0.0806408888
N   N607      1.0  0.69840  0.51110  0.43250  1.0000 -0.0806408888
N   N608      1.0  0.19840  0.98890  0.56750  1.0000 -0.0806408888
N   N609      1.0  0.93250  0.80160  0.48890  1.0000 -0.0806408888
N   N610      1.0  0.06750  0.30160  0.01110  1.0000 -0.0806408888
N   N611      1.0  0.43250  0.69840  0.51110  1.0000 -0.0806408888
N   N612      1.0  0.56750  0.19840  0.98890  1.0000 -0.0806408888
N   N613      1.0  0.51110  0.06750  0.19840  1.0000 -0.0806408888
N   N614      1.0  0.98890  0.93250  0.69840  1.0000 -0.0806408888
N   N615      1.0  0.48890  0.56750  0.30160  1.0000 -0.0806408888
N   N616      1.0  0.01110  0.43250  0.80160  1.0000 -0.0806408888
N   N617      1.0  0.19840  0.51110  0.06750  1.0000 -0.0806408888
N   N618      1.0  0.69840  0.98890  0.93250  1.0000 -0.0806408888
N   N619      1.0  0.30160  0.48890  0.56750  1.0000 -0.0806408888
N   N620      1.0  0.80160  0.01110  0.43250  1.0000 -0.0806408888
N   N621      1.0  0.06750  0.19840  0.51110  1.0000 -0.0806408888
N   N622      1.0  0.93250  0.69840  0.98890  1.0000 -0.0806408888
N   N623      1.0  0.56750  0.30160  0.48890  1.0000 -0.0806408888
N   N624      1.0  0.43250  0.80160  0.01110  1.0000 -0.0806408888
N   N625      1.0  0.46430  0.91830  0.78790  1.0000 -0.0616787402
N   N626      1.0  0.03570  0.08170  0.28790  1.0000 -0.0616787402
N   N627      1.0  0.53570  0.41830  0.71210  1.0000 -0.0616787402
N   N628      1.0  0.96430  0.58170  0.21210  1.0000 -0.0700216726
N   N629      1.0  0.78790  0.46430  0.91830  1.0000 -0.0616787402
N   N630      1.0  0.28790  0.03570  0.08170  1.0000 -0.0616787402
N   N631      1.0  0.71210  0.53570  0.41830  1.0000 -0.0616787402
N   N632      1.0  0.21210  0.96430  0.58170  1.0000 -0.0700216726
N   N633      1.0  0.91830  0.78790  0.46430  1.0000 -0.0616787402
N   N634      1.0  0.08170  0.28790  0.03570  1.0000 -0.0616787402
N   N635      1.0  0.41830  0.71210  0.53570  1.0000 -0.0616787402
N   N636      1.0  0.58170  0.21210  0.96430  1.0000 -0.0700216726
N   N637      1.0  0.53570  0.08170  0.21210  1.0000 -0.0616787402
N   N638      1.0  0.96430  0.91830  0.71210  1.0000 -0.0616787402
N   N639      1.0  0.46430  0.58170  0.28790  1.0000 -0.0616787402
N   N640      1.0  0.03570  0.41830  0.78790  1.0000 -0.0700216726
N   N641      1.0  0.21210  0.53570  0.08170  1.0000 -0.0616787402
N   N642      1.0  0.71210  0.96430  0.91830  1.0000 -0.0616787402
N   N643      1.0  0.28790  0.46430  0.58170  1.0000 -0.0616787402
N   N644      1.0  0.78790  0.03570  0.41830  1.0000 -0.0616787402
N   N645      1.0  0.08170  0.21210  0.53570  1.0000 -0.0616787402
N   N646      1.0  0.91830  0.71210  0.96430  1.0000 -0.0616787402
N   N647      1.0  0.58170  0.28790  0.46430  1.0000 -0.0616787402
N   N648      1.0  0.41830  0.78790  0.03570  1.0000 -0.0700216726
N   N649      1.0  0.51450  0.91270  0.80160  1.0000 -0.2908485929
N   N650      1.0  0.98550  0.08730  0.30160  1.0000 -0.2908485929
N   N651      1.0  0.48550  0.41270  0.69840  1.0000 -0.2908485929
N   N652      1.0  0.01450  0.58730  0.19840  1.0000 -0.2908485929
N   N653      1.0  0.80160  0.51450  0.91270  1.0000 -0.2908485929
N   N654      1.0  0.30160  0.98550  0.08730  1.0000 -0.2908485929
N   N655      1.0  0.69840  0.48550  0.41270  1.0000 -0.2908485929
N   N656      1.0  0.19840  0.01450  0.58730  1.0000 -0.2908485929
N   N657      1.0  0.91270  0.80160  0.51450  1.0000 -0.2908485929
N   N658      1.0  0.08730  0.30160  0.98550  1.0000 -0.2908485929
N   N659      1.0  0.41270  0.69840  0.48550  1.0000 -0.2908485929
N   N660      1.0  0.58730  0.19840  0.01450  1.0000 -0.2908485929
N   N661      1.0  0.48550  0.08730  0.19840  1.0000 -0.2908485929
N   N662      1.0  0.01450  0.91270  0.69840  1.0000 -0.2908485929
N   N663      1.0  0.51450  0.58730  0.30160  1.0000 -0.2908485929
N   N664      1.0  0.98550  0.41270  0.80160  1.0000 -0.2908485929
N   N665      1.0  0.19840  0.48550  0.08730  1.0000 -0.2908485929
N   N666      1.0  0.69840  0.01450  0.91270  1.0000 -0.2908485929
N   N667      1.0  0.30160  0.51450  0.58730  1.0000 -0.2908485929
N   N668      1.0  0.80160  0.98550  0.41270  1.0000 -0.2908485929
N   N669      1.0  0.08730  0.19840  0.48550  1.0000 -0.2908485929
N   N670      1.0  0.91270  0.69840  0.01450  1.0000 -0.2908485929
N   N671      1.0  0.58730  0.30160  0.51450  1.0000 -0.2908485929
N   N672      1.0  0.41270  0.80160  0.98550  1.0000 -0.2908485929
N   N673      1.0  0.47230  0.88840  0.77900  1.0000 -0.2789747538
N   N674      1.0  0.02770  0.11160  0.27900  1.0000 -0.2908485929
N   N675      1.0  0.52770  0.38840  0.72100  1.0000 -0.2789747538
N   N676      1.0  0.97230  0.61160  0.22100  1.0000 -0.2789747538
N   N677      1.0  0.77900  0.47230  0.88840  1.0000 -0.2789747538
N   N678      1.0  0.27900  0.02770  0.11160  1.0000 -0.2908485929
N   N679      1.0  0.72100  0.52770  0.38840  1.0000 -0.2789747538
N   N680      1.0  0.22100  0.97230  0.61160  1.0000 -0.2789747538
N   N681      1.0  0.88840  0.77900  0.47230  1.0000 -0.2789747538
N   N682      1.0  0.11160  0.27900  0.02770  1.0000 -0.2908485929
N   N683      1.0  0.38840  0.72100  0.52770  1.0000 -0.2789747538
N   N684      1.0  0.61160  0.22100  0.97230  1.0000 -0.2789747538
N   N685      1.0  0.52770  0.11160  0.22100  1.0000 -0.2789747538
N   N686      1.0  0.97230  0.88840  0.72100  1.0000 -0.2789747538
N   N687      1.0  0.47230  0.61160  0.27900  1.0000 -0.2789747538
N   N688      1.0  0.02770  0.38840  0.77900  1.0000 -0.2789747538
N   N689      1.0  0.22100  0.52770  0.11160  1.0000 -0.2789747538
N   N690      1.0  0.72100  0.97230  0.88840  1.0000 -0.2789747538
N   N691      1.0  0.27900  0.47230  0.61160  1.0000 -0.2789747538
N   N692      1.0  0.77900  0.02770  0.38840  1.0000 -0.2789747538
N   N693      1.0  0.11160  0.22100  0.52770  1.0000 -0.2789747538
N   N694      1.0  0.88840  0.72100  0.97230  1.0000 -0.2789747538
N   N695      1.0  0.61160  0.27900  0.47230  1.0000 -0.2789747538
N   N696      1.0  0.38840  0.77900  0.02770  1.0000 -0.2789747538
N   N697      1.0  0.56350  0.80300  0.78070  1.0000 -0.2214665277
N   N698      1.0  0.93650  0.19700  0.28070  1.0000 -0.2214665277
N   N699      1.0  0.43650  0.30300  0.71930  1.0000 -0.2214665277
N   N700      1.0  0.06350  0.69700  0.21930  1.0000 -0.2214665277
N   N701      1.0  0.78070  0.56350  0.80300  1.0000 -0.2214665277
N   N702      1.0  0.28070  0.93650  0.19700  1.0000 -0.2214665277
N   N703      1.0  0.71930  0.43650  0.30300  1.0000 -0.2214665277
N   N704      1.0  0.21930  0.06350  0.69700  1.0000 -0.2214665277
N   N705      1.0  0.80300  0.78070  0.56350  1.0000 -0.2214665277
N   N706      1.0  0.19700  0.28070  0.93650  1.0000 -0.2214665277
N   N707      1.0  0.30300  0.71930  0.43650  1.0000 -0.2214665277
N   N708      1.0  0.69700  0.21930  0.06350  1.0000 -0.2214665277
N   N709      1.0  0.43650  0.19700  0.21930  1.0000 -0.2214665277
N   N710      1.0  0.06350  0.80300  0.71930  1.0000 -0.2214665277
N   N711      1.0  0.56350  0.69700  0.28070  1.0000 -0.2214665277
N   N712      1.0  0.93650  0.30300  0.78070  1.0000 -0.2214665277
N   N713      1.0  0.21930  0.43650  0.19700  1.0000 -0.2214665277
N   N714      1.0  0.71930  0.06350  0.80300  1.0000 -0.2214665277
N   N715      1.0  0.28070  0.56350  0.69700  1.0000 -0.2214665277
N   N716      1.0  0.78070  0.93650  0.30300  1.0000 -0.2214665277
N   N717      1.0  0.19700  0.21930  0.43650  1.0000 -0.2214665277
N   N718      1.0  0.80300  0.71930  0.06350  1.0000 -0.2214665277
N   N719      1.0  0.69700  0.28070  0.56350  1.0000 -0.2214665277
N   N720      1.0  0.30300  0.78070  0.93650  1.0000 -0.2214665277
