# DDEC6 charges by PACMAN v1.1 (https://github.com/mtap-research/PACMAN-charge/)
data_2009[Cu][nbo]3[ASR]3
_chemical_formula_sum              "Cu6 H18 C54 O24"
_cell_length_a       15.374
_cell_length_b       15.374
_cell_length_c       15.374
_cell_angle_alpha    74.8415
_cell_angle_beta     74.8415
_cell_angle_gamma    74.8415

_symmetry_space_group_name_H-M    "P 1"
_symmetry_Int_Tables_number       1

loop_
  _symmetry_equiv_pos_as_xyz
  'x, y, z'

loop_
  _atom_site_type_symbol
  _atom_site_label
  _atom_site_symmetry_multiplicity
  _atom_site_fract_x
  _atom_site_fract_y
  _atom_site_fract_z
  _atom_site_occupancy
  _atom_site_charge
Cu  Cu1       1.0  0.00978  0.00978  0.57993  1.0000 0.8590631163
Cu  Cu2       1.0  0.00978  0.57993  0.00978  1.0000 0.8590631163
Cu  Cu3       1.0  0.57993  0.00978  0.00978  1.0000 0.8590631163
Cu  Cu4       1.0  0.99022  0.42007  0.99022  1.0000 0.8590631163
Cu  Cu5       1.0  0.99022  0.99022  0.42007  1.0000 0.8590631163
Cu  Cu6       1.0  0.42007  0.99022  0.99022  1.0000 0.8590631163
H   H1        1.0  0.69700  0.01110  0.48360  1.0000 0.1391409313
H   H2        1.0  0.01110  0.48360  0.69700  1.0000 0.1391409313
H   H3        1.0  0.48360  0.69700  0.01110  1.0000 0.1391409313
H   H4        1.0  0.30300  0.51640  0.98890  1.0000 0.1391409313
H   H5        1.0  0.98890  0.30300  0.51640  1.0000 0.1391409313
H   H6        1.0  0.51640  0.98890  0.30300  1.0000 0.1391409313
H   H7        1.0  0.30300  0.98890  0.51640  1.0000 0.1391409313
H   H8        1.0  0.98890  0.51640  0.30300  1.0000 0.1391409313
H   H9        1.0  0.51640  0.30300  0.98890  1.0000 0.1391409313
H   H10       1.0  0.69700  0.48360  0.01110  1.0000 0.1391409313
H   H11       1.0  0.01110  0.69700  0.48360  1.0000 0.1391409313
H   H12       1.0  0.48360  0.01110  0.69700  1.0000 0.1391409313
H   H13       1.0  0.72900  0.02590  0.72900  1.0000 0.1391409313
H   H14       1.0  0.02590  0.72900  0.72900  1.0000 0.1391409313
H   H15       1.0  0.72900  0.72900  0.02590  1.0000 0.1391409313
H   H16       1.0  0.27100  0.27100  0.97410  1.0000 0.1391409313
H   H17       1.0  0.97410  0.27100  0.27100  1.0000 0.1391409313
H   H18       1.0  0.27100  0.97410  0.27100  1.0000 0.1391409313
C   C1        1.0  0.72854  0.01844  0.59904  1.0000 -0.0267605418
C   C2        1.0  0.01844  0.59904  0.72854  1.0000 -0.0267605418
C   C3        1.0  0.59904  0.72854  0.01844  1.0000 -0.0267605418
C   C4        1.0  0.27146  0.40096  0.98156  1.0000 -0.0267605418
C   C5        1.0  0.98156  0.27146  0.40096  1.0000 -0.0267605418
C   C6        1.0  0.40096  0.98156  0.27146  1.0000 -0.0267605418
C   C7        1.0  0.27146  0.98156  0.40096  1.0000 -0.0267605418
C   C8        1.0  0.98156  0.40096  0.27146  1.0000 -0.0267605418
C   C9        1.0  0.40096  0.27146  0.98156  1.0000 -0.0267605418
C   C10       1.0  0.72854  0.59904  0.01844  1.0000 -0.0267605418
C   C11       1.0  0.01844  0.72854  0.59904  1.0000 -0.0267605418
C   C12       1.0  0.59904  0.01844  0.72854  1.0000 -0.0267605418
C   C13       1.0  0.67277  0.01277  0.54537  1.0000 -0.1211028062
C   C14       1.0  0.01277  0.54537  0.67277  1.0000 -0.1211028062
C   C15       1.0  0.54537  0.67277  0.01277  1.0000 -0.1211028062
C   C16       1.0  0.32723  0.45463  0.98723  1.0000 -0.1211028062
C   C17       1.0  0.98723  0.32723  0.45463  1.0000 -0.1211028062
C   C18       1.0  0.45463  0.98723  0.32723  1.0000 -0.1211028062
C   C19       1.0  0.32723  0.98723  0.45463  1.0000 -0.1211028062
C   C20       1.0  0.98723  0.45463  0.32723  1.0000 -0.1211028062
C   C21       1.0  0.45463  0.32723  0.98723  1.0000 -0.1211028062
C   C22       1.0  0.67277  0.54537  0.01277  1.0000 -0.1211028062
C   C23       1.0  0.01277  0.67277  0.54537  1.0000 -0.1211028062
C   C24       1.0  0.54537  0.01277  0.67277  1.0000 -0.1211028062
C   C25       1.0  0.58085  0.00960  0.58085  1.0000 0.1087355105
C   C26       1.0  0.00960  0.58085  0.58085  1.0000 0.1087355105
C   C27       1.0  0.58085  0.58085  0.00960  1.0000 0.1087355105
C   C28       1.0  0.41915  0.41915  0.99040  1.0000 0.1087355105
C   C29       1.0  0.99040  0.41915  0.41915  1.0000 0.1087355105
C   C30       1.0  0.41915  0.99040  0.41915  1.0000 0.1087355105
C   C31       1.0  0.52313  0.00378  0.52313  1.0000 -0.0930768388
C   C32       1.0  0.00378  0.52313  0.52313  1.0000 -0.0930768388
C   C33       1.0  0.52313  0.52313  0.00378  1.0000 -0.0930768388
C   C34       1.0  0.47687  0.47687  0.99622  1.0000 -0.0930768388
C   C35       1.0  0.99622  0.47687  0.47687  1.0000 -0.0930768388
C   C36       1.0  0.47687  0.99622  0.47687  1.0000 -0.0930768388
C   C37       1.0  0.69189  0.02164  0.69189  1.0000 -0.0832588883
C   C38       1.0  0.02164  0.69189  0.69189  1.0000 -0.0832588883
C   C39       1.0  0.69189  0.69189  0.02164  1.0000 -0.0832588883
C   C40       1.0  0.30811  0.30811  0.97836  1.0000 -0.0832588883
C   C41       1.0  0.97836  0.30811  0.30811  1.0000 -0.0832588883
C   C42       1.0  0.30811  0.97836  0.30811  1.0000 -0.0832588883
C   C43       1.0  0.82927  0.01637  0.56137  1.0000 0.5842571681
C   C44       1.0  0.01637  0.56137  0.82927  1.0000 0.5842571681
C   C45       1.0  0.56137  0.82927  0.01637  1.0000 0.5842571681
C   C46       1.0  0.17073  0.43863  0.98363  1.0000 0.5842571681
C   C47       1.0  0.98363  0.17073  0.43863  1.0000 0.5842571681
C   C48       1.0  0.43863  0.98363  0.17073  1.0000 0.5842571681
C   C49       1.0  0.17073  0.98363  0.43863  1.0000 0.5842571681
C   C50       1.0  0.98363  0.43863  0.17073  1.0000 0.5842571681
C   C51       1.0  0.43863  0.17073  0.98363  1.0000 0.5842571681
C   C52       1.0  0.82927  0.56137  0.01637  1.0000 0.5842571681
C   C53       1.0  0.01637  0.82927  0.56137  1.0000 0.5842571681
C   C54       1.0  0.56137  0.01637  0.82927  1.0000 0.5842571681
O   O1        1.0  0.87571  0.02110  0.61598  1.0000 -0.5204183335
O   O2        1.0  0.02110  0.61598  0.87571  1.0000 -0.5204183335
O   O3        1.0  0.61598  0.87571  0.02110  1.0000 -0.5204183335
O   O4        1.0  0.12429  0.38402  0.97890  1.0000 -0.5204183335
O   O5        1.0  0.97890  0.12429  0.38402  1.0000 -0.5204183335
O   O6        1.0  0.38402  0.97890  0.12429  1.0000 -0.5204183335
O   O7        1.0  0.12429  0.97890  0.38402  1.0000 -0.5204183335
O   O8        1.0  0.97890  0.38402  0.12429  1.0000 -0.5204183335
O   O9        1.0  0.38402  0.12429  0.97890  1.0000 -0.5204183335
O   O10       1.0  0.87571  0.61598  0.02110  1.0000 -0.5204183335
O   O11       1.0  0.02110  0.87571  0.61598  1.0000 -0.5204183335
O   O12       1.0  0.61598  0.02110  0.87571  1.0000 -0.5204183335
O   O13       1.0  0.85979  0.00609  0.47903  1.0000 -0.5204183335
O   O14       1.0  0.00609  0.47903  0.85979  1.0000 -0.5204183335
O   O15       1.0  0.47903  0.85979  0.00609  1.0000 -0.5204183335
O   O16       1.0  0.14021  0.52097  0.99391  1.0000 -0.5204183335
O   O17       1.0  0.99391  0.14021  0.52097  1.0000 -0.5204183335
O   O18       1.0  0.52097  0.99391  0.14021  1.0000 -0.5204183335
O   O19       1.0  0.14021  0.99391  0.52097  1.0000 -0.5204183335
O   O20       1.0  0.99391  0.52097  0.14021  1.0000 -0.5204183335
O   O21       1.0  0.52097  0.14021  0.99391  1.0000 -0.5204183335
O   O22       1.0  0.85979  0.47903  0.00609  1.0000 -0.5204183335
O   O23       1.0  0.00609  0.85979  0.47903  1.0000 -0.5204183335
O   O24       1.0  0.47903  0.00609  0.85979  1.0000 -0.5204183335
