# DDEC6 charges by PACMAN v1.1 (https://github.com/mtap-research/PACMAN-charge/)
data_2009[Zn][nts]3[ASR]1
_chemical_formula_sum              "Zn24 H96 C288 O96"
_cell_length_a       30.3024
_cell_length_b       30.3024
_cell_length_c       30.3024
_cell_angle_alpha    60
_cell_angle_beta     60
_cell_angle_gamma    60

_symmetry_space_group_name_H-M    "P 1"
_symmetry_Int_Tables_number       1

loop_
  _symmetry_equiv_pos_as_xyz
  'x, y, z'

loop_
  _atom_site_type_symbol
  _atom_site_label
  _atom_site_symmetry_multiplicity
  _atom_site_fract_x
  _atom_site_fract_y
  _atom_site_fract_z
  _atom_site_occupancy
  _atom_site_charge
Zn  Zn1       1.0  0.24220  0.50000  0.50000  1.0000 0.9428030902
Zn  Zn2       1.0  0.50000  0.24220  0.75780  1.0000 0.9428030902
Zn  Zn3       1.0  0.50000  0.75780  0.24220  1.0000 0.9428030902
Zn  Zn4       1.0  0.75780  0.50000  0.50000  1.0000 0.9428030902
Zn  Zn5       1.0  0.50000  0.24220  0.50000  1.0000 0.9428030902
Zn  Zn6       1.0  0.75780  0.50000  0.24220  1.0000 0.9428030902
Zn  Zn7       1.0  0.24220  0.50000  0.75780  1.0000 0.9428030902
Zn  Zn8       1.0  0.50000  0.75780  0.50000  1.0000 0.9428030902
Zn  Zn9       1.0  0.50000  0.50000  0.24220  1.0000 0.9428030902
Zn  Zn10      1.0  0.24220  0.75780  0.50000  1.0000 0.9428030902
Zn  Zn11      1.0  0.75780  0.24220  0.50000  1.0000 0.9428030902
Zn  Zn12      1.0  0.50000  0.50000  0.75780  1.0000 0.9428030902
Zn  Zn13      1.0  0.14271  0.50000  0.50000  1.0000 0.9465835744
Zn  Zn14      1.0  0.50000  0.14271  0.85729  1.0000 0.9465835744
Zn  Zn15      1.0  0.50000  0.85729  0.14271  1.0000 0.9465835744
Zn  Zn16      1.0  0.85729  0.50000  0.50000  1.0000 0.9465835744
Zn  Zn17      1.0  0.50000  0.14271  0.50000  1.0000 0.9465835744
Zn  Zn18      1.0  0.85729  0.50000  0.14271  1.0000 0.9465835744
Zn  Zn19      1.0  0.14271  0.50000  0.85729  1.0000 0.9465835744
Zn  Zn20      1.0  0.50000  0.85729  0.50000  1.0000 0.9465835744
Zn  Zn21      1.0  0.50000  0.50000  0.14271  1.0000 0.9465835744
Zn  Zn22      1.0  0.14271  0.85729  0.50000  1.0000 0.9465835744
Zn  Zn23      1.0  0.85729  0.14271  0.50000  1.0000 0.9465835744
Zn  Zn24      1.0  0.50000  0.50000  0.85729  1.0000 0.9465835744
H   H1        1.0  0.18480  0.66520  0.48480  1.0000 0.1311373513
H   H2        1.0  0.66520  0.18480  0.66520  1.0000 0.1311373513
H   H3        1.0  0.48480  0.66520  0.18480  1.0000 0.1311373513
H   H4        1.0  0.66520  0.48480  0.66520  1.0000 0.1311373513
H   H5        1.0  0.48480  0.18480  0.66520  1.0000 0.1311373513
H   H6        1.0  0.66520  0.66520  0.18480  1.0000 0.1311373513
H   H7        1.0  0.18480  0.48480  0.66520  1.0000 0.1311373513
H   H8        1.0  0.66520  0.66520  0.48480  1.0000 0.1311373513
H   H9        1.0  0.66520  0.48480  0.18480  1.0000 0.1311373513
H   H10       1.0  0.18480  0.66520  0.66520  1.0000 0.1311373513
H   H11       1.0  0.66520  0.18480  0.48480  1.0000 0.1311373513
H   H12       1.0  0.48480  0.66520  0.66520  1.0000 0.1311373513
H   H13       1.0  0.81520  0.33480  0.33480  1.0000 0.1311373513
H   H14       1.0  0.33480  0.81520  0.51520  1.0000 0.1311373513
H   H15       1.0  0.51520  0.33480  0.33480  1.0000 0.1311373513
H   H16       1.0  0.33480  0.51520  0.81520  1.0000 0.1311373513
H   H17       1.0  0.51520  0.81520  0.33480  1.0000 0.1311373513
H   H18       1.0  0.33480  0.33480  0.51520  1.0000 0.1311373513
H   H19       1.0  0.81520  0.51520  0.33480  1.0000 0.1311373513
H   H20       1.0  0.33480  0.33480  0.81520  1.0000 0.1311373513
H   H21       1.0  0.33480  0.51520  0.33480  1.0000 0.1311373513
H   H22       1.0  0.81520  0.33480  0.51520  1.0000 0.1311373513
H   H23       1.0  0.33480  0.81520  0.33480  1.0000 0.1311373513
H   H24       1.0  0.51520  0.33480  0.81520  1.0000 0.1311373513
H   H25       1.0  0.05960  0.67140  0.46400  1.0000 0.1359443755
H   H26       1.0  0.67140  0.05960  0.80500  1.0000 0.1359443755
H   H27       1.0  0.46400  0.80500  0.05960  1.0000 0.1359443755
H   H28       1.0  0.80500  0.46400  0.67140  1.0000 0.1359443755
H   H29       1.0  0.46400  0.05960  0.67140  1.0000 0.1359443755
H   H30       1.0  0.80500  0.67140  0.05960  1.0000 0.1359443755
H   H31       1.0  0.05960  0.46400  0.80500  1.0000 0.1359443755
H   H32       1.0  0.67140  0.80500  0.46400  1.0000 0.1359443755
H   H33       1.0  0.67140  0.46400  0.05960  1.0000 0.1359443755
H   H34       1.0  0.05960  0.80500  0.67140  1.0000 0.1359443755
H   H35       1.0  0.80500  0.05960  0.46400  1.0000 0.1359443755
H   H36       1.0  0.46400  0.67140  0.80500  1.0000 0.1359443755
H   H37       1.0  0.94040  0.32860  0.19500  1.0000 0.1359443755
H   H38       1.0  0.32860  0.94040  0.53600  1.0000 0.1359443755
H   H39       1.0  0.53600  0.19500  0.32860  1.0000 0.1359443755
H   H40       1.0  0.19500  0.53600  0.94040  1.0000 0.1359443755
H   H41       1.0  0.53600  0.94040  0.19500  1.0000 0.1359443755
H   H42       1.0  0.19500  0.32860  0.53600  1.0000 0.1359443755
H   H43       1.0  0.94040  0.53600  0.32860  1.0000 0.1359443755
H   H44       1.0  0.32860  0.19500  0.94040  1.0000 0.1359443755
H   H45       1.0  0.32860  0.53600  0.19500  1.0000 0.1359443755
H   H46       1.0  0.94040  0.19500  0.53600  1.0000 0.1359443755
H   H47       1.0  0.19500  0.94040  0.32860  1.0000 0.1359443755
H   H48       1.0  0.53600  0.32860  0.94040  1.0000 0.1359443755
H   H49       1.0  0.94040  0.32860  0.53600  1.0000 0.1359443755
H   H50       1.0  0.32860  0.94040  0.19500  1.0000 0.1359443755
H   H51       1.0  0.53600  0.19500  0.94040  1.0000 0.1359443755
H   H52       1.0  0.19500  0.53600  0.32860  1.0000 0.1359443755
H   H53       1.0  0.53600  0.94040  0.32860  1.0000 0.1359443755
H   H54       1.0  0.19500  0.32860  0.94040  1.0000 0.1359443755
H   H55       1.0  0.94040  0.53600  0.19500  1.0000 0.1359443755
H   H56       1.0  0.32860  0.19500  0.53600  1.0000 0.1359443755
H   H57       1.0  0.32860  0.53600  0.94040  1.0000 0.1359443755
H   H58       1.0  0.94040  0.19500  0.32860  1.0000 0.1359443755
H   H59       1.0  0.19500  0.94040  0.53600  1.0000 0.1359443755
H   H60       1.0  0.53600  0.32860  0.19500  1.0000 0.1359443755
H   H61       1.0  0.05960  0.67140  0.80500  1.0000 0.1359443755
H   H62       1.0  0.67140  0.05960  0.46400  1.0000 0.1359443755
H   H63       1.0  0.46400  0.80500  0.67140  1.0000 0.1359443755
H   H64       1.0  0.80500  0.46400  0.05960  1.0000 0.1359443755
H   H65       1.0  0.46400  0.05960  0.80500  1.0000 0.1359443755
H   H66       1.0  0.80500  0.67140  0.46400  1.0000 0.1359443755
H   H67       1.0  0.05960  0.46400  0.67140  1.0000 0.1359443755
H   H68       1.0  0.67140  0.80500  0.05960  1.0000 0.1359443755
H   H69       1.0  0.67140  0.46400  0.80500  1.0000 0.1359443755
H   H70       1.0  0.05960  0.80500  0.46400  1.0000 0.1359443755
H   H71       1.0  0.80500  0.05960  0.67140  1.0000 0.1359443755
H   H72       1.0  0.46400  0.67140  0.05960  1.0000 0.1359443755
H   H73       1.0  0.89480  0.76300  0.44740  1.0000 0.1311373513
H   H74       1.0  0.76300  0.89480  0.89480  1.0000 0.1311373513
H   H75       1.0  0.44740  0.89480  0.89480  1.0000 0.1311373513
H   H76       1.0  0.89480  0.44740  0.76300  1.0000 0.1311373513
H   H77       1.0  0.44740  0.89480  0.76300  1.0000 0.1311373513
H   H78       1.0  0.89480  0.76300  0.89480  1.0000 0.1311373513
H   H79       1.0  0.89480  0.44740  0.89480  1.0000 0.1311373513
H   H80       1.0  0.76300  0.89480  0.44740  1.0000 0.1311373513
H   H81       1.0  0.76300  0.44740  0.89480  1.0000 0.1311373513
H   H82       1.0  0.89480  0.89480  0.76300  1.0000 0.1311373513
H   H83       1.0  0.89480  0.89480  0.44740  1.0000 0.1311373513
H   H84       1.0  0.44740  0.76300  0.89480  1.0000 0.1311373513
H   H85       1.0  0.10520  0.23700  0.10520  1.0000 0.1311373513
H   H86       1.0  0.23700  0.10520  0.55260  1.0000 0.1311373513
H   H87       1.0  0.55260  0.10520  0.23700  1.0000 0.1311373513
H   H88       1.0  0.10520  0.55260  0.10520  1.0000 0.1311373513
H   H89       1.0  0.55260  0.10520  0.10520  1.0000 0.1311373513
H   H90       1.0  0.10520  0.23700  0.55260  1.0000 0.1311373513
H   H91       1.0  0.10520  0.55260  0.23700  1.0000 0.1311373513
H   H92       1.0  0.23700  0.10520  0.10520  1.0000 0.1311373513
H   H93       1.0  0.23700  0.55260  0.10520  1.0000 0.1311373513
H   H94       1.0  0.10520  0.10520  0.55260  1.0000 0.1311373513
H   H95       1.0  0.10520  0.10520  0.23700  1.0000 0.1311373513
H   H96       1.0  0.55260  0.23700  0.10520  1.0000 0.1311373513
C   C1        1.0  0.15077  0.60053  0.48379  1.0000 0.5982997546
C   C2        1.0  0.60053  0.15077  0.76491  1.0000 0.5982997546
C   C3        1.0  0.48379  0.76491  0.15077  1.0000 0.5982997546
C   C4        1.0  0.76491  0.48379  0.60053  1.0000 0.5982997546
C   C5        1.0  0.48379  0.15077  0.60053  1.0000 0.5982997546
C   C6        1.0  0.76491  0.60053  0.15077  1.0000 0.5982997546
C   C7        1.0  0.15077  0.48379  0.76491  1.0000 0.5982997546
C   C8        1.0  0.60053  0.76491  0.48379  1.0000 0.5982997546
C   C9        1.0  0.60053  0.48379  0.15077  1.0000 0.5982997546
C   C10       1.0  0.15077  0.76491  0.60053  1.0000 0.5982997546
C   C11       1.0  0.76491  0.15077  0.48379  1.0000 0.5982997546
C   C12       1.0  0.48379  0.60053  0.76491  1.0000 0.5982997546
C   C13       1.0  0.84923  0.39947  0.23509  1.0000 0.5982997546
C   C14       1.0  0.39947  0.84923  0.51621  1.0000 0.5982997546
C   C15       1.0  0.51621  0.23509  0.39947  1.0000 0.5982997546
C   C16       1.0  0.23509  0.51621  0.84923  1.0000 0.5982997546
C   C17       1.0  0.51621  0.84923  0.23509  1.0000 0.5982997546
C   C18       1.0  0.23509  0.39947  0.51621  1.0000 0.5982997546
C   C19       1.0  0.84923  0.51621  0.39947  1.0000 0.5982997546
C   C20       1.0  0.39947  0.23509  0.84923  1.0000 0.5982997546
C   C21       1.0  0.39947  0.51621  0.23509  1.0000 0.5982997546
C   C22       1.0  0.84923  0.23509  0.51621  1.0000 0.5982997546
C   C23       1.0  0.23509  0.84923  0.39947  1.0000 0.5982997546
C   C24       1.0  0.51621  0.39947  0.84923  1.0000 0.5982997546
C   C25       1.0  0.84923  0.39947  0.51621  1.0000 0.5982997546
C   C26       1.0  0.39947  0.84923  0.23509  1.0000 0.5982997546
C   C27       1.0  0.51621  0.23509  0.84923  1.0000 0.5982997546
C   C28       1.0  0.23509  0.51621  0.39947  1.0000 0.5982997546
C   C29       1.0  0.51621  0.84923  0.39947  1.0000 0.5982997546
C   C30       1.0  0.23509  0.39947  0.84923  1.0000 0.5982997546
C   C31       1.0  0.84923  0.51621  0.23509  1.0000 0.5982997546
C   C32       1.0  0.39947  0.23509  0.51621  1.0000 0.5982997546
C   C33       1.0  0.39947  0.51621  0.84923  1.0000 0.5982997546
C   C34       1.0  0.84923  0.23509  0.39947  1.0000 0.5982997546
C   C35       1.0  0.23509  0.84923  0.51621  1.0000 0.5982997546
C   C36       1.0  0.51621  0.39947  0.23509  1.0000 0.5982997546
C   C37       1.0  0.15077  0.60053  0.76491  1.0000 0.5982997546
C   C38       1.0  0.60053  0.15077  0.48379  1.0000 0.5982997546
C   C39       1.0  0.48379  0.76491  0.60053  1.0000 0.5982997546
C   C40       1.0  0.76491  0.48379  0.15077  1.0000 0.5982997546
C   C41       1.0  0.48379  0.15077  0.76491  1.0000 0.5982997546
C   C42       1.0  0.76491  0.60053  0.48379  1.0000 0.5982997546
C   C43       1.0  0.15077  0.48379  0.60053  1.0000 0.5982997546
C   C44       1.0  0.60053  0.76491  0.15077  1.0000 0.5982997546
C   C45       1.0  0.60053  0.48379  0.76491  1.0000 0.5982997546
C   C46       1.0  0.15077  0.76491  0.48379  1.0000 0.5982997546
C   C47       1.0  0.76491  0.15077  0.60053  1.0000 0.5982997546
C   C48       1.0  0.48379  0.60053  0.15077  1.0000 0.5982997546
C   C49       1.0  0.12519  0.65935  0.47713  1.0000 -0.0325701166
C   C50       1.0  0.65935  0.12519  0.73833  1.0000 -0.0325701166
C   C51       1.0  0.47713  0.73833  0.12519  1.0000 -0.0325701166
C   C52       1.0  0.73833  0.47713  0.65935  1.0000 -0.0325701166
C   C53       1.0  0.47713  0.12519  0.65935  1.0000 -0.0325701166
C   C54       1.0  0.73833  0.65935  0.12519  1.0000 -0.0325701166
C   C55       1.0  0.12519  0.47713  0.73833  1.0000 -0.0325701166
C   C56       1.0  0.65935  0.73833  0.47713  1.0000 -0.0325701166
C   C57       1.0  0.65935  0.47713  0.12519  1.0000 -0.0325701166
C   C58       1.0  0.12519  0.73833  0.65935  1.0000 -0.0325701166
C   C59       1.0  0.73833  0.12519  0.47713  1.0000 -0.0325701166
C   C60       1.0  0.47713  0.65935  0.73833  1.0000 -0.0325701166
C   C61       1.0  0.87481  0.34065  0.26167  1.0000 -0.0325701166
C   C62       1.0  0.34065  0.87481  0.52287  1.0000 -0.0325701166
C   C63       1.0  0.52287  0.26167  0.34065  1.0000 -0.0325701166
C   C64       1.0  0.26167  0.52287  0.87481  1.0000 -0.0325701166
C   C65       1.0  0.52287  0.87481  0.26167  1.0000 -0.0325701166
C   C66       1.0  0.26167  0.34065  0.52287  1.0000 -0.0325701166
C   C67       1.0  0.87481  0.52287  0.34065  1.0000 -0.0325701166
C   C68       1.0  0.34065  0.26167  0.87481  1.0000 -0.0325701166
C   C69       1.0  0.34065  0.52287  0.26167  1.0000 -0.0325701166
C   C70       1.0  0.87481  0.26167  0.52287  1.0000 -0.0325701166
C   C71       1.0  0.26167  0.87481  0.34065  1.0000 -0.0325701166
C   C72       1.0  0.52287  0.34065  0.87481  1.0000 -0.0325701166
C   C73       1.0  0.87481  0.34065  0.52287  1.0000 -0.0325701166
C   C74       1.0  0.34065  0.87481  0.26167  1.0000 -0.0325701166
C   C75       1.0  0.52287  0.26167  0.87481  1.0000 -0.0325701166
C   C76       1.0  0.26167  0.52287  0.34065  1.0000 -0.0325701166
C   C77       1.0  0.52287  0.87481  0.34065  1.0000 -0.0325701166
C   C78       1.0  0.26167  0.34065  0.87481  1.0000 -0.0325701166
C   C79       1.0  0.87481  0.52287  0.26167  1.0000 -0.0325701166
C   C80       1.0  0.34065  0.26167  0.52287  1.0000 -0.0325701166
C   C81       1.0  0.34065  0.52287  0.87481  1.0000 -0.0325701166
C   C82       1.0  0.87481  0.26167  0.34065  1.0000 -0.0325701166
C   C83       1.0  0.26167  0.87481  0.52287  1.0000 -0.0325701166
C   C84       1.0  0.52287  0.34065  0.26167  1.0000 -0.0325701166
C   C85       1.0  0.12519  0.65935  0.73833  1.0000 -0.0325701166
C   C86       1.0  0.65935  0.12519  0.47713  1.0000 -0.0325701166
C   C87       1.0  0.47713  0.73833  0.65935  1.0000 -0.0325701166
C   C88       1.0  0.73833  0.47713  0.12519  1.0000 -0.0325701166
C   C89       1.0  0.47713  0.12519  0.73833  1.0000 -0.0325701166
C   C90       1.0  0.73833  0.65935  0.47713  1.0000 -0.0325701166
C   C91       1.0  0.12519  0.47713  0.65935  1.0000 -0.0325701166
C   C92       1.0  0.65935  0.73833  0.12519  1.0000 -0.0325701166
C   C93       1.0  0.65935  0.47713  0.73833  1.0000 -0.0325701166
C   C94       1.0  0.12519  0.73833  0.47713  1.0000 -0.0325701166
C   C95       1.0  0.73833  0.12519  0.65935  1.0000 -0.0325701166
C   C96       1.0  0.47713  0.65935  0.12519  1.0000 -0.0325701166
C   C97       1.0  0.15038  0.68464  0.48034  1.0000 -0.0879034733
C   C98       1.0  0.68464  0.15038  0.68464  1.0000 -0.0879034733
C   C99       1.0  0.48034  0.68464  0.15038  1.0000 -0.0879034733
C   C100      1.0  0.68464  0.48034  0.68464  1.0000 -0.0879034733
C   C101      1.0  0.48034  0.15038  0.68464  1.0000 -0.0879034733
C   C102      1.0  0.68464  0.68464  0.15038  1.0000 -0.0879034733
C   C103      1.0  0.15038  0.48034  0.68464  1.0000 -0.0879034733
C   C104      1.0  0.68464  0.68464  0.48034  1.0000 -0.0879034733
C   C105      1.0  0.68464  0.48034  0.15038  1.0000 -0.0879034733
C   C106      1.0  0.15038  0.68464  0.68464  1.0000 -0.0879034733
C   C107      1.0  0.68464  0.15038  0.48034  1.0000 -0.0879034733
C   C108      1.0  0.48034  0.68464  0.68464  1.0000 -0.0879034733
C   C109      1.0  0.84962  0.31536  0.31536  1.0000 -0.0879034733
C   C110      1.0  0.31536  0.84962  0.51966  1.0000 -0.0879034733
C   C111      1.0  0.51966  0.31536  0.31536  1.0000 -0.0879034733
C   C112      1.0  0.31536  0.51966  0.84962  1.0000 -0.0879034733
C   C113      1.0  0.51966  0.84962  0.31536  1.0000 -0.0879034733
C   C114      1.0  0.31536  0.31536  0.51966  1.0000 -0.0879034733
C   C115      1.0  0.84962  0.51966  0.31536  1.0000 -0.0879034733
C   C116      1.0  0.31536  0.31536  0.84962  1.0000 -0.0879034733
C   C117      1.0  0.31536  0.51966  0.31536  1.0000 -0.0879034733
C   C118      1.0  0.84962  0.31536  0.51966  1.0000 -0.0879034733
C   C119      1.0  0.31536  0.84962  0.31536  1.0000 -0.0879034733
C   C120      1.0  0.51966  0.31536  0.84962  1.0000 -0.0879034733
C   C121      1.0  0.07584  0.68812  0.46836  1.0000 -0.1318274996
C   C122      1.0  0.68812  0.07584  0.76768  1.0000 -0.1318274996
C   C123      1.0  0.46836  0.76768  0.07584  1.0000 -0.1318274996
C   C124      1.0  0.76768  0.46836  0.68812  1.0000 -0.1318274996
C   C125      1.0  0.46836  0.07584  0.68812  1.0000 -0.1318274996
C   C126      1.0  0.76768  0.68812  0.07584  1.0000 -0.1318274996
C   C127      1.0  0.07584  0.46836  0.76768  1.0000 -0.1318274996
C   C128      1.0  0.68812  0.76768  0.46836  1.0000 -0.1318274996
C   C129      1.0  0.68812  0.46836  0.07584  1.0000 -0.1318274996
C   C130      1.0  0.07584  0.76768  0.68812  1.0000 -0.1318274996
C   C131      1.0  0.76768  0.07584  0.46836  1.0000 -0.1318274996
C   C132      1.0  0.46836  0.68812  0.76768  1.0000 -0.1318274996
C   C133      1.0  0.92416  0.31188  0.23232  1.0000 -0.1318274996
C   C134      1.0  0.31188  0.92416  0.53164  1.0000 -0.1318274996
C   C135      1.0  0.53164  0.23232  0.31188  1.0000 -0.1318274996
C   C136      1.0  0.23232  0.53164  0.92416  1.0000 -0.1318274996
C   C137      1.0  0.53164  0.92416  0.23232  1.0000 -0.1318274996
C   C138      1.0  0.23232  0.31188  0.53164  1.0000 -0.1318274996
C   C139      1.0  0.92416  0.53164  0.31188  1.0000 -0.1318274996
C   C140      1.0  0.31188  0.23232  0.92416  1.0000 -0.1318274996
C   C141      1.0  0.31188  0.53164  0.23232  1.0000 -0.1318274996
C   C142      1.0  0.92416  0.23232  0.53164  1.0000 -0.1318274996
C   C143      1.0  0.23232  0.92416  0.31188  1.0000 -0.1318274996
C   C144      1.0  0.53164  0.31188  0.92416  1.0000 -0.1318274996
C   C145      1.0  0.92416  0.31188  0.53164  1.0000 -0.1318274996
C   C146      1.0  0.31188  0.92416  0.23232  1.0000 -0.1318274996
C   C147      1.0  0.53164  0.23232  0.92416  1.0000 -0.1318274996
C   C148      1.0  0.23232  0.53164  0.31188  1.0000 -0.1318274996
C   C149      1.0  0.53164  0.92416  0.31188  1.0000 -0.1318274996
C   C150      1.0  0.23232  0.31188  0.92416  1.0000 -0.1318274996
C   C151      1.0  0.92416  0.53164  0.23232  1.0000 -0.1318274996
C   C152      1.0  0.31188  0.23232  0.53164  1.0000 -0.1318274996
C   C153      1.0  0.31188  0.53164  0.92416  1.0000 -0.1318274996
C   C154      1.0  0.92416  0.23232  0.31188  1.0000 -0.1318274996
C   C155      1.0  0.23232  0.92416  0.53164  1.0000 -0.1318274996
C   C156      1.0  0.53164  0.31188  0.23232  1.0000 -0.1318274996
C   C157      1.0  0.07584  0.68812  0.76768  1.0000 -0.1318274996
C   C158      1.0  0.68812  0.07584  0.46836  1.0000 -0.1318274996
C   C159      1.0  0.46836  0.76768  0.68812  1.0000 -0.1318274996
C   C160      1.0  0.76768  0.46836  0.07584  1.0000 -0.1318274996
C   C161      1.0  0.46836  0.07584  0.76768  1.0000 -0.1318274996
C   C162      1.0  0.76768  0.68812  0.46836  1.0000 -0.1318274996
C   C163      1.0  0.07584  0.46836  0.68812  1.0000 -0.1318274996
C   C164      1.0  0.68812  0.76768  0.07584  1.0000 -0.1318274996
C   C165      1.0  0.68812  0.46836  0.76768  1.0000 -0.1318274996
C   C166      1.0  0.07584  0.76768  0.46836  1.0000 -0.1318274996
C   C167      1.0  0.76768  0.07584  0.68812  1.0000 -0.1318274996
C   C168      1.0  0.46836  0.68812  0.07584  1.0000 -0.1318274996
C   C169      1.0  0.05082  0.74154  0.46610  1.0000 0.1168863557
C   C170      1.0  0.74154  0.05082  0.74154  1.0000 0.1168863557
C   C171      1.0  0.46610  0.74154  0.05082  1.0000 0.1168863557
C   C172      1.0  0.74154  0.46610  0.74154  1.0000 0.1168863557
C   C173      1.0  0.46610  0.05082  0.74154  1.0000 0.1168863557
C   C174      1.0  0.74154  0.74154  0.05082  1.0000 0.1168863557
C   C175      1.0  0.05082  0.46610  0.74154  1.0000 0.1168863557
C   C176      1.0  0.74154  0.74154  0.46610  1.0000 0.1168863557
C   C177      1.0  0.74154  0.46610  0.05082  1.0000 0.1168863557
C   C178      1.0  0.05082  0.74154  0.74154  1.0000 0.1168863557
C   C179      1.0  0.74154  0.05082  0.46610  1.0000 0.1168863557
C   C180      1.0  0.46610  0.74154  0.74154  1.0000 0.1168863557
C   C181      1.0  0.94918  0.25846  0.25846  1.0000 0.1168863557
C   C182      1.0  0.25846  0.94918  0.53390  1.0000 0.1168863557
C   C183      1.0  0.53390  0.25846  0.25846  1.0000 0.1168863557
C   C184      1.0  0.25846  0.53390  0.94918  1.0000 0.1168863557
C   C185      1.0  0.53390  0.94918  0.25846  1.0000 0.1168863557
C   C186      1.0  0.25846  0.25846  0.53390  1.0000 0.1168863557
C   C187      1.0  0.94918  0.53390  0.25846  1.0000 0.1168863557
C   C188      1.0  0.25846  0.25846  0.94918  1.0000 0.1168863557
C   C189      1.0  0.25846  0.53390  0.25846  1.0000 0.1168863557
C   C190      1.0  0.94918  0.25846  0.53390  1.0000 0.1168863557
C   C191      1.0  0.25846  0.94918  0.25846  1.0000 0.1168863557
C   C192      1.0  0.53390  0.25846  0.94918  1.0000 0.1168863557
C   C193      1.0  0.00050  0.77210  0.45530  1.0000 -0.0879034733
C   C194      1.0  0.77210  0.00050  0.77210  1.0000 -0.0879034733
C   C195      1.0  0.45530  0.77210  0.00050  1.0000 -0.0879034733
C   C196      1.0  0.77210  0.45530  0.77210  1.0000 -0.0879034733
C   C197      1.0  0.45530  0.00050  0.77210  1.0000 -0.0879034733
C   C198      1.0  0.77210  0.77210  0.00050  1.0000 -0.0879034733
C   C199      1.0  0.00050  0.45530  0.77210  1.0000 -0.0879034733
C   C200      1.0  0.77210  0.77210  0.45530  1.0000 -0.0879034733
C   C201      1.0  0.77210  0.45530  0.00050  1.0000 -0.0879034733
C   C202      1.0  0.00050  0.77210  0.77210  1.0000 -0.0879034733
C   C203      1.0  0.77210  0.00050  0.45530  1.0000 -0.0879034733
C   C204      1.0  0.45530  0.77210  0.77210  1.0000 -0.0879034733
C   C205      1.0  0.99950  0.22790  0.22790  1.0000 -0.0879034733
C   C206      1.0  0.22790  0.99950  0.54470  1.0000 -0.0879034733
C   C207      1.0  0.54470  0.22790  0.22790  1.0000 -0.0879034733
C   C208      1.0  0.22790  0.54470  0.99950  1.0000 -0.0879034733
C   C209      1.0  0.54470  0.99950  0.22790  1.0000 -0.0879034733
C   C210      1.0  0.22790  0.22790  0.54470  1.0000 -0.0879034733
C   C211      1.0  0.99950  0.54470  0.22790  1.0000 -0.0879034733
C   C212      1.0  0.22790  0.22790  0.99950  1.0000 -0.0879034733
C   C213      1.0  0.22790  0.54470  0.22790  1.0000 -0.0879034733
C   C214      1.0  0.99950  0.22790  0.54470  1.0000 -0.0879034733
C   C215      1.0  0.22790  0.99950  0.22790  1.0000 -0.0879034733
C   C216      1.0  0.54470  0.22790  0.99950  1.0000 -0.0879034733
C   C217      1.0  0.95870  0.79770  0.44590  1.0000 -0.10029118
C   C218      1.0  0.79770  0.95870  0.79770  1.0000 -0.10029118
C   C219      1.0  0.44590  0.79770  0.95870  1.0000 -0.10029118
C   C220      1.0  0.79770  0.44590  0.79770  1.0000 -0.10029118
C   C221      1.0  0.44590  0.95870  0.79770  1.0000 -0.10029118
C   C222      1.0  0.79770  0.79770  0.95870  1.0000 -0.10029118
C   C223      1.0  0.95870  0.44590  0.79770  1.0000 -0.10029118
C   C224      1.0  0.79770  0.79770  0.44590  1.0000 -0.10029118
C   C225      1.0  0.79770  0.44590  0.95870  1.0000 -0.10029118
C   C226      1.0  0.95870  0.79770  0.79770  1.0000 -0.10029118
C   C227      1.0  0.79770  0.95870  0.44590  1.0000 -0.10029118
C   C228      1.0  0.44590  0.79770  0.79770  1.0000 -0.10029118
C   C229      1.0  0.04130  0.20230  0.20230  1.0000 -0.10029118
C   C230      1.0  0.20230  0.04130  0.55410  1.0000 -0.10029118
C   C231      1.0  0.55410  0.20230  0.20230  1.0000 -0.10029118
C   C232      1.0  0.20230  0.55410  0.04130  1.0000 -0.10029118
C   C233      1.0  0.55410  0.04130  0.20230  1.0000 -0.10029118
C   C234      1.0  0.20230  0.20230  0.55410  1.0000 -0.10029118
C   C235      1.0  0.04130  0.55410  0.20230  1.0000 -0.10029118
C   C236      1.0  0.20230  0.20230  0.04130  1.0000 -0.10029118
C   C237      1.0  0.20230  0.55410  0.20230  1.0000 -0.10029118
C   C238      1.0  0.04130  0.20230  0.55410  1.0000 -0.10029118
C   C239      1.0  0.20230  0.04130  0.20230  1.0000 -0.10029118
C   C240      1.0  0.55410  0.20230  0.04130  1.0000 -0.10029118
C   C241      1.0  0.90380  0.82460  0.44700  1.0000 0.1477110601
C   C242      1.0  0.82460  0.90380  0.82460  1.0000 0.1477110601
C   C243      1.0  0.44700  0.82460  0.90380  1.0000 0.1477110601
C   C244      1.0  0.82460  0.44700  0.82460  1.0000 0.1477110601
C   C245      1.0  0.44700  0.90380  0.82460  1.0000 0.1477110601
C   C246      1.0  0.82460  0.82460  0.90380  1.0000 0.1477110601
C   C247      1.0  0.90380  0.44700  0.82460  1.0000 0.1477110601
C   C248      1.0  0.82460  0.82460  0.44700  1.0000 0.1477110601
C   C249      1.0  0.82460  0.44700  0.90380  1.0000 0.1477110601
C   C250      1.0  0.90380  0.82460  0.82460  1.0000 0.1477110601
C   C251      1.0  0.82460  0.90380  0.44700  1.0000 0.1477110601
C   C252      1.0  0.44700  0.82460  0.82460  1.0000 0.1477110601
C   C253      1.0  0.09620  0.17540  0.17540  1.0000 0.1477110601
C   C254      1.0  0.17540  0.09620  0.55300  1.0000 0.1477110601
C   C255      1.0  0.55300  0.17540  0.17540  1.0000 0.1477110601
C   C256      1.0  0.17540  0.55300  0.09620  1.0000 0.1477110601
C   C257      1.0  0.55300  0.09620  0.17540  1.0000 0.1477110601
C   C258      1.0  0.17540  0.17540  0.55300  1.0000 0.1477110601
C   C259      1.0  0.09620  0.55300  0.17540  1.0000 0.1477110601
C   C260      1.0  0.17540  0.17540  0.09620  1.0000 0.1477110601
C   C261      1.0  0.17540  0.55300  0.17540  1.0000 0.1477110601
C   C262      1.0  0.09620  0.17540  0.55300  1.0000 0.1477110601
C   C263      1.0  0.17540  0.09620  0.17540  1.0000 0.1477110601
C   C264      1.0  0.55300  0.17540  0.09620  1.0000 0.1477110601
C   C265      1.0  0.87680  0.79920  0.44720  1.0000 -0.2037501877
C   C266      1.0  0.79920  0.87680  0.87680  1.0000 -0.2037501877
C   C267      1.0  0.44720  0.87680  0.87680  1.0000 -0.2037501877
C   C268      1.0  0.87680  0.44720  0.79920  1.0000 -0.2037501877
C   C269      1.0  0.44720  0.87680  0.79920  1.0000 -0.2037501877
C   C270      1.0  0.87680  0.79920  0.87680  1.0000 -0.2037501877
C   C271      1.0  0.87680  0.44720  0.87680  1.0000 -0.2037501877
C   C272      1.0  0.79920  0.87680  0.44720  1.0000 -0.206542362
C   C273      1.0  0.79920  0.44720  0.87680  1.0000 -0.2037501877
C   C274      1.0  0.87680  0.87680  0.79920  1.0000 -0.2037501877
C   C275      1.0  0.87680  0.87680  0.44720  1.0000 -0.2037501877
C   C276      1.0  0.44720  0.79920  0.87680  1.0000 -0.206542362
C   C277      1.0  0.12320  0.20080  0.12320  1.0000 -0.206542362
C   C278      1.0  0.20080  0.12320  0.55280  1.0000 -0.206542362
C   C279      1.0  0.55280  0.12320  0.20080  1.0000 -0.206542362
C   C280      1.0  0.12320  0.55280  0.12320  1.0000 -0.206542362
C   C281      1.0  0.55280  0.12320  0.12320  1.0000 -0.206542362
C   C282      1.0  0.12320  0.20080  0.55280  1.0000 -0.206542362
C   C283      1.0  0.12320  0.55280  0.20080  1.0000 -0.206542362
C   C284      1.0  0.20080  0.12320  0.12320  1.0000 -0.206542362
C   C285      1.0  0.20080  0.55280  0.12320  1.0000 -0.206542362
C   C286      1.0  0.12320  0.12320  0.55280  1.0000 -0.206542362
C   C287      1.0  0.12320  0.12320  0.20080  1.0000 -0.206542362
C   C288      1.0  0.55280  0.20080  0.12320  1.0000 -0.206542362
O   O1        1.0  0.19713  0.57835  0.48681  1.0000 -0.532445349
O   O2        1.0  0.57835  0.19713  0.73771  1.0000 -0.532445349
O   O3        1.0  0.48681  0.73771  0.19713  1.0000 -0.532445349
O   O4        1.0  0.73771  0.48681  0.57835  1.0000 -0.532445349
O   O5        1.0  0.48681  0.19713  0.57835  1.0000 -0.532445349
O   O6        1.0  0.73771  0.57835  0.19713  1.0000 -0.532445349
O   O7        1.0  0.19713  0.48681  0.73771  1.0000 -0.532445349
O   O8        1.0  0.57835  0.73771  0.48681  1.0000 -0.532445349
O   O9        1.0  0.57835  0.48681  0.19713  1.0000 -0.532445349
O   O10       1.0  0.19713  0.73771  0.57835  1.0000 -0.532445349
O   O11       1.0  0.73771  0.19713  0.48681  1.0000 -0.532445349
O   O12       1.0  0.48681  0.57835  0.73771  1.0000 -0.532445349
O   O13       1.0  0.80287  0.42165  0.26229  1.0000 -0.532445349
O   O14       1.0  0.42165  0.80287  0.51319  1.0000 -0.532445349
O   O15       1.0  0.51319  0.26229  0.42165  1.0000 -0.532445349
O   O16       1.0  0.26229  0.51319  0.80287  1.0000 -0.532445349
O   O17       1.0  0.51319  0.80287  0.26229  1.0000 -0.532445349
O   O18       1.0  0.26229  0.42165  0.51319  1.0000 -0.532445349
O   O19       1.0  0.80287  0.51319  0.42165  1.0000 -0.532445349
O   O20       1.0  0.42165  0.26229  0.80287  1.0000 -0.532445349
O   O21       1.0  0.42165  0.51319  0.26229  1.0000 -0.532445349
O   O22       1.0  0.80287  0.26229  0.51319  1.0000 -0.532445349
O   O23       1.0  0.26229  0.80287  0.42165  1.0000 -0.532445349
O   O24       1.0  0.51319  0.42165  0.80287  1.0000 -0.532445349
O   O25       1.0  0.80287  0.42165  0.51319  1.0000 -0.532445349
O   O26       1.0  0.42165  0.80287  0.26229  1.0000 -0.532445349
O   O27       1.0  0.51319  0.26229  0.80287  1.0000 -0.532445349
O   O28       1.0  0.26229  0.51319  0.42165  1.0000 -0.532445349
O   O29       1.0  0.51319  0.80287  0.42165  1.0000 -0.532445349
O   O30       1.0  0.26229  0.42165  0.80287  1.0000 -0.532445349
O   O31       1.0  0.80287  0.51319  0.26229  1.0000 -0.532445349
O   O32       1.0  0.42165  0.26229  0.51319  1.0000 -0.532445349
O   O33       1.0  0.42165  0.51319  0.80287  1.0000 -0.532445349
O   O34       1.0  0.80287  0.26229  0.42165  1.0000 -0.532445349
O   O35       1.0  0.26229  0.80287  0.51319  1.0000 -0.532445349
O   O36       1.0  0.51319  0.42165  0.26229  1.0000 -0.532445349
O   O37       1.0  0.19713  0.57835  0.73771  1.0000 -0.532445349
O   O38       1.0  0.57835  0.19713  0.48681  1.0000 -0.532445349
O   O39       1.0  0.48681  0.73771  0.57835  1.0000 -0.532445349
O   O40       1.0  0.73771  0.48681  0.19713  1.0000 -0.532445349
O   O41       1.0  0.48681  0.19713  0.73771  1.0000 -0.532445349
O   O42       1.0  0.73771  0.57835  0.48681  1.0000 -0.532445349
O   O43       1.0  0.19713  0.48681  0.57835  1.0000 -0.532445349
O   O44       1.0  0.57835  0.73771  0.19713  1.0000 -0.532445349
O   O45       1.0  0.57835  0.48681  0.73771  1.0000 -0.532445349
O   O46       1.0  0.19713  0.73771  0.48681  1.0000 -0.532445349
O   O47       1.0  0.73771  0.19713  0.57835  1.0000 -0.532445349
O   O48       1.0  0.48681  0.57835  0.19713  1.0000 -0.532445349
O   O49       1.0  0.12345  0.57813  0.48717  1.0000 -0.532445349
O   O50       1.0  0.57813  0.12345  0.81125  1.0000 -0.532445349
O   O51       1.0  0.48717  0.81125  0.12345  1.0000 -0.532445349
O   O52       1.0  0.81125  0.48717  0.57813  1.0000 -0.532445349
O   O53       1.0  0.48717  0.12345  0.57813  1.0000 -0.532445349
O   O54       1.0  0.81125  0.57813  0.12345  1.0000 -0.532445349
O   O55       1.0  0.12345  0.48717  0.81125  1.0000 -0.532445349
O   O56       1.0  0.57813  0.81125  0.48717  1.0000 -0.532445349
O   O57       1.0  0.57813  0.48717  0.12345  1.0000 -0.532445349
O   O58       1.0  0.12345  0.81125  0.57813  1.0000 -0.532445349
O   O59       1.0  0.81125  0.12345  0.48717  1.0000 -0.532445349
O   O60       1.0  0.48717  0.57813  0.81125  1.0000 -0.532445349
O   O61       1.0  0.87655  0.42187  0.18875  1.0000 -0.532445349
O   O62       1.0  0.42187  0.87655  0.51283  1.0000 -0.532445349
O   O63       1.0  0.51283  0.18875  0.42187  1.0000 -0.532445349
O   O64       1.0  0.18875  0.51283  0.87655  1.0000 -0.532445349
O   O65       1.0  0.51283  0.87655  0.18875  1.0000 -0.532445349
O   O66       1.0  0.18875  0.42187  0.51283  1.0000 -0.532445349
O   O67       1.0  0.87655  0.51283  0.42187  1.0000 -0.532445349
O   O68       1.0  0.42187  0.18875  0.87655  1.0000 -0.532445349
O   O69       1.0  0.42187  0.51283  0.18875  1.0000 -0.532445349
O   O70       1.0  0.87655  0.18875  0.51283  1.0000 -0.532445349
O   O71       1.0  0.18875  0.87655  0.42187  1.0000 -0.532445349
O   O72       1.0  0.51283  0.42187  0.87655  1.0000 -0.532445349
O   O73       1.0  0.87655  0.42187  0.51283  1.0000 -0.532445349
O   O74       1.0  0.42187  0.87655  0.18875  1.0000 -0.532445349
O   O75       1.0  0.51283  0.18875  0.87655  1.0000 -0.532445349
O   O76       1.0  0.18875  0.51283  0.42187  1.0000 -0.532445349
O   O77       1.0  0.51283  0.87655  0.42187  1.0000 -0.532445349
O   O78       1.0  0.18875  0.42187  0.87655  1.0000 -0.532445349
O   O79       1.0  0.87655  0.51283  0.18875  1.0000 -0.532445349
O   O80       1.0  0.42187  0.18875  0.51283  1.0000 -0.532445349
O   O81       1.0  0.42187  0.51283  0.87655  1.0000 -0.532445349
O   O82       1.0  0.87655  0.18875  0.42187  1.0000 -0.532445349
O   O83       1.0  0.18875  0.87655  0.51283  1.0000 -0.532445349
O   O84       1.0  0.51283  0.42187  0.18875  1.0000 -0.532445349
O   O85       1.0  0.12345  0.57813  0.81125  1.0000 -0.532445349
O   O86       1.0  0.57813  0.12345  0.48717  1.0000 -0.532445349
O   O87       1.0  0.48717  0.81125  0.57813  1.0000 -0.532445349
O   O88       1.0  0.81125  0.48717  0.12345  1.0000 -0.532445349
O   O89       1.0  0.48717  0.12345  0.81125  1.0000 -0.532445349
O   O90       1.0  0.81125  0.57813  0.48717  1.0000 -0.532445349
O   O91       1.0  0.12345  0.48717  0.57813  1.0000 -0.532445349
O   O92       1.0  0.57813  0.81125  0.12345  1.0000 -0.532445349
O   O93       1.0  0.57813  0.48717  0.81125  1.0000 -0.532445349
O   O94       1.0  0.12345  0.81125  0.48717  1.0000 -0.532445349
O   O95       1.0  0.81125  0.12345  0.57813  1.0000 -0.532445349
O   O96       1.0  0.48717  0.57813  0.12345  1.0000 -0.532445349
