# DDEC6 charges by PACMAN v1.1 (https://github.com/mtap-research/PACMAN-charge/)
data_2009[Cu][hex]3[ASR]1
_chemical_formula_sum              "Cu24 H144 C128 N192 O16"
_cell_length_a       17.4259
_cell_length_b       21.5209
_cell_length_c       26.8326
_cell_angle_alpha    90
_cell_angle_beta     90
_cell_angle_gamma    90

_symmetry_space_group_name_H-M    "P 1"
_symmetry_Int_Tables_number       1

loop_
  _symmetry_equiv_pos_as_xyz
  'x, y, z'

loop_
  _atom_site_type_symbol
  _atom_site_label
  _atom_site_symmetry_multiplicity
  _atom_site_fract_x
  _atom_site_fract_y
  _atom_site_fract_z
  _atom_site_occupancy
  _atom_site_charge
Cu  Cu1       1.0  0.27208  0.15523  0.21827  1.0000 0.5580347002
Cu  Cu2       1.0  0.22792  0.65522  0.28173  1.0000 0.5580347002
Cu  Cu3       1.0  0.72792  0.34477  0.21827  1.0000 0.5580347002
Cu  Cu4       1.0  0.77208  0.84478  0.28173  1.0000 0.5580347002
Cu  Cu5       1.0  0.72792  0.84478  0.78173  1.0000 0.5580347002
Cu  Cu6       1.0  0.77208  0.34477  0.71827  1.0000 0.5580347002
Cu  Cu7       1.0  0.27208  0.65522  0.78173  1.0000 0.5580347002
Cu  Cu8       1.0  0.22792  0.15523  0.71827  1.0000 0.5580347002
Cu  Cu9       1.0  0.24998  0.25249  0.12510  1.0000 0.7405727252
Cu  Cu10      1.0  0.25002  0.75248  0.37490  1.0000 0.7405727252
Cu  Cu11      1.0  0.75002  0.24751  0.12510  1.0000 0.7405727252
Cu  Cu12      1.0  0.74998  0.74751  0.37490  1.0000 0.7405727252
Cu  Cu13      1.0  0.75002  0.74751  0.87490  1.0000 0.7405727252
Cu  Cu14      1.0  0.74998  0.24751  0.62510  1.0000 0.7405727252
Cu  Cu15      1.0  0.24998  0.75248  0.87490  1.0000 0.7405727252
Cu  Cu16      1.0  0.25002  0.25249  0.62510  1.0000 0.7405727252
Cu  Cu17      1.0  0.22656  0.85140  0.96688  1.0000 0.568175
Cu  Cu18      1.0  0.27344  0.35141  0.53312  1.0000 0.568175
Cu  Cu19      1.0  0.77344  0.64860  0.96688  1.0000 0.568175
Cu  Cu20      1.0  0.72656  0.14860  0.53312  1.0000 0.568175
Cu  Cu21      1.0  0.77344  0.14860  0.03312  1.0000 0.568175
Cu  Cu22      1.0  0.72656  0.64860  0.46688  1.0000 0.568175
Cu  Cu23      1.0  0.22656  0.35141  0.03312  1.0000 0.568175
Cu  Cu24      1.0  0.27344  0.85140  0.46688  1.0000 0.568175
H   H1        1.0  0.32950  0.24699  0.19460  1.0000 0.3472784523
H   H2        1.0  0.17050  0.74699  0.30540  1.0000 0.3472784523
H   H3        1.0  0.67050  0.25300  0.19460  1.0000 0.3472784523
H   H4        1.0  0.82950  0.75300  0.30540  1.0000 0.3472784523
H   H5        1.0  0.67050  0.75300  0.80540  1.0000 0.3472784523
H   H6        1.0  0.82950  0.25300  0.69460  1.0000 0.3472784523
H   H7        1.0  0.32950  0.74699  0.80540  1.0000 0.3472784523
H   H8        1.0  0.17050  0.24699  0.69460  1.0000 0.3472784523
H   H9        1.0  0.17260  0.25739  0.05480  1.0000 0.3472784523
H   H10       1.0  0.32740  0.75740  0.44520  1.0000 0.3472784523
H   H11       1.0  0.82740  0.24260  0.05480  1.0000 0.3472784523
H   H12       1.0  0.67260  0.74260  0.44520  1.0000 0.3472784523
H   H13       1.0  0.82740  0.74260  0.94520  1.0000 0.3472784523
H   H14       1.0  0.67260  0.24260  0.55480  1.0000 0.3472784523
H   H15       1.0  0.17260  0.75740  0.94520  1.0000 0.3472784523
H   H16       1.0  0.32740  0.25739  0.55480  1.0000 0.3472784523
H   H17       1.0  0.28130  0.01699  0.16250  1.0000 0.1200881919
H   H18       1.0  0.21870  0.51699  0.33750  1.0000 0.1200881919
H   H19       1.0  0.71870  0.48301  0.16250  1.0000 0.1200881919
H   H20       1.0  0.78130  0.98300  0.33750  1.0000 0.1200881919
H   H21       1.0  0.71870  0.98300  0.83750  1.0000 0.1200881919
H   H22       1.0  0.78130  0.48301  0.66250  1.0000 0.1200881919
H   H23       1.0  0.28130  0.51699  0.83750  1.0000 0.1200881919
H   H24       1.0  0.21870  0.01699  0.66250  1.0000 0.1200881919
H   H25       1.0  0.23830  0.11429  0.04000  1.0000 0.1200881919
H   H26       1.0  0.26170  0.61430  0.46000  1.0000 0.1200881919
H   H27       1.0  0.76170  0.38570  0.04000  1.0000 0.1200881919
H   H28       1.0  0.73830  0.88570  0.46000  1.0000 0.1200881919
H   H29       1.0  0.76170  0.88570  0.96000  1.0000 0.1200881919
H   H30       1.0  0.73830  0.38570  0.54000  1.0000 0.1200881919
H   H31       1.0  0.23830  0.61430  0.96000  1.0000 0.1200881919
H   H32       1.0  0.26170  0.11429  0.54000  1.0000 0.1200881919
H   H33       1.0  0.39660  0.98709  0.06420  1.0000 0.1200881919
H   H34       1.0  0.10340  0.48709  0.43580  1.0000 0.1200881919
H   H35       1.0  0.60340  0.51291  0.06420  1.0000 0.1200881919
H   H36       1.0  0.89660  0.01290  0.43580  1.0000 0.1200881919
H   H37       1.0  0.60340  0.01290  0.93580  1.0000 0.1200881919
H   H38       1.0  0.89660  0.51291  0.56420  1.0000 0.1200881919
H   H39       1.0  0.39660  0.48709  0.93580  1.0000 0.1200881919
H   H40       1.0  0.10340  0.98709  0.56420  1.0000 0.1200881919
H   H41       1.0  0.17590  0.96810  0.03510  1.0000 0.1200881919
H   H42       1.0  0.32410  0.46809  0.46490  1.0000 0.1200881919
H   H43       1.0  0.82410  0.53190  0.03510  1.0000 0.1200881919
H   H44       1.0  0.67590  0.03191  0.46490  1.0000 0.1200881919
H   H45       1.0  0.82410  0.03191  0.96490  1.0000 0.1200881919
H   H46       1.0  0.67590  0.53190  0.53510  1.0000 0.1200881919
H   H47       1.0  0.17590  0.46809  0.96490  1.0000 0.1200881919
H   H48       1.0  0.32410  0.96810  0.53510  1.0000 0.1200881919
H   H49       1.0  0.05860  0.17680  0.24720  1.0000 0.1200881919
H   H50       1.0  0.44140  0.67680  0.25280  1.0000 0.1200881919
H   H51       1.0  0.94140  0.32321  0.24720  1.0000 0.1200881919
H   H52       1.0  0.55860  0.82321  0.25280  1.0000 0.1200881919
H   H53       1.0  0.94140  0.82321  0.75280  1.0000 0.1200881919
H   H54       1.0  0.55860  0.32321  0.74720  1.0000 0.1200881919
H   H55       1.0  0.05860  0.67680  0.75280  1.0000 0.1200881919
H   H56       1.0  0.44140  0.17680  0.74720  1.0000 0.1200881919
H   H57       1.0  0.07680  0.29960  0.13730  1.0000 0.1266223311
H   H58       1.0  0.42320  0.79959  0.36270  1.0000 0.1266223311
H   H59       1.0  0.92320  0.20040  0.13730  1.0000 0.1266223311
H   H60       1.0  0.57680  0.70041  0.36270  1.0000 0.1266223311
H   H61       1.0  0.92320  0.70041  0.86270  1.0000 0.1266223311
H   H62       1.0  0.57680  0.20040  0.63730  1.0000 0.1266223311
H   H63       1.0  0.07680  0.79959  0.86270  1.0000 0.1266223311
H   H64       1.0  0.42320  0.29960  0.63730  1.0000 0.1266223311
H   H65       1.0  0.41910  0.20039  0.11080  1.0000 0.1266223311
H   H66       1.0  0.08090  0.70039  0.38920  1.0000 0.1266223311
H   H67       1.0  0.58090  0.29961  0.11080  1.0000 0.1266223311
H   H68       1.0  0.91910  0.79961  0.38920  1.0000 0.1266223311
H   H69       1.0  0.58090  0.79961  0.88920  1.0000 0.1266223311
H   H70       1.0  0.91910  0.29961  0.61080  1.0000 0.1266223311
H   H71       1.0  0.41910  0.70039  0.88920  1.0000 0.1266223311
H   H72       1.0  0.08090  0.20039  0.61080  1.0000 0.1266223311
H   H73       1.0  0.44470  0.32620  0.00400  1.0000 0.1200881919
H   H74       1.0  0.05530  0.82620  0.49600  1.0000 0.1200881919
H   H75       1.0  0.55530  0.17380  0.00400  1.0000 0.1200881919
H   H76       1.0  0.94470  0.67380  0.49600  1.0000 0.1200881919
H   H77       1.0  0.55530  0.67380  0.99600  1.0000 0.1200881919
H   H78       1.0  0.94470  0.17380  0.50400  1.0000 0.1200881919
H   H79       1.0  0.44470  0.82620  0.99600  1.0000 0.1200881919
H   H80       1.0  0.05530  0.32620  0.50400  1.0000 0.1200881919
H   H81       1.0  0.21710  0.88909  0.28860  1.0000 0.1200881919
H   H82       1.0  0.28290  0.38910  0.21140  1.0000 0.1200881919
H   H83       1.0  0.78290  0.61091  0.28860  1.0000 0.1200881919
H   H84       1.0  0.71710  0.11091  0.21140  1.0000 0.1200881919
H   H85       1.0  0.78290  0.11091  0.71140  1.0000 0.1200881919
H   H86       1.0  0.71710  0.61091  0.78860  1.0000 0.1200881919
H   H87       1.0  0.21710  0.38910  0.71140  1.0000 0.1200881919
H   H88       1.0  0.28290  0.88909  0.78860  1.0000 0.1200881919
H   H89       1.0  0.24380  0.98979  0.41220  1.0000 0.1200881919
H   H90       1.0  0.25620  0.48979  0.08780  1.0000 0.1200881919
H   H91       1.0  0.75620  0.51021  0.41220  1.0000 0.1200881919
H   H92       1.0  0.74380  0.01021  0.08780  1.0000 0.1200881919
H   H93       1.0  0.75620  0.01021  0.58780  1.0000 0.1200881919
H   H94       1.0  0.74380  0.51021  0.91220  1.0000 0.1200881919
H   H95       1.0  0.24380  0.48979  0.58780  1.0000 0.1200881919
H   H96       1.0  0.25620  0.98979  0.91220  1.0000 0.1200881919
H   H97       1.0  0.31580  0.03029  0.27950  1.0000 0.1200881919
H   H98       1.0  0.18420  0.53029  0.22050  1.0000 0.1200881919
H   H99       1.0  0.68420  0.46970  0.27950  1.0000 0.1200881919
H   H100      1.0  0.81580  0.96970  0.22050  1.0000 0.1200881919
H   H101      1.0  0.68420  0.96970  0.72050  1.0000 0.1200881919
H   H102      1.0  0.81580  0.46970  0.77950  1.0000 0.1200881919
H   H103      1.0  0.31580  0.53029  0.72050  1.0000 0.1200881919
H   H104      1.0  0.18420  0.03029  0.77950  1.0000 0.1200881919
H   H105      1.0  0.10010  0.03250  0.32470  1.0000 0.1200881919
H   H106      1.0  0.39990  0.53250  0.17530  1.0000 0.1200881919
H   H107      1.0  0.89990  0.46751  0.32470  1.0000 0.1200881919
H   H108      1.0  0.60010  0.96750  0.17530  1.0000 0.1200881919
H   H109      1.0  0.89990  0.96750  0.67530  1.0000 0.1200881919
H   H110      1.0  0.60010  0.46751  0.82470  1.0000 0.1200881919
H   H111      1.0  0.10010  0.53250  0.67530  1.0000 0.1200881919
H   H112      1.0  0.39990  0.03250  0.82470  1.0000 0.1200881919
H   H113      1.0  0.25600  0.17080  0.34050  1.0000 0.1200881919
H   H114      1.0  0.24400  0.67080  0.15950  1.0000 0.1200881919
H   H115      1.0  0.74400  0.32921  0.34050  1.0000 0.1200881919
H   H116      1.0  0.75600  0.82920  0.15950  1.0000 0.1200881919
H   H117      1.0  0.74400  0.82920  0.65950  1.0000 0.1200881919
H   H118      1.0  0.75600  0.32921  0.84050  1.0000 0.1200881919
H   H119      1.0  0.25600  0.67080  0.65950  1.0000 0.1200881919
H   H120      1.0  0.24400  0.17080  0.84050  1.0000 0.1200881919
H   H121      1.0  0.37720  0.32530  0.32030  1.0000 0.1200881919
H   H122      1.0  0.12280  0.82530  0.17970  1.0000 0.1200881919
H   H123      1.0  0.62280  0.17470  0.32030  1.0000 0.1200881919
H   H124      1.0  0.87720  0.67470  0.17970  1.0000 0.1200881919
H   H125      1.0  0.62280  0.67470  0.67970  1.0000 0.1200881919
H   H126      1.0  0.87720  0.17470  0.82030  1.0000 0.1200881919
H   H127      1.0  0.37720  0.82530  0.67970  1.0000 0.1200881919
H   H128      1.0  0.12280  0.32530  0.82030  1.0000 0.1200881919
H   H129      1.0  0.25140  0.33589  0.41100  1.0000 0.1200881919
H   H130      1.0  0.24860  0.83590  0.08900  1.0000 0.1200881919
H   H131      1.0  0.74860  0.16411  0.41100  1.0000 0.1200881919
H   H132      1.0  0.75140  0.66410  0.08900  1.0000 0.1200881919
H   H133      1.0  0.74860  0.66410  0.58900  1.0000 0.1200881919
H   H134      1.0  0.75140  0.16411  0.91100  1.0000 0.1200881919
H   H135      1.0  0.25140  0.83590  0.58900  1.0000 0.1200881919
H   H136      1.0  0.24860  0.33589  0.91100  1.0000 0.1200881919
H   H137      1.0  0.39270  0.19329  0.42640  1.0000 0.1200881919
H   H138      1.0  0.10730  0.69329  0.07360  1.0000 0.1200881919
H   H139      1.0  0.60730  0.30671  0.42640  1.0000 0.1200881919
H   H140      1.0  0.89270  0.80671  0.07360  1.0000 0.1200881919
H   H141      1.0  0.60730  0.80671  0.57360  1.0000 0.1200881919
H   H142      1.0  0.89270  0.30671  0.92640  1.0000 0.1200881919
H   H143      1.0  0.39270  0.69329  0.57360  1.0000 0.1200881919
H   H144      1.0  0.10730  0.19329  0.92640  1.0000 0.1200881919
C   C1        1.0  0.26910  0.05010  0.14044  1.0000 -0.0197702881
C   C2        1.0  0.23090  0.55010  0.35956  1.0000 -0.0197702881
C   C3        1.0  0.73090  0.44989  0.14044  1.0000 -0.0197702881
C   C4        1.0  0.76910  0.94990  0.35956  1.0000 -0.0197702881
C   C5        1.0  0.73090  0.94990  0.85956  1.0000 -0.0197702881
C   C6        1.0  0.76910  0.44989  0.64044  1.0000 -0.0197702881
C   C7        1.0  0.26910  0.55010  0.85956  1.0000 -0.0197702881
C   C8        1.0  0.23090  0.05010  0.64044  1.0000 -0.0197702881
C   C9        1.0  0.24560  0.10342  0.07402  1.0000 -0.0023399991
C   C10       1.0  0.25440  0.60342  0.42598  1.0000 -0.0023399991
C   C11       1.0  0.75440  0.39658  0.07402  1.0000 -0.0023399991
C   C12       1.0  0.74560  0.89658  0.42598  1.0000 -0.0023399991
C   C13       1.0  0.75440  0.89658  0.92598  1.0000 -0.0023399991
C   C14       1.0  0.74560  0.39658  0.57402  1.0000 -0.0023399991
C   C15       1.0  0.24560  0.60342  0.92598  1.0000 0.0012610302
C   C16       1.0  0.25440  0.10342  0.57402  1.0000 -0.0023399991
C   C17       1.0  0.34980  0.97160  0.05103  1.0000 -0.0023399991
C   C18       1.0  0.15020  0.47159  0.44897  1.0000 -0.0023399991
C   C19       1.0  0.65020  0.52841  0.05103  1.0000 -0.0023399991
C   C20       1.0  0.84980  0.02840  0.44897  1.0000 -0.0023399991
C   C21       1.0  0.65020  0.02840  0.94897  1.0000 -0.0023399991
C   C22       1.0  0.84980  0.52841  0.55103  1.0000 -0.0023399991
C   C23       1.0  0.34980  0.47159  0.94897  1.0000 -0.0023399991
C   C24       1.0  0.15020  0.97160  0.55103  1.0000 -0.0023399991
C   C25       1.0  0.22970  0.96144  0.03523  1.0000 -0.039320138
C   C26       1.0  0.27030  0.46144  0.46477  1.0000 -0.039320138
C   C27       1.0  0.77030  0.53856  0.03523  1.0000 -0.039320138
C   C28       1.0  0.72970  0.03855  0.46477  1.0000 -0.039320138
C   C29       1.0  0.77030  0.03855  0.96477  1.0000 -0.039320138
C   C30       1.0  0.72970  0.53856  0.53523  1.0000 -0.039320138
C   C31       1.0  0.22970  0.46144  0.96477  1.0000 -0.039320138
C   C32       1.0  0.27030  0.96144  0.53523  1.0000 -0.039320138
C   C33       1.0  0.07922  0.20250  0.22171  1.0000 0.0204770072
C   C34       1.0  0.42078  0.70249  0.27829  1.0000 0.0204770072
C   C35       1.0  0.92078  0.29751  0.22171  1.0000 0.0204770072
C   C36       1.0  0.57922  0.79750  0.27829  1.0000 0.0204770072
C   C37       1.0  0.92078  0.79750  0.77829  1.0000 0.0204770072
C   C38       1.0  0.57922  0.29751  0.72171  1.0000 0.0204770072
C   C39       1.0  0.07922  0.70249  0.77829  1.0000 0.0204770072
C   C40       1.0  0.42078  0.20250  0.72171  1.0000 0.0204770072
C   C41       1.0  0.08900  0.26926  0.16183  1.0000 0.0322384148
C   C42       1.0  0.41100  0.76926  0.33817  1.0000 0.0322384148
C   C43       1.0  0.91100  0.23075  0.16183  1.0000 0.0322384148
C   C44       1.0  0.58900  0.73074  0.33817  1.0000 0.0322384148
C   C45       1.0  0.91100  0.73074  0.83817  1.0000 0.0322384148
C   C46       1.0  0.58900  0.23075  0.66183  1.0000 0.0322384148
C   C47       1.0  0.08900  0.76926  0.83817  1.0000 0.0322384148
C   C48       1.0  0.41100  0.26926  0.66183  1.0000 0.0322384148
C   C49       1.0  0.40895  0.23187  0.08683  1.0000 0.0204770072
C   C50       1.0  0.09105  0.73188  0.41317  1.0000 0.0204770072
C   C51       1.0  0.59105  0.26813  0.08683  1.0000 0.0204770072
C   C52       1.0  0.90895  0.76812  0.41317  1.0000 0.0204770072
C   C53       1.0  0.59105  0.76812  0.91317  1.0000 0.0204770072
C   C54       1.0  0.90895  0.26813  0.58683  1.0000 0.0204770072
C   C55       1.0  0.40895  0.73188  0.91317  1.0000 0.0204770072
C   C56       1.0  0.09105  0.23187  0.58683  1.0000 0.0204770072
C   C57       1.0  0.42280  0.30011  0.02870  1.0000 0.0204770072
C   C58       1.0  0.07720  0.80010  0.47130  1.0000 0.0204770072
C   C59       1.0  0.57720  0.19990  0.02870  1.0000 0.0204770072
C   C60       1.0  0.92280  0.69990  0.47130  1.0000 0.0204770072
C   C61       1.0  0.57720  0.69990  0.97130  1.0000 0.0204770072
C   C62       1.0  0.92280  0.19990  0.52870  1.0000 0.0204770072
C   C63       1.0  0.42280  0.80010  0.97130  1.0000 0.0204770072
C   C64       1.0  0.07720  0.30011  0.52870  1.0000 0.0204770072
C   C65       1.0  0.22520  0.90047  0.32243  1.0000 -0.0114496533
C   C66       1.0  0.27480  0.40048  0.17757  1.0000 -0.0114496533
C   C67       1.0  0.77480  0.59952  0.32243  1.0000 -0.0114496533
C   C68       1.0  0.72520  0.09953  0.17757  1.0000 -0.0114496533
C   C69       1.0  0.77480  0.09953  0.67757  1.0000 -0.0114496533
C   C70       1.0  0.72520  0.59952  0.82243  1.0000 -0.0114496533
C   C71       1.0  0.22520  0.40048  0.67757  1.0000 -0.0114496533
C   C72       1.0  0.27480  0.90047  0.82243  1.0000 -0.0114496533
C   C73       1.0  0.24010  0.95564  0.38997  1.0000 -0.0197702881
C   C74       1.0  0.25990  0.45564  0.11003  1.0000 -0.0197702881
C   C75       1.0  0.75990  0.54436  0.38997  1.0000 -0.0197702881
C   C76       1.0  0.74010  0.04435  0.11003  1.0000 -0.0197702881
C   C77       1.0  0.75990  0.04435  0.61003  1.0000 -0.0197702881
C   C78       1.0  0.74010  0.54436  0.88997  1.0000 -0.0197702881
C   C79       1.0  0.24010  0.45564  0.61003  1.0000 -0.0197702881
C   C80       1.0  0.25990  0.95564  0.88997  1.0000 -0.0114496533
C   C81       1.0  0.26360  0.04174  0.28385  1.0000 -0.039320138
C   C82       1.0  0.23640  0.54175  0.21615  1.0000 -0.039320138
C   C83       1.0  0.73640  0.45825  0.28385  1.0000 -0.039320138
C   C84       1.0  0.76360  0.95825  0.21615  1.0000 -0.039320138
C   C85       1.0  0.73640  0.95825  0.71615  1.0000 -0.039320138
C   C86       1.0  0.76360  0.45825  0.78385  1.0000 -0.039320138
C   C87       1.0  0.26360  0.54175  0.71615  1.0000 -0.039320138
C   C88       1.0  0.23640  0.04174  0.78385  1.0000 -0.039320138
C   C89       1.0  0.14660  0.04342  0.30846  1.0000 -0.0114496533
C   C90       1.0  0.35340  0.54341  0.19154  1.0000 -0.0114496533
C   C91       1.0  0.85340  0.45659  0.30846  1.0000 -0.0114496533
C   C92       1.0  0.64660  0.95658  0.19154  1.0000 -0.0114496533
C   C93       1.0  0.85340  0.95658  0.69154  1.0000 -0.0114496533
C   C94       1.0  0.64660  0.45659  0.80846  1.0000 -0.0114496533
C   C95       1.0  0.14660  0.54341  0.69154  1.0000 -0.0114496533
C   C96       1.0  0.35340  0.04342  0.80846  1.0000 -0.0114496533
C   C97       1.0  0.28510  0.20303  0.32535  1.0000 -0.0316346116
C   C98       1.0  0.21490  0.70303  0.17465  1.0000 -0.0316346116
C   C99       1.0  0.71490  0.29696  0.32535  1.0000 -0.0316346116
C   C100      1.0  0.78510  0.79697  0.17465  1.0000 -0.0316346116
C   C101      1.0  0.71490  0.79697  0.67465  1.0000 -0.0316346116
C   C102      1.0  0.78510  0.29696  0.82535  1.0000 -0.0316346116
C   C103      1.0  0.28510  0.70303  0.67465  1.0000 -0.0316346116
C   C104      1.0  0.21490  0.20303  0.82535  1.0000 -0.0316346116
C   C105      1.0  0.35050  0.28750  0.31431  1.0000 -0.0316346116
C   C106      1.0  0.14950  0.78749  0.18569  1.0000 -0.0316346116
C   C107      1.0  0.64950  0.21250  0.31431  1.0000 -0.0316346116
C   C108      1.0  0.85050  0.71251  0.18569  1.0000 -0.0316346116
C   C109      1.0  0.64950  0.71251  0.68569  1.0000 -0.039320138
C   C110      1.0  0.85050  0.21250  0.81431  1.0000 -0.0316346116
C   C111      1.0  0.35050  0.78749  0.68569  1.0000 -0.0316346116
C   C112      1.0  0.14950  0.28750  0.81431  1.0000 -0.0316346116
C   C113      1.0  0.28420  0.30539  0.42513  1.0000 -0.0114496533
C   C114      1.0  0.21580  0.80539  0.07487  1.0000 -0.0114496533
C   C115      1.0  0.71580  0.19461  0.42513  1.0000 -0.0114496533
C   C116      1.0  0.78420  0.69461  0.07487  1.0000 -0.0114496533
C   C117      1.0  0.71580  0.69461  0.57487  1.0000 -0.0114496533
C   C118      1.0  0.78420  0.19461  0.92513  1.0000 -0.0114496533
C   C119      1.0  0.28420  0.80539  0.57487  1.0000 -0.0114496533
C   C120      1.0  0.21580  0.30539  0.92513  1.0000 -0.0114496533
C   C121      1.0  0.36050  0.22759  0.43397  1.0000 -0.0114496533
C   C122      1.0  0.13950  0.72759  0.06603  1.0000 -0.0114496533
C   C123      1.0  0.63950  0.27241  0.43397  1.0000 -0.0114496533
C   C124      1.0  0.86050  0.77241  0.06603  1.0000 -0.0114496533
C   C125      1.0  0.63950  0.77241  0.56603  1.0000 -0.0114496533
C   C126      1.0  0.86050  0.27241  0.93397  1.0000 -0.0114496533
C   C127      1.0  0.36050  0.72759  0.56603  1.0000 -0.0114496533
C   C128      1.0  0.13950  0.22759  0.93397  1.0000 -0.0114496533
N   N1        1.0  0.25277  0.10681  0.15349  1.0000 -0.1777151914
N   N2        1.0  0.24723  0.60681  0.34651  1.0000 -0.1777151914
N   N3        1.0  0.74723  0.39319  0.15349  1.0000 -0.1777151914
N   N4        1.0  0.75277  0.89319  0.34651  1.0000 -0.1777151914
N   N5        1.0  0.74723  0.89319  0.84651  1.0000 -0.1777151914
N   N6        1.0  0.75277  0.39319  0.65349  1.0000 -0.1777151914
N   N7        1.0  0.25277  0.60681  0.84651  1.0000 -0.1777151914
N   N8        1.0  0.24723  0.10681  0.65349  1.0000 -0.1777151914
N   N9        1.0  0.23793  0.14061  0.11062  1.0000 -0.2017737258
N   N10       1.0  0.26207  0.64060  0.38938  1.0000 -0.2017737258
N   N11       1.0  0.76207  0.35940  0.11062  1.0000 -0.2017737258
N   N12       1.0  0.73793  0.85939  0.38938  1.0000 -0.2017737258
N   N13       1.0  0.76207  0.85939  0.88938  1.0000 -0.2017737258
N   N14       1.0  0.73793  0.35940  0.61062  1.0000 -0.2017737258
N   N15       1.0  0.23793  0.64060  0.88938  1.0000 -0.2017737258
N   N16       1.0  0.26207  0.14061  0.61062  1.0000 -0.2017737258
N   N17       1.0  0.26570  0.04628  0.09046  1.0000 0.0484715995
N   N18       1.0  0.23430  0.54629  0.40954  1.0000 0.0484715995
N   N19       1.0  0.73430  0.45371  0.09046  1.0000 0.0484715995
N   N20       1.0  0.76570  0.95371  0.40954  1.0000 0.0484715995
N   N21       1.0  0.73430  0.95371  0.90954  1.0000 0.0484715995
N   N22       1.0  0.76570  0.45371  0.59046  1.0000 0.0484715995
N   N23       1.0  0.26570  0.54629  0.90954  1.0000 0.0484715995
N   N24       1.0  0.23430  0.04628  0.59046  1.0000 0.0484715995
N   N25       1.0  0.34480  0.92478  0.01997  1.0000 -0.2179561119
N   N26       1.0  0.15520  0.42478  0.48003  1.0000 -0.2179561119
N   N27       1.0  0.65520  0.57522  0.01997  1.0000 -0.2179561119
N   N28       1.0  0.84480  0.07523  0.48003  1.0000 -0.2179561119
N   N29       1.0  0.65520  0.07523  0.98003  1.0000 -0.2179561119
N   N30       1.0  0.84480  0.57522  0.51997  1.0000 -0.2179561119
N   N31       1.0  0.34480  0.42478  0.98003  1.0000 -0.2179561119
N   N32       1.0  0.15520  0.92478  0.51997  1.0000 -0.2179561119
N   N33       1.0  0.26619  0.91970  0.01041  1.0000 -0.2125997788
N   N34       1.0  0.23381  0.41969  0.48959  1.0000 -0.2125997788
N   N35       1.0  0.73381  0.58030  0.01041  1.0000 -0.2125997788
N   N36       1.0  0.76619  0.08031  0.48959  1.0000 -0.2125997788
N   N37       1.0  0.73381  0.08031  0.98959  1.0000 -0.2125997788
N   N38       1.0  0.76619  0.58030  0.51041  1.0000 -0.2125997788
N   N39       1.0  0.26619  0.41969  0.98959  1.0000 -0.2125997788
N   N40       1.0  0.23381  0.91970  0.51041  1.0000 -0.2125997788
N   N41       1.0  0.28236  0.99425  0.06158  1.0000 0.0484715995
N   N42       1.0  0.21764  0.49424  0.43842  1.0000 0.0484715995
N   N43       1.0  0.71764  0.50575  0.06158  1.0000 0.0484715995
N   N44       1.0  0.78236  0.00575  0.43842  1.0000 0.0484715995
N   N45       1.0  0.71764  0.00575  0.93842  1.0000 0.0484715995
N   N46       1.0  0.78236  0.50575  0.56158  1.0000 0.0484715995
N   N47       1.0  0.28236  0.49424  0.93842  1.0000 0.0484715995
N   N48       1.0  0.21764  0.99425  0.56158  1.0000 0.0484715995
N   N49       1.0  0.14919  0.20295  0.20780  1.0000 -0.2017737258
N   N50       1.0  0.35081  0.70295  0.29220  1.0000 -0.2125997788
N   N51       1.0  0.85081  0.29705  0.20780  1.0000 -0.2017737258
N   N52       1.0  0.64919  0.79705  0.29220  1.0000 -0.2017737258
N   N53       1.0  0.85081  0.79705  0.79220  1.0000 -0.2017737258
N   N54       1.0  0.64919  0.29705  0.70780  1.0000 -0.2017737258
N   N55       1.0  0.14919  0.70295  0.79220  1.0000 -0.2125997788
N   N56       1.0  0.35081  0.20295  0.70780  1.0000 -0.2017737258
N   N57       1.0  0.15616  0.24555  0.16897  1.0000 -0.2017737258
N   N58       1.0  0.34384  0.74554  0.33103  1.0000 -0.2017737258
N   N59       1.0  0.84384  0.25445  0.16897  1.0000 -0.2017737258
N   N60       1.0  0.65616  0.75445  0.33103  1.0000 -0.2017737258
N   N61       1.0  0.84384  0.75445  0.83103  1.0000 -0.2017737258
N   N62       1.0  0.65616  0.25445  0.66897  1.0000 -0.2017737258
N   N63       1.0  0.15616  0.74554  0.83103  1.0000 -0.2017737258
N   N64       1.0  0.34384  0.24555  0.66897  1.0000 -0.2017737258
N   N65       1.0  0.03855  0.24443  0.19441  1.0000 0.0484715995
N   N66       1.0  0.46145  0.74444  0.30559  1.0000 0.0484715995
N   N67       1.0  0.96145  0.25556  0.19441  1.0000 0.0484715995
N   N68       1.0  0.53855  0.75557  0.30559  1.0000 0.0484715995
N   N69       1.0  0.96145  0.75557  0.80559  1.0000 0.0484715995
N   N70       1.0  0.53855  0.25556  0.69441  1.0000 0.0484715995
N   N71       1.0  0.03855  0.74444  0.80559  1.0000 0.0484715995
N   N72       1.0  0.46145  0.24443  0.69441  1.0000 0.0484715995
N   N73       1.0  0.34512  0.25746  0.07992  1.0000 -0.1852049772
N   N74       1.0  0.15488  0.75747  0.42008  1.0000 -0.1852049772
N   N75       1.0  0.65488  0.24253  0.07992  1.0000 -0.1852049772
N   N76       1.0  0.84512  0.74253  0.42008  1.0000 -0.1852049772
N   N77       1.0  0.65488  0.74253  0.92008  1.0000 -0.1852049772
N   N78       1.0  0.84512  0.24253  0.57992  1.0000 -0.1852049772
N   N79       1.0  0.34512  0.75747  0.92008  1.0000 -0.1852049772
N   N80       1.0  0.15488  0.25746  0.57992  1.0000 -0.1852049772
N   N81       1.0  0.35179  0.30162  0.04227  1.0000 -0.2179561119
N   N82       1.0  0.14821  0.80162  0.45773  1.0000 -0.2179561119
N   N83       1.0  0.64821  0.19839  0.04227  1.0000 -0.2179561119
N   N84       1.0  0.85179  0.69839  0.45773  1.0000 -0.2179561119
N   N85       1.0  0.64821  0.69839  0.95773  1.0000 -0.2179561119
N   N86       1.0  0.85179  0.19839  0.54227  1.0000 -0.2179561119
N   N87       1.0  0.35179  0.80162  0.95773  1.0000 -0.2179561119
N   N88       1.0  0.14821  0.30162  0.54227  1.0000 -0.2179561119
N   N89       1.0  0.46155  0.25637  0.05452  1.0000 0.0407191863
N   N90       1.0  0.03845  0.75636  0.44548  1.0000 0.0407191863
N   N91       1.0  0.53845  0.24363  0.05452  1.0000 0.0407191863
N   N92       1.0  0.96155  0.74364  0.44548  1.0000 0.0407191863
N   N93       1.0  0.53845  0.74364  0.94548  1.0000 0.0407191863
N   N94       1.0  0.96155  0.24363  0.55452  1.0000 0.0407191863
N   N95       1.0  0.46155  0.75636  0.94548  1.0000 0.0407191863
N   N96       1.0  0.03845  0.25637  0.55452  1.0000 0.0407191863
N   N97       1.0  0.23700  0.86171  0.35927  1.0000 -0.2017737258
N   N98       1.0  0.26300  0.36170  0.14073  1.0000 -0.2017737258
N   N99       1.0  0.76300  0.63829  0.35927  1.0000 -0.2017737258
N   N100      1.0  0.73700  0.13830  0.14073  1.0000 -0.2017737258
N   N101      1.0  0.76300  0.13830  0.64073  1.0000 -0.2017737258
N   N102      1.0  0.73700  0.63829  0.85927  1.0000 -0.2017737258
N   N103      1.0  0.23700  0.36170  0.64073  1.0000 -0.2017737258
N   N104      1.0  0.26300  0.86171  0.85927  1.0000 -0.2017737258
N   N105      1.0  0.24715  0.89765  0.40164  1.0000 -0.1741047299
N   N106      1.0  0.25285  0.39765  0.09836  1.0000 -0.1741047299
N   N107      1.0  0.75285  0.60235  0.40164  1.0000 -0.1741047299
N   N108      1.0  0.74715  0.10234  0.09836  1.0000 -0.1741047299
N   N109      1.0  0.75285  0.10234  0.59836  1.0000 -0.1741047299
N   N110      1.0  0.74715  0.60235  0.90164  1.0000 -0.1741047299
N   N111      1.0  0.24715  0.39765  0.59836  1.0000 -0.1741047299
N   N112      1.0  0.25285  0.89765  0.90164  1.0000 -0.1741047299
N   N113      1.0  0.22637  0.95896  0.34017  1.0000 0.0484715995
N   N114      1.0  0.27363  0.45895  0.15983  1.0000 0.0484715995
N   N115      1.0  0.77363  0.54104  0.34017  1.0000 0.0484715995
N   N116      1.0  0.72637  0.04104  0.15983  1.0000 0.0484715995
N   N117      1.0  0.77363  0.04104  0.65983  1.0000 0.0484715995
N   N118      1.0  0.72637  0.54104  0.84017  1.0000 0.0484715995
N   N119      1.0  0.22637  0.45895  0.65983  1.0000 0.0484715995
N   N120      1.0  0.27363  0.95896  0.84017  1.0000 0.0484715995
N   N121      1.0  0.23048  0.08865  0.26286  1.0000 -0.2125997788
N   N122      1.0  0.26952  0.58866  0.23714  1.0000 -0.2125997788
N   N123      1.0  0.76952  0.41134  0.26286  1.0000 -0.2125997788
N   N124      1.0  0.73048  0.91134  0.23714  1.0000 -0.2125997788
N   N125      1.0  0.76952  0.91134  0.73714  1.0000 -0.2125997788
N   N126      1.0  0.73048  0.41134  0.76286  1.0000 -0.2125997788
N   N127      1.0  0.23048  0.58866  0.73714  1.0000 -0.2125997788
N   N128      1.0  0.26952  0.08865  0.76286  1.0000 -0.2125997788
N   N129      1.0  0.15564  0.09106  0.27873  1.0000 -0.2017737258
N   N130      1.0  0.34436  0.59106  0.22127  1.0000 -0.2017737258
N   N131      1.0  0.84436  0.40893  0.27873  1.0000 -0.2017737258
N   N132      1.0  0.65564  0.90894  0.22127  1.0000 -0.2017737258
N   N133      1.0  0.84436  0.90894  0.72127  1.0000 -0.2017737258
N   N134      1.0  0.65564  0.40893  0.77873  1.0000 -0.2017737258
N   N135      1.0  0.15564  0.59106  0.72127  1.0000 -0.2017737258
N   N136      1.0  0.34436  0.09106  0.77873  1.0000 -0.2017737258
N   N137      1.0  0.21346  0.01210  0.31248  1.0000 0.0484715995
N   N138      1.0  0.28654  0.51211  0.18752  1.0000 0.0484715995
N   N139      1.0  0.78654  0.48789  0.31248  1.0000 0.0484715995
N   N140      1.0  0.71346  0.98789  0.18752  1.0000 0.0484715995
N   N141      1.0  0.78654  0.98789  0.68752  1.0000 0.0484715995
N   N142      1.0  0.71346  0.48789  0.81248  1.0000 0.0484715995
N   N143      1.0  0.21346  0.51211  0.68752  1.0000 0.0484715995
N   N144      1.0  0.28654  0.01210  0.81248  1.0000 0.0484715995
N   N145      1.0  0.29830  0.20911  0.27806  1.0000 -0.1852049772
N   N146      1.0  0.20170  0.70912  0.22194  1.0000 -0.1852049772
N   N147      1.0  0.70170  0.29089  0.27806  1.0000 -0.1777151914
N   N148      1.0  0.79830  0.79088  0.22194  1.0000 -0.1852049772
N   N149      1.0  0.70170  0.79088  0.72194  1.0000 -0.1777151914
N   N150      1.0  0.79830  0.29089  0.77806  1.0000 -0.1852049772
N   N151      1.0  0.29830  0.70912  0.72194  1.0000 -0.1852049772
N   N152      1.0  0.20170  0.20911  0.77806  1.0000 -0.1852049772
N   N153      1.0  0.33750  0.26316  0.27076  1.0000 -0.1646589443
N   N154      1.0  0.16250  0.76317  0.22924  1.0000 -0.1646589443
N   N155      1.0  0.66250  0.23683  0.27076  1.0000 -0.1646589443
N   N156      1.0  0.83750  0.73684  0.22924  1.0000 -0.1646589443
N   N157      1.0  0.66250  0.73684  0.72924  1.0000 -0.1646589443
N   N158      1.0  0.83750  0.23683  0.77076  1.0000 -0.1646589443
N   N159      1.0  0.33750  0.76317  0.72924  1.0000 -0.1646589443
N   N160      1.0  0.16250  0.26316  0.77076  1.0000 -0.1646589443
N   N161      1.0  0.31990  0.25059  0.34940  1.0000 0.0616162231
N   N162      1.0  0.18010  0.75058  0.15060  1.0000 0.0616162231
N   N163      1.0  0.68010  0.24941  0.34940  1.0000 0.0616162231
N   N164      1.0  0.81990  0.74942  0.15060  1.0000 0.0616162231
N   N165      1.0  0.68010  0.74942  0.65060  1.0000 0.0616162231
N   N166      1.0  0.81990  0.24941  0.84940  1.0000 0.0616162231
N   N167      1.0  0.31990  0.75058  0.65060  1.0000 0.0616162231
N   N168      1.0  0.18010  0.25059  0.84940  1.0000 0.0616162231
N   N169      1.0  0.30173  0.30057  0.47218  1.0000 -0.2017737258
N   N170      1.0  0.19827  0.80056  0.02782  1.0000 -0.2017737258
N   N171      1.0  0.69827  0.19944  0.47218  1.0000 -0.2017737258
N   N172      1.0  0.80173  0.69944  0.02782  1.0000 -0.2017737258
N   N173      1.0  0.69827  0.69944  0.52782  1.0000 -0.2017737258
N   N174      1.0  0.80173  0.19944  0.97218  1.0000 -0.2017737258
N   N175      1.0  0.30173  0.80056  0.52782  1.0000 -0.2017737258
N   N176      1.0  0.19827  0.30057  0.97218  1.0000 -0.2017737258
N   N177      1.0  0.34940  0.24927  0.47791  1.0000 -0.1777151914
N   N178      1.0  0.15060  0.74928  0.02209  1.0000 -0.1777151914
N   N179      1.0  0.65060  0.25072  0.47791  1.0000 -0.1777151914
N   N180      1.0  0.84940  0.75073  0.02209  1.0000 -0.1777151914
N   N181      1.0  0.65060  0.75073  0.52209  1.0000 -0.1777151914
N   N182      1.0  0.84940  0.25072  0.97791  1.0000 -0.1741047299
N   N183      1.0  0.34940  0.74928  0.52209  1.0000 -0.1777151914
N   N184      1.0  0.15060  0.24927  0.97791  1.0000 -0.1777151914
N   N185      1.0  0.31990  0.26038  0.40002  1.0000 0.0484715995
N   N186      1.0  0.18010  0.76038  0.09998  1.0000 0.0484715995
N   N187      1.0  0.68010  0.23962  0.40002  1.0000 0.0484715995
N   N188      1.0  0.81990  0.73962  0.09998  1.0000 0.0484715995
N   N189      1.0  0.68010  0.73962  0.59998  1.0000 0.0484715995
N   N190      1.0  0.81990  0.23962  0.90002  1.0000 0.0484715995
N   N191      1.0  0.31990  0.76038  0.59998  1.0000 0.0484715995
N   N192      1.0  0.18010  0.26038  0.90002  1.0000 0.0484715995
O   O1        1.0  0.31402  0.21768  0.17621  1.0000 -0.8039155855
O   O2        1.0  0.18598  0.71769  0.32379  1.0000 -0.8039155855
O   O3        1.0  0.68598  0.28231  0.17621  1.0000 -0.8039155855
O   O4        1.0  0.81402  0.78231  0.32379  1.0000 -0.8039155855
O   O5        1.0  0.68598  0.78231  0.82379  1.0000 -0.8039155855
O   O6        1.0  0.81402  0.28231  0.67621  1.0000 -0.8039155855
O   O7        1.0  0.31402  0.71769  0.82379  1.0000 -0.8039155855
O   O8        1.0  0.18598  0.21768  0.67621  1.0000 -0.8039155855
O   O9        1.0  0.18610  0.28724  0.07383  1.0000 -0.81059746
O   O10       1.0  0.31390  0.78724  0.42617  1.0000 -0.81059746
O   O11       1.0  0.81390  0.21275  0.07383  1.0000 -0.81059746
O   O12       1.0  0.68610  0.71276  0.42617  1.0000 -0.81059746
O   O13       1.0  0.81390  0.71276  0.92617  1.0000 -0.81059746
O   O14       1.0  0.68610  0.21275  0.57383  1.0000 -0.81059746
O   O15       1.0  0.18610  0.78724  0.92617  1.0000 -0.81059746
O   O16       1.0  0.31390  0.28724  0.57383  1.0000 -0.81059746
