# DDEC6 charges by PACMAN v1.1 (https://github.com/mtap-research/PACMAN-charge/)
data_2009[Zn][dmd]3[ASR]1
_chemical_formula_sum              "Zn4 P2 H40 C60 N8 O24"
_cell_length_a       14.6961
_cell_length_b       14.6961
_cell_length_c       9.6823
_cell_angle_alpha    85.7386
_cell_angle_beta     94.2614
_cell_angle_gamma    102.249

_symmetry_space_group_name_H-M    "P 1"
_symmetry_Int_Tables_number       1

loop_
  _symmetry_equiv_pos_as_xyz
  'x, y, z'

loop_
  _atom_site_type_symbol
  _atom_site_label
  _atom_site_symmetry_multiplicity
  _atom_site_fract_x
  _atom_site_fract_y
  _atom_site_fract_z
  _atom_site_occupancy
  _atom_site_charge
Zn  Zn1       1.0  0.88197  0.05113  0.98146  1.0000 0.9345285843
Zn  Zn2       1.0  0.05113  0.88197  0.51854  1.0000 0.9345285843
Zn  Zn3       1.0  0.11803  0.94887  0.01854  1.0000 0.9345285843
Zn  Zn4       1.0  0.94887  0.11803  0.48146  1.0000 0.9345285843
P   P1        1.0  0.00757  0.00757  0.75000  1.0000 1.5312689493
P   P2        1.0  0.99243  0.99243  0.25000  1.0000 1.5312689493
H   H1        1.0  0.59650  0.88710  0.05310  1.0000 0.1309410144
H   H2        1.0  0.88710  0.59650  0.44690  1.0000 0.1309410144
H   H3        1.0  0.40350  0.11290  0.94690  1.0000 0.1309410144
H   H4        1.0  0.11290  0.40350  0.55310  1.0000 0.1309410144
H   H5        1.0  0.89030  0.20970  0.16440  1.0000 0.1309410144
H   H6        1.0  0.20970  0.89030  0.33560  1.0000 0.1309410144
H   H7        1.0  0.10970  0.79030  0.83560  1.0000 0.1309410144
H   H8        1.0  0.79030  0.10970  0.66440  1.0000 0.1309410144
H   H9        1.0  0.97940  0.35540  0.20010  1.0000 0.1400125176
H   H10       1.0  0.35540  0.97940  0.29990  1.0000 0.1400125176
H   H11       1.0  0.02060  0.64460  0.79990  1.0000 0.1400125176
H   H12       1.0  0.64460  0.02060  0.70010  1.0000 0.1400125176
H   H13       1.0  0.10840  0.34280  0.84990  1.0000 0.1400125176
H   H14       1.0  0.34280  0.10840  0.65010  1.0000 0.1400125176
H   H15       1.0  0.89160  0.65720  0.15010  1.0000 0.1400125176
H   H16       1.0  0.65720  0.89160  0.34990  1.0000 0.1400125176
H   H17       1.0  0.01510  0.19510  0.82080  1.0000 0.1309410144
H   H18       1.0  0.19510  0.01510  0.67920  1.0000 0.1309410144
H   H19       1.0  0.98490  0.80490  0.17920  1.0000 0.1309410144
H   H20       1.0  0.80490  0.98490  0.32080  1.0000 0.1309410144
H   H21       1.0  0.04980  0.49440  0.20940  1.0000 0.1476214702
H   H22       1.0  0.49440  0.04980  0.29060  1.0000 0.1476214702
H   H23       1.0  0.95020  0.50560  0.79060  1.0000 0.1476214702
H   H24       1.0  0.50560  0.95020  0.70940  1.0000 0.1476214702
H   H25       1.0  0.15110  0.63650  0.24510  1.0000 0.1309410144
H   H26       1.0  0.63650  0.15110  0.25490  1.0000 0.1309410144
H   H27       1.0  0.84890  0.36350  0.75490  1.0000 0.1309410144
H   H28       1.0  0.36350  0.84890  0.74510  1.0000 0.1309410144
H   H29       1.0  0.29960  0.60320  0.93840  1.0000 0.1400125176
H   H30       1.0  0.60320  0.29960  0.56160  1.0000 0.1400125176
H   H31       1.0  0.70040  0.39680  0.06160  1.0000 0.1400125176
H   H32       1.0  0.39680  0.70040  0.43840  1.0000 0.1400125176
H   H33       1.0  0.20270  0.45810  0.89520  1.0000 0.1476214702
H   H34       1.0  0.45810  0.20270  0.60480  1.0000 0.1476214702
H   H35       1.0  0.79730  0.54190  0.10480  1.0000 0.1476214702
H   H36       1.0  0.54190  0.79730  0.39520  1.0000 0.1476214702
H   H37       1.0  0.27440  0.68580  0.11220  1.0000 0.306140239
H   H38       1.0  0.68580  0.27440  0.38780  1.0000 0.306140239
H   H39       1.0  0.72560  0.31420  0.88780  1.0000 0.306140239
H   H40       1.0  0.31420  0.72560  0.61220  1.0000 0.306140239
C   C1        1.0  0.55463  0.93481  0.02960  1.0000 -0.1518090827
C   C2        1.0  0.93481  0.55463  0.47040  1.0000 -0.1518090827
C   C3        1.0  0.44537  0.06519  0.97040  1.0000 -0.1518090827
C   C4        1.0  0.06519  0.44537  0.52960  1.0000 -0.1518090827
C   C5        1.0  0.59721  0.02763  0.00730  1.0000 -0.029686427
C   C6        1.0  0.02763  0.59721  0.49270  1.0000 -0.029686427
C   C7        1.0  0.40279  0.97237  0.99270  1.0000 -0.029686427
C   C8        1.0  0.97237  0.40279  0.50730  1.0000 -0.029686427
C   C9        1.0  0.54149  0.09341  0.97550  1.0000 -0.0395469268
C   C10       1.0  0.09341  0.54149  0.52450  1.0000 -0.0395469268
C   C11       1.0  0.45851  0.90659  0.02450  1.0000 -0.0395469268
C   C12       1.0  0.90659  0.45851  0.47550  1.0000 -0.0395469268
C   C13       1.0  0.70225  0.05575  0.02570  1.0000 0.5691849838
C   C14       1.0  0.05575  0.70225  0.47430  1.0000 0.5691849838
C   C15       1.0  0.29775  0.94425  0.97430  1.0000 0.5691849838
C   C16       1.0  0.94425  0.29775  0.52570  1.0000 0.5691849838
C   C17       1.0  0.58472  0.19474  0.94960  1.0000 0.5486803005
C   C18       1.0  0.19474  0.58472  0.55040  1.0000 0.5486803005
C   C19       1.0  0.41528  0.80526  0.05040  1.0000 0.5486803005
C   C20       1.0  0.80526  0.41528  0.44960  1.0000 0.5486803005
C   C21       1.0  0.93664  0.23644  0.10030  1.0000 0.1132267329
C   C22       1.0  0.23644  0.93664  0.39970  1.0000 0.1132267329
C   C23       1.0  0.06336  0.76356  0.89970  1.0000 0.1132267329
C   C24       1.0  0.76356  0.06336  0.60030  1.0000 0.1132267329
C   C25       1.0  0.98908  0.32330  0.12140  1.0000 -0.1643687536
C   C26       1.0  0.32330  0.98908  0.37860  1.0000 -0.1643687536
C   C27       1.0  0.01092  0.67670  0.87860  1.0000 -0.1643687536
C   C28       1.0  0.67670  0.01092  0.62140  1.0000 -0.1643687536
C   C29       1.0  0.05614  0.36544  0.03040  1.0000 0.1195050522
C   C30       1.0  0.36544  0.05614  0.46960  1.0000 0.1195050522
C   C31       1.0  0.94386  0.63456  0.96960  1.0000 0.1195050522
C   C32       1.0  0.63456  0.94386  0.53040  1.0000 0.1195050522
C   C33       1.0  0.06406  0.31608  0.91700  1.0000 -0.1838422616
C   C34       1.0  0.31608  0.06406  0.58300  1.0000 -0.1838422616
C   C35       1.0  0.93594  0.68392  0.08300  1.0000 -0.1838422616
C   C36       1.0  0.68392  0.93594  0.41700  1.0000 -0.1838422616
C   C37       1.0  0.00875  0.22851  0.90140  1.0000 0.1132267329
C   C38       1.0  0.22851  0.00875  0.59860  1.0000 0.1132267329
C   C39       1.0  0.99125  0.77149  0.09860  1.0000 0.1132267329
C   C40       1.0  0.77149  0.99125  0.40140  1.0000 0.1132267329
C   C41       1.0  0.11716  0.45784  0.05220  1.0000 0.1195050522
C   C42       1.0  0.45784  0.11716  0.44780  1.0000 0.1195050522
C   C43       1.0  0.88284  0.54216  0.94780  1.0000 0.1195050522
C   C44       1.0  0.54216  0.88284  0.55220  1.0000 0.1195050522
C   C45       1.0  0.10306  0.51426  0.15220  1.0000 -0.1898006492
C   C46       1.0  0.51426  0.10306  0.34780  1.0000 -0.1898006492
C   C47       1.0  0.89694  0.48574  0.84780  1.0000 -0.1898006492
C   C48       1.0  0.48574  0.89694  0.65220  1.0000 -0.1898006492
C   C49       1.0  0.16266  0.59888  0.17250  1.0000 0.0984036799
C   C50       1.0  0.59888  0.16266  0.32750  1.0000 0.0984036799
C   C51       1.0  0.83734  0.40112  0.82750  1.0000 0.0984036799
C   C52       1.0  0.40112  0.83734  0.67250  1.0000 0.0984036799
C   C53       1.0  0.24800  0.57800  0.99890  1.0000 0.0937578182
C   C54       1.0  0.57800  0.24800  0.50110  1.0000 0.0937578182
C   C55       1.0  0.75200  0.42200  0.00110  1.0000 0.0937578182
C   C56       1.0  0.42200  0.75200  0.49890  1.0000 0.0937578182
C   C57       1.0  0.19171  0.49251  0.97290  1.0000 -0.1898006492
C   C58       1.0  0.49251  0.19171  0.52710  1.0000 -0.1898006492
C   C59       1.0  0.80829  0.50749  0.02710  1.0000 -0.1898006492
C   C60       1.0  0.50749  0.80829  0.47290  1.0000 -0.1898006492
N   N1        1.0  0.94674  0.18750  0.99250  1.0000 -0.2453576376
N   N2        1.0  0.18750  0.94674  0.50750  1.0000 -0.2453576376
N   N3        1.0  0.05326  0.81250  0.00750  1.0000 -0.2453576376
N   N4        1.0  0.81250  0.05326  0.49250  1.0000 -0.2453576376
N   N5        1.0  0.23464  0.62982  0.09730  1.0000 -0.0890809645
N   N6        1.0  0.62982  0.23464  0.40270  1.0000 -0.0890809645
N   N7        1.0  0.76536  0.37018  0.90270  1.0000 -0.0890809645
N   N8        1.0  0.37018  0.76536  0.59730  1.0000 -0.0890809645
O   O1        1.0  0.91515  0.99905  0.81846  1.0000 -0.7785496761
O   O2        1.0  0.99905  0.91515  0.68154  1.0000 -0.7785496761
O   O3        1.0  0.08485  0.00095  0.18154  1.0000 -0.7785496761
O   O4        1.0  0.00095  0.08485  0.31846  1.0000 -0.7785496761
O   O5        1.0  0.08973  0.02365  0.85673  1.0000 -0.7973049332
O   O6        1.0  0.02365  0.08973  0.64327  1.0000 -0.7973049332
O   O7        1.0  0.91027  0.97635  0.14327  1.0000 -0.7973049332
O   O8        1.0  0.97635  0.91027  0.35673  1.0000 -0.7973049332
O   O9        1.0  0.74639  0.01659  0.94802  1.0000 -0.5138836552
O   O10       1.0  0.01659  0.74639  0.55198  1.0000 -0.5138836552
O   O11       1.0  0.25361  0.98341  0.05198  1.0000 -0.5138836552
O   O12       1.0  0.98341  0.25361  0.44802  1.0000 -0.5138836552
O   O13       1.0  0.73762  0.10994  0.11390  1.0000 -0.5330711653
O   O14       1.0  0.10994  0.73762  0.38610  1.0000 -0.5330711653
O   O15       1.0  0.26238  0.89006  0.88610  1.0000 -0.5330711653
O   O16       1.0  0.89006  0.26238  0.61390  1.0000 -0.5330711653
O   O17       1.0  0.65423  0.20951  0.87000  1.0000 -0.5753523757
O   O18       1.0  0.20951  0.65423  0.63000  1.0000 -0.5753523757
O   O19       1.0  0.34577  0.79049  0.13000  1.0000 -0.5746337225
O   O20       1.0  0.79049  0.34577  0.37000  1.0000 -0.5753523757
O   O21       1.0  0.55493  0.25537  0.99860  1.0000 -0.5395627071
O   O22       1.0  0.25537  0.55493  0.50140  1.0000 -0.5395627071
O   O23       1.0  0.44507  0.74463  0.00140  1.0000 -0.5395627071
O   O24       1.0  0.74463  0.44507  0.49860  1.0000 -0.5395627071
