# DDEC6 charges by PACMAN v1.1 (https://github.com/mtap-research/PACMAN-charge/)
data_2009[Sm][pcu]3[ASR]1
_chemical_formula_sum              "Sm2 H30 C24 O14"
_cell_length_a       10.2001
_cell_length_b       10.4146
_cell_length_c       10.7531
_cell_angle_alpha    111.736
_cell_angle_beta     117.78
_cell_angle_gamma    92.027

_symmetry_space_group_name_H-M    "P 1"
_symmetry_Int_Tables_number       1

loop_
  _symmetry_equiv_pos_as_xyz
  'x, y, z'

loop_
  _atom_site_type_symbol
  _atom_site_label
  _atom_site_symmetry_multiplicity
  _atom_site_fract_x
  _atom_site_fract_y
  _atom_site_fract_z
  _atom_site_occupancy
  _atom_site_charge
Sm  Sm1       1.0  0.19506  0.01880  0.48818  1.0000 1.9364276421
Sm  Sm2       1.0  0.80475  0.98085  0.51175  1.0000 1.9340159189
H   H1        1.0  0.60859  0.20559  0.98007  1.0000 0.0904512109
H   H2        1.0  0.56537  0.19365  0.18040  1.0000 0.0738565963
H   H3        1.0  0.39713  0.21630  0.03880  1.0000 0.0904512109
H   H4        1.0  0.73095  0.04237  0.08486  1.0000 0.0802229995
H   H5        1.0  0.66567  0.96612  0.88174  1.0000 0.0904512109
H   H6        1.0  0.86084  0.62511  0.43275  1.0000 0.0802229995
H   H7        1.0  0.90678  0.46565  0.22583  1.0000 0.0904512109
H   H8        1.0  0.09748  0.48710  0.36808  1.0000 0.0802229995
H   H9        1.0  0.06422  0.74409  0.70993  1.0000 0.0904512109
H   H10       1.0  0.19664  0.65765  0.66813  1.0000 0.0802229995
H   H11       1.0  0.26285  0.41978  0.39780  1.0000 0.0802229995
H   H12       1.0  0.54888  0.47113  0.70568  1.0000 0.0904512109
H   H13       1.0  0.52524  0.28732  0.39145  1.0000 0.0904512109
H   H14       1.0  0.39007  0.54644  0.66731  1.0000 0.0802229995
H   H15       1.0  0.35566  0.29263  0.23857  1.0000 0.0904512109
H   H16       1.0  0.39146  0.79443  0.01999  1.0000 0.0904512109
H   H17       1.0  0.43463  0.80636  0.81964  1.0000 0.0738565963
H   H18       1.0  0.60289  0.78369  0.96121  1.0000 0.0904512109
H   H19       1.0  0.26907  0.95763  0.91515  1.0000 0.0802229995
H   H20       1.0  0.33433  0.03387  0.11828  1.0000 0.0904512109
H   H21       1.0  0.13912  0.37492  0.56727  1.0000 0.0802229995
H   H22       1.0  0.09320  0.53436  0.77413  1.0000 0.0904512109
H   H23       1.0  0.90248  0.51294  0.63190  1.0000 0.0802229995
H   H24       1.0  0.93576  0.25593  0.29008  1.0000 0.0904512109
H   H25       1.0  0.80334  0.34237  0.33186  1.0000 0.0802229995
H   H26       1.0  0.73640  0.57996  0.60204  1.0000 0.0802229995
H   H27       1.0  0.44858  0.52946  0.29449  1.0000 0.0904512109
H   H28       1.0  0.47550  0.71364  0.61005  1.0000 0.0963061046
H   H29       1.0  0.60772  0.45438  0.33062  1.0000 0.0802229995
H   H30       1.0  0.64425  0.70657  0.76198  1.0000 0.0904512109
C   C1        1.0  0.40784  0.06193  0.78215  1.0000 0.5907494318
C   C2        1.0  0.53346  0.10569  0.95047  1.0000 -0.0920274924
C   C3        1.0  0.46800  0.13982  0.05789  1.0000 -0.1596441041
C   C4        1.0  0.62638  0.99425  0.96634  1.0000 -0.1596441041
C   C5        1.0  0.31568  0.25005  0.46080  1.0000 0.5010625613
C   C6        1.0  0.03910  0.75141  0.44742  1.0000 0.6490890276
C   C7        1.0  0.98002  0.62415  0.46093  1.0000 -0.1056447323
C   C8        1.0  0.98042  0.48159  0.34836  1.0000 -0.1521949578
C   C9        1.0  0.07412  0.64455  0.63236  1.0000 -0.1596441041
C   C10       1.0  0.36855  0.38900  0.45960  1.0000 -0.0920274924
C   C11       1.0  0.46852  0.51109  0.62501  1.0000 -0.1596441041
C   C12       1.0  0.44577  0.35636  0.36231  1.0000 -0.1521949578
C   C13       1.0  0.59212  0.93813  0.21780  1.0000 0.5907494318
C   C14       1.0  0.46663  0.89436  0.04966  1.0000 -0.0920274924
C   C15       1.0  0.53202  0.86022  0.94216  1.0000 -0.1596441041
C   C16       1.0  0.37366  0.00577  0.03369  1.0000 -0.1596441041
C   C17       1.0  0.68452  0.74978  0.53971  1.0000 0.5010625613
C   C18       1.0  0.96085  0.24856  0.55260  1.0000 0.6490890276
C   C19       1.0  0.01991  0.37587  0.53907  1.0000 -0.1056447323
C   C20       1.0  0.01953  0.51844  0.65164  1.0000 -0.1521949578
C   C21       1.0  0.92582  0.35546  0.36762  1.0000 -0.1596441041
C   C22       1.0  0.63078  0.61162  0.54002  1.0000 -0.0920274924
C   C23       1.0  0.53026  0.48930  0.37407  1.0000 -0.1596441041
C   C24       1.0  0.55383  0.64405  0.63789  1.0000 -0.1521949578
O   O1        1.0  0.42648  0.99128  0.66803  1.0000 -0.6319912183
O   O2        1.0  0.28186  0.10128  0.75427  1.0000 -0.6468830216
O   O3        1.0  0.35147  0.26915  0.62316  1.0000 -0.2628463316
O   O4        1.0  0.19171  0.15323  0.34614  1.0000 -0.6172091472
O   O5        1.0  0.13399  0.75242  0.40305  1.0000 -0.5907355654
O   O6        1.0  0.99468  0.86816  0.48994  1.0000 -0.7637593257
O   O7        1.0  0.44202  0.19629  0.55051  1.0000 -0.2117638695
O   O8        1.0  0.57356  0.00887  0.33206  1.0000 -0.6319912183
O   O9        1.0  0.71820  0.89872  0.24577  1.0000 -0.6468830216
O   O10       1.0  0.64799  0.73047  0.37678  1.0000 -0.2628463316
O   O11       1.0  0.80807  0.84637  0.65378  1.0000 -0.6172091472
O   O12       1.0  0.86593  0.24754  0.59693  1.0000 -0.5907355654
O   O13       1.0  0.00533  0.13187  0.51015  1.0000 -0.7637593257
O   O14       1.0  0.55803  0.80383  0.44987  1.0000 -0.2117638695
