# DDEC6 charges by PACMAN v1.1 (https://github.com/mtap-research/PACMAN-charge/)
data_2009[Np][nan]3[ASR]1
_chemical_formula_sum              "Np4 H16 C24 N4 O12"
_cell_length_a       5.742
_cell_length_b       8.55
_cell_length_c       18.512
_cell_angle_alpha    90
_cell_angle_beta     90
_cell_angle_gamma    90

_symmetry_space_group_name_H-M    "P 1"
_symmetry_Int_Tables_number       1

loop_
  _symmetry_equiv_pos_as_xyz
  'x, y, z'

loop_
  _atom_site_type_symbol
  _atom_site_label
  _atom_site_symmetry_multiplicity
  _atom_site_fract_x
  _atom_site_fract_y
  _atom_site_fract_z
  _atom_site_occupancy
  _atom_site_charge
Np  Np1       1.0  0.50790  0.91945  0.48386  1.0000 1.6312112401
Np  Np2       1.0  0.99210  0.08055  0.98386  1.0000 1.6312112401
Np  Np3       1.0  0.49210  0.41945  0.01614  1.0000 1.6312112401
Np  Np4       1.0  0.00790  0.58055  0.51614  1.0000 1.6312112401
H   H1        1.0  0.13520  0.80180  0.85200  1.0000 0.0809278714
H   H2        1.0  0.36480  0.19820  0.35200  1.0000 0.0809278714
H   H3        1.0  0.86480  0.30180  0.64800  1.0000 0.0809278714
H   H4        1.0  0.63520  0.69820  0.14800  1.0000 0.0809278714
H   H5        1.0  0.55880  0.04160  0.86030  1.0000 0.0909010398
H   H6        1.0  0.94120  0.95840  0.36030  1.0000 0.0909010398
H   H7        1.0  0.44120  0.54160  0.63970  1.0000 0.0909010398
H   H8        1.0  0.05880  0.45840  0.13970  1.0000 0.0909010398
H   H9        1.0  0.06670  0.73690  0.73430  1.0000 0.1075255911
H   H10       1.0  0.43330  0.26310  0.23430  1.0000 0.1075255911
H   H11       1.0  0.93330  0.23690  0.76570  1.0000 0.1075255911
H   H12       1.0  0.56670  0.76310  0.26570  1.0000 0.1075255911
H   H13       1.0  0.47890  0.99020  0.74040  1.0000 0.1075255911
H   H14       1.0  0.02110  0.00980  0.24040  1.0000 0.1075255911
H   H15       1.0  0.52110  0.49020  0.75960  1.0000 0.1075255911
H   H16       1.0  0.97890  0.50980  0.25960  1.0000 0.1075255911
C   C1        1.0  0.00300  0.84100  0.82950  1.0000 0.0577428101
C   C2        1.0  0.49700  0.15900  0.32950  1.0000 0.0577428101
C   C3        1.0  0.99700  0.34100  0.67050  1.0000 0.0577428101
C   C4        1.0  0.50300  0.65900  0.17050  1.0000 0.0577428101
C   C5        1.0  0.66400  0.98260  0.83370  1.0000 0.0496593828
C   C6        1.0  0.83600  0.01740  0.33370  1.0000 0.0496593828
C   C7        1.0  0.33600  0.48260  0.66630  1.0000 0.0496593828
C   C8        1.0  0.16400  0.51740  0.16630  1.0000 0.0496593828
C   C9        1.0  0.96000  0.79970  0.75870  1.0000 -0.1899678668
C   C10       1.0  0.54000  0.20030  0.25870  1.0000 -0.1899678668
C   C11       1.0  0.04000  0.29970  0.74130  1.0000 -0.1899678668
C   C12       1.0  0.46000  0.70030  0.24130  1.0000 -0.1899678668
C   C13       1.0  0.61120  0.94850  0.76200  1.0000 -0.1899678668
C   C14       1.0  0.88880  0.05150  0.26200  1.0000 -0.1899678668
C   C15       1.0  0.38880  0.44850  0.73800  1.0000 -0.1899678668
C   C16       1.0  0.11120  0.55150  0.23800  1.0000 -0.1899678668
C   C17       1.0  0.75960  0.85100  0.72340  1.0000 -0.0097715908
C   C18       1.0  0.74040  0.14900  0.22340  1.0000 -0.0097715908
C   C19       1.0  0.24040  0.35100  0.77660  1.0000 -0.0097715908
C   C20       1.0  0.25960  0.64900  0.27660  1.0000 -0.0097715908
C   C21       1.0  0.71690  0.81360  0.64580  1.0000 0.5466790686
C   C22       1.0  0.78310  0.18640  0.14580  1.0000 0.5466790686
C   C23       1.0  0.28310  0.31360  0.85420  1.0000 0.5466790686
C   C24       1.0  0.21690  0.68640  0.35420  1.0000 0.5466790686
N   N1        1.0  0.86350  0.93370  0.86690  1.0000 -0.2672392761
N   N2        1.0  0.63650  0.06630  0.36690  1.0000 -0.2672392761
N   N3        1.0  0.13650  0.43370  0.63310  1.0000 -0.2672392761
N   N4        1.0  0.36350  0.56630  0.13310  1.0000 -0.2672392761
O   O1        1.0  0.57690  0.89670  0.61320  1.0000 -0.5589723101
O   O2        1.0  0.92310  0.10330  0.11320  1.0000 -0.5589723101
O   O3        1.0  0.42310  0.39670  0.88680  1.0000 -0.5589723101
O   O4        1.0  0.07690  0.60330  0.38680  1.0000 -0.5589723101
O   O5        1.0  0.82170  0.69610  0.62070  1.0000 -0.5924746503
O   O6        1.0  0.67830  0.30390  0.12070  1.0000 -0.5924746503
O   O7        1.0  0.17830  0.19610  0.87930  1.0000 -0.5924746503
O   O8        1.0  0.32170  0.80390  0.37930  1.0000 -0.5924746503
O   O9        1.0  0.74620  0.77910  0.47040  1.0000 -0.8637790342
O   O10       1.0  0.75380  0.22090  0.97040  1.0000 -0.8637790342
O   O11       1.0  0.25380  0.27910  0.02960  1.0000 -0.8637790342
O   O12       1.0  0.24620  0.72090  0.52960  1.0000 -0.8637790342
