# DDEC6 charges by PACMAN v1.1 (https://github.com/mtap-research/PACMAN-charge/)
data_2009[Cd][nan]3[ASR]8
_chemical_formula_sum              "Cd12 P8 H96 C56 N8 Cl8 O40"
_cell_length_a       7.036
_cell_length_b       15.8921
_cell_length_c       26.561
_cell_angle_alpha    90
_cell_angle_beta     90
_cell_angle_gamma    90

_symmetry_space_group_name_H-M    "P 1"
_symmetry_Int_Tables_number       1

loop_
  _symmetry_equiv_pos_as_xyz
  'x, y, z'

loop_
  _atom_site_type_symbol
  _atom_site_label
  _atom_site_symmetry_multiplicity
  _atom_site_fract_x
  _atom_site_fract_y
  _atom_site_fract_z
  _atom_site_occupancy
  _atom_site_charge
Cd  Cd1       1.0  0.40698  0.48019  0.01432  1.0000 1.0468970699
Cd  Cd2       1.0  0.09302  0.51981  0.51432  1.0000 1.0468970699
Cd  Cd3       1.0  0.59302  0.98019  0.48568  1.0000 1.0468970699
Cd  Cd4       1.0  0.90698  0.01981  0.98568  1.0000 1.0468970699
Cd  Cd5       1.0  0.65304  0.24602  0.00230  1.0000 1.0593753918
Cd  Cd6       1.0  0.84696  0.75398  0.50230  1.0000 1.0593753918
Cd  Cd7       1.0  0.34696  0.74602  0.49770  1.0000 1.0593753918
Cd  Cd8       1.0  0.15304  0.25398  0.99770  1.0000 1.0593753918
Cd  Cd9       1.0  0.72340  0.49149  0.11341  1.0000 1.0744227631
Cd  Cd10      1.0  0.77660  0.50851  0.61341  1.0000 1.0744227631
Cd  Cd11      1.0  0.27660  0.99149  0.38659  1.0000 1.0744227631
Cd  Cd12      1.0  0.22340  0.00851  0.88659  1.0000 1.0744227631
P   P1        1.0  0.90640  0.44044  0.00001  1.0000 1.3207695646
P   P2        1.0  0.59360  0.55956  0.50001  1.0000 1.3207695646
P   P3        1.0  0.09360  0.94044  0.49999  1.0000 1.3207695646
P   P4        1.0  0.40640  0.05956  0.99999  1.0000 1.3207695646
P   P5        1.0  0.40340  0.32828  0.09905  1.0000 1.2943159504
P   P6        1.0  0.09660  0.67172  0.59905  1.0000 1.2943159504
P   P7        1.0  0.59660  0.82828  0.40095  1.0000 1.2943159504
P   P8        1.0  0.90340  0.17172  0.90095  1.0000 1.2943159504
H   H1        1.0  0.09340  0.57660  0.93950  1.0000 0.2502397461
H   H2        1.0  0.40660  0.42340  0.43950  1.0000 0.2502397461
H   H3        1.0  0.90660  0.07660  0.56050  1.0000 0.2502397461
H   H4        1.0  0.59340  0.92340  0.06050  1.0000 0.2502397461
H   H5        1.0  0.49770  0.20780  0.17920  1.0000 0.2746218904
H   H6        1.0  0.00230  0.79220  0.67920  1.0000 0.2746218904
H   H7        1.0  0.50230  0.70780  0.32080  1.0000 0.2746218904
H   H8        1.0  0.99770  0.29220  0.82080  1.0000 0.2746218904
H   H9        1.0  0.97470  0.45500  0.91510  1.0000 0.1541354371
H   H10       1.0  0.52530  0.54500  0.41510  1.0000 0.1541354371
H   H11       1.0  0.02530  0.95500  0.58490  1.0000 0.1541354371
H   H12       1.0  0.47470  0.04500  0.08490  1.0000 0.1541354371
H   H13       1.0  0.76780  0.48640  0.92570  1.0000 0.1541354371
H   H14       1.0  0.73220  0.51360  0.42570  1.0000 0.1541354371
H   H15       1.0  0.23220  0.98640  0.57430  1.0000 0.1541354371
H   H16       1.0  0.26780  0.01360  0.07430  1.0000 0.1541354371
H   H17       1.0  0.91950  0.61070  0.00830  1.0000 0.1285432287
H   H18       1.0  0.58050  0.38930  0.50830  1.0000 0.1285432287
H   H19       1.0  0.08050  0.11070  0.49170  1.0000 0.1285432287
H   H20       1.0  0.41950  0.88930  0.99170  1.0000 0.1285432287
H   H21       1.0  0.74960  0.63530  0.97290  1.0000 0.1220147561
H   H22       1.0  0.75040  0.36470  0.47290  1.0000 0.1220147561
H   H23       1.0  0.25040  0.13530  0.52710  1.0000 0.1220147561
H   H24       1.0  0.24960  0.86470  0.02710  1.0000 0.1220147561
H   H25       1.0  0.10270  0.71820  0.97490  1.0000 0.1220147561
H   H26       1.0  0.39730  0.28180  0.47490  1.0000 0.1220147561
H   H27       1.0  0.89730  0.21820  0.52510  1.0000 0.1220147561
H   H28       1.0  0.60270  0.78180  0.02510  1.0000 0.1220147561
H   H29       1.0  0.91360  0.75550  0.99680  1.0000 0.1285432287
H   H30       1.0  0.58640  0.24450  0.49680  1.0000 0.1285432287
H   H31       1.0  0.08640  0.25550  0.50320  1.0000 0.1285432287
H   H32       1.0  0.41360  0.74450  0.00320  1.0000 0.1285432287
H   H33       1.0  0.78150  0.75650  0.91560  1.0000 0.1138676611
H   H34       1.0  0.71850  0.24350  0.41560  1.0000 0.1138676611
H   H35       1.0  0.21850  0.25650  0.58440  1.0000 0.1138676611
H   H36       1.0  0.28150  0.74350  0.08440  1.0000 0.1138676611
H   H37       1.0  0.13880  0.70190  0.88150  1.0000 0.1285432287
H   H38       1.0  0.36120  0.29810  0.38150  1.0000 0.1285432287
H   H39       1.0  0.86120  0.20190  0.61850  1.0000 0.1285432287
H   H40       1.0  0.63880  0.79810  0.11850  1.0000 0.1285432287
H   H41       1.0  0.96750  0.72410  0.84610  1.0000 0.1138676611
H   H42       1.0  0.53250  0.27590  0.34610  1.0000 0.1138676611
H   H43       1.0  0.03250  0.22410  0.65390  1.0000 0.1138676611
H   H44       1.0  0.46750  0.77590  0.15390  1.0000 0.1138676611
H   H45       1.0  0.79200  0.61280  0.87760  1.0000 0.1285432287
H   H46       1.0  0.70800  0.38720  0.37760  1.0000 0.1285432287
H   H47       1.0  0.20800  0.11280  0.62240  1.0000 0.1285432287
H   H48       1.0  0.29200  0.88720  0.12240  1.0000 0.1285432287
H   H49       1.0  0.98830  0.57800  0.85890  1.0000 0.1220147561
H   H50       1.0  0.51170  0.42200  0.35890  1.0000 0.1220147561
H   H51       1.0  0.01170  0.07800  0.64110  1.0000 0.1220147561
H   H52       1.0  0.48830  0.92200  0.14110  1.0000 0.1220147561
H   H53       1.0  0.46780  0.35030  0.18380  1.0000 0.1698982282
H   H54       1.0  0.03220  0.64970  0.68380  1.0000 0.1698982282
H   H55       1.0  0.53220  0.85030  0.31620  1.0000 0.1698982282
H   H56       1.0  0.96780  0.14970  0.81620  1.0000 0.1698982282
H   H57       1.0  0.24860  0.34050  0.17600  1.0000 0.1698982282
H   H58       1.0  0.25140  0.65950  0.67600  1.0000 0.1698982282
H   H59       1.0  0.75140  0.84050  0.32400  1.0000 0.1698982282
H   H60       1.0  0.74860  0.15950  0.82400  1.0000 0.1698982282
H   H61       1.0  0.23960  0.25170  0.25290  1.0000 0.1220147561
H   H62       1.0  0.26040  0.74830  0.75290  1.0000 0.1220147561
H   H63       1.0  0.76040  0.75170  0.24710  1.0000 0.1220147561
H   H64       1.0  0.73960  0.24830  0.74710  1.0000 0.1220147561
H   H65       1.0  0.45930  0.26700  0.25760  1.0000 0.1220147561
H   H66       1.0  0.04070  0.73300  0.75760  1.0000 0.1220147561
H   H67       1.0  0.54070  0.76700  0.24240  1.0000 0.1220147561
H   H68       1.0  0.95930  0.23300  0.74240  1.0000 0.1220147561
H   H69       1.0  0.51420  0.12110  0.25710  1.0000 0.1138676611
H   H70       1.0  0.98580  0.87890  0.75710  1.0000 0.1138676611
H   H71       1.0  0.48580  0.62110  0.24290  1.0000 0.1138676611
H   H72       1.0  0.01420  0.37890  0.74290  1.0000 0.1138676611
H   H73       1.0  0.37540  0.14380  0.30140  1.0000 0.1220147561
H   H74       1.0  0.12460  0.85620  0.80140  1.0000 0.1220147561
H   H75       1.0  0.62460  0.64380  0.19860  1.0000 0.1220147561
H   H76       1.0  0.87540  0.35620  0.69860  1.0000 0.1220147561
H   H77       1.0  0.11420  0.10310  0.25340  1.0000 0.1018081451
H   H78       1.0  0.38580  0.89690  0.75340  1.0000 0.1018081451
H   H79       1.0  0.88580  0.60310  0.24660  1.0000 0.1018081451
H   H80       1.0  0.61420  0.39690  0.74660  1.0000 0.1018081451
H   H81       1.0  0.14780  0.04850  0.17370  1.0000 0.1285432287
H   H82       1.0  0.35220  0.95150  0.67370  1.0000 0.1285432287
H   H83       1.0  0.85220  0.54850  0.32630  1.0000 0.1285432287
H   H84       1.0  0.64780  0.45150  0.82630  1.0000 0.1285432287
H   H85       1.0  0.36910  0.05860  0.17640  1.0000 0.1018081451
H   H86       1.0  0.13090  0.94140  0.67640  1.0000 0.1018081451
H   H87       1.0  0.63090  0.55860  0.32360  1.0000 0.1018081451
H   H88       1.0  0.86910  0.44140  0.82360  1.0000 0.1018081451
H   H89       1.0  0.25190  0.16750  0.12800  1.0000 0.1285432287
H   H90       1.0  0.24810  0.83250  0.62800  1.0000 0.1285432287
H   H91       1.0  0.74810  0.66750  0.37200  1.0000 0.1285432287
H   H92       1.0  0.75190  0.33250  0.87200  1.0000 0.1285432287
H   H93       1.0  0.10720  0.19310  0.17030  1.0000 0.1285432287
H   H94       1.0  0.39280  0.80690  0.67030  1.0000 0.1285432287
H   H95       1.0  0.89280  0.69310  0.32970  1.0000 0.1285432287
H   H96       1.0  0.60720  0.30690  0.82970  1.0000 0.1285432287
C   C1        1.0  0.89790  0.48850  0.93780  1.0000 -0.4309663163
C   C2        1.0  0.60210  0.51150  0.43780  1.0000 -0.4309663163
C   C3        1.0  0.10210  0.98850  0.56220  1.0000 -0.4309663163
C   C4        1.0  0.39790  0.01150  0.06220  1.0000 -0.4309663163
C   C5        1.0  0.88700  0.63330  0.97550  1.0000 -0.0919224905
C   C6        1.0  0.61300  0.36670  0.47550  1.0000 -0.0919224905
C   C7        1.0  0.11300  0.13330  0.52450  1.0000 -0.0919224905
C   C8        1.0  0.38700  0.86670  0.02450  1.0000 -0.0919224905
C   C9        1.0  0.96600  0.72010  0.97050  1.0000 -0.2035670006
C   C10       1.0  0.53400  0.27990  0.47050  1.0000 -0.2035670006
C   C11       1.0  0.03400  0.22010  0.52950  1.0000 -0.2035670006
C   C12       1.0  0.46600  0.77990  0.02950  1.0000 -0.2035670006
C   C13       1.0  0.92000  0.75860  0.91930  1.0000 -0.0992205688
C   C14       1.0  0.58000  0.24140  0.41930  1.0000 -0.0992205688
C   C15       1.0  0.08000  0.25860  0.58070  1.0000 -0.0992205688
C   C16       1.0  0.42000  0.74140  0.08070  1.0000 -0.0992205688
C   C17       1.0  0.00130  0.70220  0.87900  1.0000 -0.2109864093
C   C18       1.0  0.49870  0.29780  0.37900  1.0000 -0.2109864093
C   C19       1.0  0.99870  0.20220  0.62100  1.0000 -0.2109864093
C   C20       1.0  0.50130  0.79780  0.12100  1.0000 -0.2109864093
C   C21       1.0  0.92770  0.61330  0.88400  1.0000 -0.0992205688
C   C22       1.0  0.57230  0.38670  0.38400  1.0000 -0.0992205688
C   C23       1.0  0.07230  0.11330  0.61600  1.0000 -0.0992205688
C   C24       1.0  0.42770  0.88670  0.11600  1.0000 -0.0992205688
C   C25       1.0  0.97640  0.85330  0.91880  1.0000 0.582403378
C   C26       1.0  0.52360  0.14670  0.41880  1.0000 0.582403378
C   C27       1.0  0.02360  0.35330  0.58120  1.0000 0.582403378
C   C28       1.0  0.47640  0.64670  0.08120  1.0000 0.582403378
C   C29       1.0  0.37120  0.31700  0.16700  1.0000 -0.4230105118
C   C30       1.0  0.12880  0.68300  0.66700  1.0000 -0.4230105118
C   C31       1.0  0.62880  0.81700  0.33300  1.0000 -0.4230105118
C   C32       1.0  0.87120  0.18300  0.83300  1.0000 -0.4230105118
C   C33       1.0  0.36300  0.23000  0.24350  1.0000 -0.1093771668
C   C34       1.0  0.13700  0.77000  0.74350  1.0000 -0.1093771668
C   C35       1.0  0.63700  0.73000  0.25650  1.0000 -0.1093771668
C   C36       1.0  0.86300  0.27000  0.75650  1.0000 -0.1093771668
C   C37       1.0  0.38800  0.14190  0.26510  1.0000 -0.2109864093
C   C38       1.0  0.11200  0.85810  0.76510  1.0000 -0.2109864093
C   C39       1.0  0.61200  0.64190  0.23490  1.0000 -0.2109864093
C   C40       1.0  0.88800  0.35810  0.73490  1.0000 -0.2109864093
C   C41       1.0  0.24000  0.08280  0.24330  1.0000 -0.1201452898
C   C42       1.0  0.26000  0.91720  0.74330  1.0000 -0.1201452898
C   C43       1.0  0.76000  0.58280  0.25670  1.0000 -0.1201452898
C   C44       1.0  0.74000  0.41720  0.75670  1.0000 -0.1201452898
C   C45       1.0  0.24950  0.08340  0.18690  1.0000 -0.2109864093
C   C46       1.0  0.25050  0.91660  0.68690  1.0000 -0.2109864093
C   C47       1.0  0.75050  0.58340  0.31310  1.0000 -0.2109864093
C   C48       1.0  0.74950  0.41660  0.81310  1.0000 -0.2109864093
C   C49       1.0  0.23330  0.17070  0.16410  1.0000 -0.1093771668
C   C50       1.0  0.26670  0.82930  0.66410  1.0000 -0.1093771668
C   C51       1.0  0.76670  0.67070  0.33590  1.0000 -0.1093771668
C   C52       1.0  0.73330  0.32930  0.83590  1.0000 -0.1093771668
C   C53       1.0  0.26580  0.99320  0.26430  1.0000 0.5733466609
C   C54       1.0  0.23420  0.00680  0.76430  1.0000 0.5733466609
C   C55       1.0  0.73420  0.49320  0.23570  1.0000 0.5733466609
C   C56       1.0  0.76580  0.50680  0.73570  1.0000 0.5733466609
N   N1        1.0  0.96500  0.57770  0.93530  1.0000 0.0446117888
N   N2        1.0  0.53500  0.42230  0.43530  1.0000 0.0446117888
N   N3        1.0  0.03500  0.07770  0.56470  1.0000 0.0446117888
N   N4        1.0  0.46500  0.92230  0.06470  1.0000 0.0446117888
N   N5        1.0  0.38100  0.22880  0.18690  1.0000 0.0474017937
N   N6        1.0  0.11900  0.77120  0.68690  1.0000 0.0474017937
N   N7        1.0  0.61900  0.72880  0.31310  1.0000 0.0474017937
N   N8        1.0  0.88100  0.27120  0.81310  1.0000 0.0474017937
Cl  Cl1       1.0  0.40670  0.56220  0.93085  1.0000 -0.6435811655
Cl  Cl2       1.0  0.09330  0.43780  0.43085  1.0000 -0.6435811655
Cl  Cl3       1.0  0.59330  0.06220  0.56915  1.0000 -0.6435811655
Cl  Cl4       1.0  0.90670  0.93780  0.06915  1.0000 -0.6435811655
Cl  Cl5       1.0  0.41800  0.34769  0.95809  1.0000 -0.4787827717
Cl  Cl6       1.0  0.08200  0.65231  0.45809  1.0000 -0.4787827717
Cl  Cl7       1.0  0.58200  0.84769  0.54191  1.0000 -0.4787827717
Cl  Cl8       1.0  0.91800  0.15231  0.04191  1.0000 -0.4787827717
O   O1        1.0  0.08890  0.47040  0.02300  1.0000 -0.7680594858
O   O2        1.0  0.41110  0.52960  0.52300  1.0000 -0.7680594858
O   O3        1.0  0.91110  0.97040  0.47700  1.0000 -0.7680594858
O   O4        1.0  0.58890  0.02960  0.97700  1.0000 -0.7680594858
O   O5        1.0  0.89560  0.34510  0.99290  1.0000 -0.7827550979
O   O6        1.0  0.60440  0.65490  0.49290  1.0000 -0.7827550979
O   O7        1.0  0.10440  0.84510  0.50710  1.0000 -0.7827550979
O   O8        1.0  0.39560  0.15490  0.00710  1.0000 -0.7827550979
O   O9        1.0  0.73160  0.47400  0.02830  1.0000 -0.8040997074
O   O10       1.0  0.76840  0.52600  0.52830  1.0000 -0.8040997074
O   O11       1.0  0.26840  0.97400  0.47170  1.0000 -0.8040997074
O   O12       1.0  0.23160  0.02600  0.97170  1.0000 -0.8040997074
O   O13       1.0  0.12140  0.87280  0.89460  1.0000 -0.5612649011
O   O14       1.0  0.37860  0.12720  0.39460  1.0000 -0.5612649011
O   O15       1.0  0.87860  0.37280  0.60540  1.0000 -0.5612649011
O   O16       1.0  0.62140  0.62720  0.10540  1.0000 -0.5612649011
O   O17       1.0  0.87900  0.90020  0.94400  1.0000 -0.5192181157
O   O18       1.0  0.62100  0.09980  0.44400  1.0000 -0.5192181157
O   O19       1.0  0.12100  0.40020  0.55600  1.0000 -0.5192181157
O   O20       1.0  0.37900  0.59980  0.05600  1.0000 -0.5192181157
O   O21       1.0  0.44080  0.42240  0.09360  1.0000 -0.7680594858
O   O22       1.0  0.05920  0.57760  0.59360  1.0000 -0.7680594858
O   O23       1.0  0.55920  0.92240  0.40640  1.0000 -0.7680594858
O   O24       1.0  0.94080  0.07760  0.90640  1.0000 -0.7680594858
O   O25       1.0  0.21900  0.30200  0.07440  1.0000 -0.7680594858
O   O26       1.0  0.28100  0.69800  0.57440  1.0000 -0.7680594858
O   O27       1.0  0.78100  0.80200  0.42560  1.0000 -0.7680594858
O   O28       1.0  0.71900  0.19800  0.92560  1.0000 -0.7680594858
O   O29       1.0  0.57470  0.27550  0.08270  1.0000 -0.7827550979
O   O30       1.0  0.92530  0.72450  0.58270  1.0000 -0.7827550979
O   O31       1.0  0.42530  0.77550  0.41730  1.0000 -0.7827550979
O   O32       1.0  0.07470  0.22450  0.91730  1.0000 -0.7827550979
O   O33       1.0  0.34350  0.98340  0.30460  1.0000 -0.5775877373
O   O34       1.0  0.15650  0.01660  0.80460  1.0000 -0.5775877373
O   O35       1.0  0.65650  0.48340  0.19540  1.0000 -0.5775877373
O   O36       1.0  0.84350  0.51660  0.69540  1.0000 -0.5775877373
O   O37       1.0  0.18280  0.93630  0.23960  1.0000 -0.6195943789
O   O38       1.0  0.31720  0.06370  0.73960  1.0000 -0.6195943789
O   O39       1.0  0.81720  0.43630  0.26040  1.0000 -0.6195943789
O   O40       1.0  0.68280  0.56370  0.76040  1.0000 -0.6195943789
