# DDEC6 charges by PACMAN v1.1 (https://github.com/mtap-research/PACMAN-charge/)
data_2009[Ni][pcu]3[ASR]1
_chemical_formula_sum              "Ni8 H124 C156 N32 O24"
_cell_length_a       17.98
_cell_length_b       11.711
_cell_length_c       19.921
_cell_angle_alpha    90
_cell_angle_beta     110.97
_cell_angle_gamma    90

_symmetry_space_group_name_H-M    "P 1"
_symmetry_Int_Tables_number       1

loop_
  _symmetry_equiv_pos_as_xyz
  'x, y, z'

loop_
  _atom_site_type_symbol
  _atom_site_label
  _atom_site_symmetry_multiplicity
  _atom_site_fract_x
  _atom_site_fract_y
  _atom_site_fract_z
  _atom_site_occupancy
  _atom_site_charge
Ni  Ni1       1.0  0.51308  0.81600  0.75097  1.0000 0.7653100338
Ni  Ni2       1.0  0.48692  0.31600  0.74903  1.0000 0.7648011294
Ni  Ni3       1.0  0.48692  0.18400  0.24903  1.0000 0.7653100338
Ni  Ni4       1.0  0.51308  0.68400  0.25097  1.0000 0.7648011294
Ni  Ni5       1.0  0.50385  0.60937  0.55274  1.0000 0.701431438
Ni  Ni6       1.0  0.49615  0.10937  0.94726  1.0000 0.701431438
Ni  Ni7       1.0  0.49615  0.39063  0.44726  1.0000 0.701431438
Ni  Ni8       1.0  0.50385  0.89063  0.05274  1.0000 0.701431438
H   H1        1.0  0.01100  0.66630  0.83320  1.0000 0.1102617927
H   H2        1.0  0.98900  0.16630  0.66680  1.0000 0.1102617927
H   H3        1.0  0.98900  0.33370  0.16680  1.0000 0.1102617927
H   H4        1.0  0.01100  0.83370  0.33320  1.0000 0.1102617927
H   H5        1.0  0.01710  0.75350  0.49940  1.0000 0.1012816128
H   H6        1.0  0.98290  0.25350  0.00060  1.0000 0.1012816128
H   H7        1.0  0.98290  0.24650  0.50060  1.0000 0.1012816128
H   H8        1.0  0.01710  0.74650  0.99940  1.0000 0.1012816128
H   H9        1.0  0.50670  0.79110  0.90570  1.0000 0.1102617927
H   H10       1.0  0.49330  0.29110  0.59430  1.0000 0.1102617927
H   H11       1.0  0.49330  0.20890  0.09430  1.0000 0.1102617927
H   H12       1.0  0.50670  0.70890  0.40570  1.0000 0.1102617927
H   H13       1.0  0.51980  0.89100  0.60860  1.0000 0.1102617927
H   H14       1.0  0.48020  0.39100  0.89140  1.0000 0.1102617927
H   H15       1.0  0.48020  0.10900  0.39140  1.0000 0.1102617927
H   H16       1.0  0.51980  0.60900  0.10860  1.0000 0.1102617927
H   H17       1.0  0.52080  0.57390  0.73580  1.0000 0.1102617927
H   H18       1.0  0.47920  0.07390  0.76420  1.0000 0.1102617927
H   H19       1.0  0.47920  0.42610  0.26420  1.0000 0.1102617927
H   H20       1.0  0.52080  0.92610  0.23580  1.0000 0.1102617927
H   H21       1.0  0.66840  0.63990  0.52950  1.0000 0.1102617927
H   H22       1.0  0.33160  0.13990  0.97050  1.0000 0.1102617927
H   H23       1.0  0.33160  0.36010  0.47050  1.0000 0.1102617927
H   H24       1.0  0.66840  0.86010  0.02950  1.0000 0.1102617927
H   H25       1.0  0.64110  0.52860  0.70440  1.0000 0.1182371994
H   H26       1.0  0.35890  0.02860  0.79560  1.0000 0.1182371994
H   H27       1.0  0.35890  0.47140  0.29560  1.0000 0.1182371994
H   H28       1.0  0.64110  0.97140  0.20440  1.0000 0.1182371994
H   H29       1.0  0.78480  0.51790  0.72430  1.0000 0.1102617927
H   H30       1.0  0.21520  0.01790  0.77570  1.0000 0.1102617927
H   H31       1.0  0.21520  0.48210  0.27570  1.0000 0.1102617927
H   H32       1.0  0.78480  0.98210  0.22430  1.0000 0.1102617927
H   H33       1.0  0.79610  0.73010  0.54300  1.0000 0.1182371994
H   H34       1.0  0.20390  0.23010  0.95700  1.0000 0.1182371994
H   H35       1.0  0.20390  0.26990  0.45700  1.0000 0.1182371994
H   H36       1.0  0.79610  0.76990  0.04300  1.0000 0.1182371994
H   H37       1.0  0.91250  0.73890  0.51680  1.0000 0.1012816128
H   H38       1.0  0.08750  0.23890  0.98320  1.0000 0.1012816128
H   H39       1.0  0.08750  0.26110  0.48320  1.0000 0.1012816128
H   H40       1.0  0.91250  0.76110  0.01680  1.0000 0.1012816128
H   H41       1.0  0.99890  0.47080  0.64470  1.0000 0.1012816128
H   H42       1.0  0.00110  0.97080  0.85530  1.0000 0.1012816128
H   H43       1.0  0.00110  0.52920  0.35530  1.0000 0.1012816128
H   H44       1.0  0.99890  0.02920  0.14470  1.0000 0.1012816128
H   H45       1.0  0.88160  0.45970  0.66940  1.0000 0.1102617927
H   H46       1.0  0.11840  0.95970  0.83060  1.0000 0.1102617927
H   H47       1.0  0.11840  0.54030  0.33060  1.0000 0.1102617927
H   H48       1.0  0.88160  0.04030  0.16940  1.0000 0.1102617927
H   H49       1.0  0.10360  0.47980  0.62160  1.0000 0.1012816128
H   H50       1.0  0.89640  0.97980  0.87840  1.0000 0.1012816128
H   H51       1.0  0.89640  0.52020  0.37840  1.0000 0.1012816128
H   H52       1.0  0.10360  0.02020  0.12160  1.0000 0.1012816128
H   H53       1.0  0.34570  0.56440  0.59370  1.0000 0.1182371994
H   H54       1.0  0.65430  0.06440  0.90630  1.0000 0.1182371994
H   H55       1.0  0.65430  0.43560  0.40630  1.0000 0.1182371994
H   H56       1.0  0.34570  0.93560  0.09370  1.0000 0.1182371994
H   H57       1.0  0.35960  0.72430  0.42610  1.0000 0.1182371994
H   H58       1.0  0.64040  0.22430  0.07390  1.0000 0.1182371994
H   H59       1.0  0.64040  0.27570  0.57390  1.0000 0.1182371994
H   H60       1.0  0.35960  0.77570  0.92610  1.0000 0.1182371994
H   H61       1.0  0.22110  0.73250  0.41820  1.0000 0.1182371994
H   H62       1.0  0.77890  0.23250  0.08180  1.0000 0.1182371994
H   H63       1.0  0.77890  0.26750  0.58180  1.0000 0.1182371994
H   H64       1.0  0.22110  0.76750  0.91820  1.0000 0.1182371994
H   H65       1.0  0.13290  0.76990  0.47730  1.0000 0.1102617927
H   H66       1.0  0.86710  0.26990  0.02270  1.0000 0.1102617927
H   H67       1.0  0.86710  0.23010  0.52270  1.0000 0.1102617927
H   H68       1.0  0.13290  0.73010  0.97730  1.0000 0.1102617927
H   H69       1.0  0.21830  0.49210  0.59590  1.0000 0.1182371994
H   H70       1.0  0.78170  0.99210  0.90410  1.0000 0.1182371994
H   H71       1.0  0.78170  0.50790  0.40410  1.0000 0.1182371994
H   H72       1.0  0.21830  0.00790  0.09590  1.0000 0.1182371994
H   H73       1.0  0.67880  0.85350  0.72420  1.0000 0.1182371994
H   H74       1.0  0.32120  0.35350  0.77580  1.0000 0.1182371994
H   H75       1.0  0.32120  0.14650  0.27580  1.0000 0.1182371994
H   H76       1.0  0.67880  0.64650  0.22420  1.0000 0.1182371994
H   H77       1.0  0.65300  0.69760  0.88930  1.0000 0.1102617927
H   H78       1.0  0.34700  0.19760  0.61070  1.0000 0.1182371994
H   H79       1.0  0.34700  0.30240  0.11070  1.0000 0.1182371994
H   H80       1.0  0.65300  0.80240  0.38930  1.0000 0.1182371994
H   H81       1.0  0.79280  0.67750  0.90200  1.0000 0.1182371994
H   H82       1.0  0.20720  0.17750  0.59800  1.0000 0.1182371994
H   H83       1.0  0.20720  0.32250  0.09800  1.0000 0.1182371994
H   H84       1.0  0.79280  0.82250  0.40200  1.0000 0.1182371994
H   H85       1.0  0.90040  0.66520  0.86550  1.0000 0.1102617927
H   H86       1.0  0.09960  0.16520  0.63450  1.0000 0.1102617927
H   H87       1.0  0.09960  0.33480  0.13450  1.0000 0.1102617927
H   H88       1.0  0.90040  0.83480  0.36550  1.0000 0.1102617927
H   H89       1.0  0.79310  0.88770  0.70670  1.0000 0.1182371994
H   H90       1.0  0.20690  0.38770  0.79330  1.0000 0.1182371994
H   H91       1.0  0.20690  0.11230  0.29330  1.0000 0.1182371994
H   H92       1.0  0.79310  0.61230  0.20670  1.0000 0.1182371994
H   H93       1.0  0.34600  0.74960  0.77050  1.0000 0.1102617927
H   H94       1.0  0.65400  0.24960  0.72950  1.0000 0.1102617927
H   H95       1.0  0.65400  0.25040  0.22950  1.0000 0.1102617927
H   H96       1.0  0.34600  0.75040  0.27050  1.0000 0.1102617927
H   H97       1.0  0.36980  0.92790  0.61250  1.0000 0.1182371994
H   H98       1.0  0.63020  0.42790  0.88750  1.0000 0.1182371994
H   H99       1.0  0.63020  0.07210  0.38750  1.0000 0.1182371994
H   H100      1.0  0.36980  0.57210  0.11250  1.0000 0.1182371994
H   H101      1.0  0.22880  0.92780  0.59420  1.0000 0.1182371994
H   H102      1.0  0.77120  0.42780  0.90580  1.0000 0.1182371994
H   H103      1.0  0.77120  0.07220  0.40580  1.0000 0.1182371994
H   H104      1.0  0.22880  0.57220  0.09420  1.0000 0.1182371994
H   H105      1.0  0.22450  0.67660  0.77050  1.0000 0.1182371994
H   H106      1.0  0.77550  0.17660  0.72950  1.0000 0.1182371994
H   H107      1.0  0.77550  0.32340  0.22950  1.0000 0.1182371994
H   H108      1.0  0.22450  0.82340  0.27050  1.0000 0.1182371994
H   H109      1.0  0.10860  0.65850  0.79470  1.0000 0.1102617927
H   H110      1.0  0.89140  0.15850  0.70530  1.0000 0.1102617927
H   H111      1.0  0.89140  0.34150  0.20530  1.0000 0.1102617927
H   H112      1.0  0.10860  0.84150  0.29470  1.0000 0.1102617927
H   H113      1.0  0.01050  0.91680  0.66140  1.0000 0.1102617927
H   H114      1.0  0.98950  0.41680  0.83860  1.0000 0.1102617927
H   H115      1.0  0.98950  0.08320  0.33860  1.0000 0.1102617927
H   H116      1.0  0.01050  0.58320  0.16140  1.0000 0.1102617927
H   H117      1.0  0.12480  0.93590  0.63520  1.0000 0.1102617927
H   H118      1.0  0.87520  0.43590  0.86480  1.0000 0.1102617927
H   H119      1.0  0.87520  0.06410  0.36480  1.0000 0.1102617927
H   H120      1.0  0.12480  0.56410  0.13520  1.0000 0.1102617927
H   H121      1.0  0.90590  0.89330  0.67930  1.0000 0.1102617927
H   H122      1.0  0.09410  0.39330  0.82070  1.0000 0.1102617927
H   H123      1.0  0.09410  0.10670  0.32070  1.0000 0.1102617927
H   H124      1.0  0.90590  0.60670  0.17930  1.0000 0.1102617927
C   C1        1.0  0.97260  0.78070  0.75130  1.0000 0.0535116812
C   C2        1.0  0.02740  0.28070  0.74870  1.0000 0.0535116812
C   C3        1.0  0.02740  0.21930  0.24870  1.0000 0.0535116812
C   C4        1.0  0.97260  0.71930  0.25130  1.0000 0.0535116812
C   C5        1.0  0.96770  0.71200  0.80790  1.0000 -0.140235045
C   C6        1.0  0.03230  0.21200  0.69210  1.0000 -0.140235045
C   C7        1.0  0.03230  0.28800  0.19210  1.0000 -0.140235045
C   C8        1.0  0.96770  0.78800  0.30790  1.0000 -0.140235045
C   C9        1.0  0.04510  0.61560  0.56340  1.0000 0.0684658733
C   C10       1.0  0.95490  0.11560  0.93660  1.0000 0.0684658733
C   C11       1.0  0.95490  0.38440  0.43660  1.0000 0.0684658733
C   C12       1.0  0.04510  0.88440  0.06340  1.0000 0.0684658733
C   C13       1.0  0.05740  0.70060  0.51990  1.0000 -0.140235045
C   C14       1.0  0.94260  0.20060  0.98010  1.0000 -0.140235045
C   C15       1.0  0.94260  0.29940  0.48010  1.0000 -0.140235045
C   C16       1.0  0.05740  0.79940  0.01990  1.0000 -0.140235045
C   C17       1.0  0.50940  0.86970  0.90010  1.0000 0.4262204465
C   C18       1.0  0.49060  0.36970  0.59990  1.0000 0.4262204465
C   C19       1.0  0.49060  0.13030  0.09990  1.0000 0.4262204465
C   C20       1.0  0.50940  0.63030  0.40010  1.0000 0.4262204465
C   C21       1.0  0.51640  0.81280  0.59970  1.0000 0.399289183
C   C22       1.0  0.48360  0.31280  0.90030  1.0000 0.399289183
C   C23       1.0  0.48360  0.18720  0.40030  1.0000 0.399289183
C   C24       1.0  0.51640  0.68720  0.09970  1.0000 0.399289183
C   C25       1.0  0.49600  0.57710  0.76940  1.0000 0.4426880923
C   C26       1.0  0.50400  0.07710  0.73060  1.0000 0.4426880923
C   C27       1.0  0.50400  0.42290  0.23060  1.0000 0.4426880923
C   C28       1.0  0.49600  0.92290  0.26940  1.0000 0.4426880923
C   C29       1.0  0.67940  0.61120  0.57560  1.0000 0.1012816128
C   C30       1.0  0.32060  0.11120  0.92440  1.0000 0.1012816128
C   C31       1.0  0.32060  0.38880  0.42440  1.0000 0.1012816128
C   C32       1.0  0.67940  0.88880  0.07560  1.0000 0.1012816128
C   C33       1.0  0.66460  0.54970  0.67150  1.0000 -0.0290837198
C   C34       1.0  0.33540  0.04970  0.82850  1.0000 -0.0290837198
C   C35       1.0  0.33540  0.45030  0.32850  1.0000 -0.0290837198
C   C36       1.0  0.66460  0.95030  0.17150  1.0000 -0.0290837198
C   C37       1.0  0.74460  0.54400  0.68310  1.0000 -0.1172482512
C   C38       1.0  0.25540  0.04400  0.81690  1.0000 -0.1172482512
C   C39       1.0  0.25540  0.45600  0.31690  1.0000 -0.1172482512
C   C40       1.0  0.74460  0.95600  0.18310  1.0000 -0.1172482512
C   C41       1.0  0.82650  0.59130  0.60630  1.0000 0.1483410295
C   C42       1.0  0.17350  0.09130  0.89370  1.0000 0.1483410295
C   C43       1.0  0.17350  0.40870  0.39370  1.0000 0.1483410295
C   C44       1.0  0.82650  0.90870  0.10630  1.0000 0.1483410295
C   C45       1.0  0.83620  0.67660  0.56270  1.0000 -0.206901532
C   C46       1.0  0.16380  0.17660  0.93730  1.0000 -0.206901532
C   C47       1.0  0.16380  0.32340  0.43730  1.0000 -0.206901532
C   C48       1.0  0.83620  0.82340  0.06270  1.0000 -0.206901532
C   C49       1.0  0.90720  0.68280  0.54780  1.0000 -0.1460058767
C   C50       1.0  0.09280  0.18280  0.95220  1.0000 -0.1460058767
C   C51       1.0  0.09280  0.31720  0.45220  1.0000 -0.1460058767
C   C52       1.0  0.90720  0.81720  0.04780  1.0000 -0.1460058767
C   C53       1.0  0.96970  0.60620  0.57900  1.0000 0.0620174293
C   C54       1.0  0.03030  0.10620  0.92100  1.0000 0.0620174293
C   C55       1.0  0.03030  0.39380  0.42100  1.0000 0.0620174293
C   C56       1.0  0.96970  0.89380  0.07900  1.0000 0.0620174293
C   C57       1.0  0.95840  0.52330  0.62360  1.0000 -0.1304057776
C   C58       1.0  0.04160  0.02330  0.87640  1.0000 -0.1304057776
C   C59       1.0  0.04160  0.47670  0.37640  1.0000 -0.1304057776
C   C60       1.0  0.95840  0.97670  0.12360  1.0000 -0.1304057776
C   C61       1.0  0.88720  0.51550  0.63830  1.0000 -0.200419281
C   C62       1.0  0.11280  0.01550  0.86170  1.0000 -0.200419281
C   C63       1.0  0.11280  0.48450  0.36170  1.0000 -0.200419281
C   C64       1.0  0.88720  0.98450  0.13830  1.0000 -0.200419281
C   C65       1.0  0.10840  0.53800  0.59170  1.0000 -0.140235045
C   C66       1.0  0.89160  0.03800  0.90830  1.0000 -0.140235045
C   C67       1.0  0.89160  0.46200  0.40830  1.0000 -0.140235045
C   C68       1.0  0.10840  0.96200  0.09170  1.0000 -0.140235045
C   C69       1.0  0.33210  0.60480  0.55080  1.0000 0.1102617927
C   C70       1.0  0.66790  0.10480  0.94920  1.0000 0.1102617927
C   C71       1.0  0.66790  0.39520  0.44920  1.0000 0.1102617927
C   C72       1.0  0.33210  0.89520  0.05080  1.0000 0.1102617927
C   C73       1.0  0.33950  0.69230  0.45880  1.0000 -0.0404154866
C   C74       1.0  0.66050  0.19230  0.04120  1.0000 -0.0404154866
C   C75       1.0  0.66050  0.30770  0.54120  1.0000 -0.0404154866
C   C76       1.0  0.33950  0.80770  0.95880  1.0000 -0.0404154866
C   C77       1.0  0.26300  0.69780  0.45450  1.0000 -0.111312494
C   C78       1.0  0.73700  0.19780  0.04550  1.0000 -0.111312494
C   C79       1.0  0.73700  0.30220  0.54550  1.0000 -0.111312494
C   C80       1.0  0.26300  0.80220  0.95450  1.0000 -0.111312494
C   C81       1.0  0.18670  0.63240  0.53290  1.0000 0.1427831945
C   C82       1.0  0.81330  0.13240  0.96710  1.0000 0.1427831945
C   C83       1.0  0.81330  0.36760  0.46710  1.0000 0.1427831945
C   C84       1.0  0.18670  0.86760  0.03290  1.0000 0.1427831945
C   C85       1.0  0.12680  0.71020  0.50560  1.0000 -0.1924423131
C   C86       1.0  0.87320  0.21020  0.99440  1.0000 -0.1924423131
C   C87       1.0  0.87320  0.28980  0.49440  1.0000 -0.1924423131
C   C88       1.0  0.12680  0.78980  0.00560  1.0000 -0.1924423131
C   C89       1.0  0.17790  0.54530  0.57670  1.0000 -0.1924423131
C   C90       1.0  0.82210  0.04530  0.92330  1.0000 -0.1924423131
C   C91       1.0  0.82210  0.45470  0.42330  1.0000 -0.1924423131
C   C92       1.0  0.17790  0.95470  0.07670  1.0000 -0.1924423131
C   C93       1.0  0.68970  0.81270  0.76670  1.0000 0.0864277106
C   C94       1.0  0.31030  0.31270  0.73330  1.0000 0.0864277106
C   C95       1.0  0.31030  0.18730  0.23330  1.0000 0.0864277106
C   C96       1.0  0.68970  0.68730  0.26670  1.0000 0.0864277106
C   C97       1.0  0.67570  0.72660  0.85770  1.0000 -0.0491324126
C   C98       1.0  0.32430  0.22660  0.64230  1.0000 -0.0491324126
C   C99       1.0  0.32430  0.27340  0.14230  1.0000 -0.0491324126
C   C100      1.0  0.67570  0.77340  0.35770  1.0000 -0.0491324126
C   C101      1.0  0.75350  0.71530  0.86500  1.0000 -0.1304057776
C   C102      1.0  0.24650  0.21530  0.63500  1.0000 -0.1304057776
C   C103      1.0  0.24650  0.28470  0.13500  1.0000 -0.1172482512
C   C104      1.0  0.75350  0.78470  0.36500  1.0000 -0.1304057776
C   C105      1.0  0.83360  0.77580  0.78910  1.0000 0.160868473
C   C106      1.0  0.16640  0.27580  0.71090  1.0000 0.160868473
C   C107      1.0  0.16640  0.22420  0.21090  1.0000 0.160868473
C   C108      1.0  0.83360  0.72420  0.28910  1.0000 0.160868473
C   C109      1.0  0.90070  0.71020  0.82710  1.0000 -0.200419281
C   C110      1.0  0.09930  0.21020  0.67290  1.0000 -0.200419281
C   C111      1.0  0.09930  0.28980  0.17290  1.0000 -0.200419281
C   C112      1.0  0.90070  0.78980  0.32710  1.0000 -0.200419281
C   C113      1.0  0.83690  0.84360  0.73300  1.0000 -0.200419281
C   C114      1.0  0.16310  0.34360  0.76700  1.0000 -0.200419281
C   C115      1.0  0.16310  0.15640  0.26700  1.0000 -0.200419281
C   C116      1.0  0.83690  0.65640  0.23300  1.0000 -0.200419281
C   C117      1.0  0.33490  0.79420  0.72950  1.0000 0.0788438577
C   C118      1.0  0.66510  0.29420  0.77050  1.0000 0.0788438577
C   C119      1.0  0.66510  0.20580  0.27050  1.0000 0.0788438577
C   C120      1.0  0.33490  0.70580  0.22950  1.0000 0.0788438577
C   C121      1.0  0.34730  0.89280  0.64250  1.0000 -0.0404154866
C   C122      1.0  0.65270  0.39280  0.85750  1.0000 -0.0404154866
C   C123      1.0  0.65270  0.10720  0.35750  1.0000 -0.0404154866
C   C124      1.0  0.34730  0.60720  0.14250  1.0000 -0.0404154866
C   C125      1.0  0.26900  0.89220  0.63140  1.0000 -0.1172482512
C   C126      1.0  0.73100  0.39220  0.86860  1.0000 -0.1172482512
C   C127      1.0  0.73100  0.10780  0.36860  1.0000 -0.111312494
C   C128      1.0  0.26900  0.60780  0.13140  1.0000 -0.111312494
C   C129      1.0  0.18750  0.81040  0.70110  1.0000 0.160868473
C   C130      1.0  0.81250  0.31040  0.79890  1.0000 0.160868473
C   C131      1.0  0.81250  0.18960  0.29890  1.0000 0.160868473
C   C132      1.0  0.18750  0.68960  0.20110  1.0000 0.160868473
C   C133      1.0  0.18190  0.72550  0.74870  1.0000 -0.206901532
C   C134      1.0  0.81810  0.22550  0.75130  1.0000 -0.206901532
C   C135      1.0  0.81810  0.27450  0.25130  1.0000 -0.206901532
C   C136      1.0  0.18190  0.77450  0.24870  1.0000 -0.206901532
C   C137      1.0  0.11180  0.71510  0.76310  1.0000 -0.140235045
C   C138      1.0  0.88820  0.21510  0.73690  1.0000 -0.140235045
C   C139      1.0  0.88820  0.28490  0.23690  1.0000 -0.140235045
C   C140      1.0  0.11180  0.78490  0.26310  1.0000 -0.140235045
C   C141      1.0  0.04610  0.78620  0.73190  1.0000 0.0535116812
C   C142      1.0  0.95390  0.28620  0.76810  1.0000 0.0535116812
C   C143      1.0  0.95390  0.21380  0.26810  1.0000 0.0535116812
C   C144      1.0  0.04610  0.71380  0.23190  1.0000 0.0535116812
C   C145      1.0  0.05330  0.86850  0.68370  1.0000 -0.140235045
C   C146      1.0  0.94670  0.36850  0.81630  1.0000 -0.140235045
C   C147      1.0  0.94670  0.13150  0.31630  1.0000 -0.140235045
C   C148      1.0  0.05330  0.63150  0.18370  1.0000 -0.140235045
C   C149      1.0  0.12230  0.88070  0.66790  1.0000 -0.200419281
C   C150      1.0  0.87770  0.38070  0.83210  1.0000 -0.200419281
C   C151      1.0  0.87770  0.11930  0.33210  1.0000 -0.200419281
C   C152      1.0  0.12230  0.61930  0.16790  1.0000 -0.200419281
C   C153      1.0  0.90510  0.84560  0.71630  1.0000 -0.140235045
C   C154      1.0  0.09490  0.34560  0.78370  1.0000 -0.140235045
C   C155      1.0  0.09490  0.15440  0.28370  1.0000 -0.140235045
C   C156      1.0  0.90510  0.65440  0.21630  1.0000 -0.140235045
N   N1        1.0  0.62490  0.59170  0.60370  1.0000 -0.2692083272
N   N2        1.0  0.37510  0.09170  0.89630  1.0000 -0.2692083272
N   N3        1.0  0.37510  0.40830  0.39630  1.0000 -0.2692083272
N   N4        1.0  0.62490  0.90830  0.10370  1.0000 -0.2692083272
N   N5        1.0  0.75350  0.58470  0.62130  1.0000 -0.0081620831
N   N6        1.0  0.24650  0.08470  0.87870  1.0000 -0.0081620831
N   N7        1.0  0.24650  0.41530  0.37870  1.0000 -0.0081620831
N   N8        1.0  0.75350  0.91530  0.12130  1.0000 -0.0081620831
N   N9        1.0  0.38330  0.63110  0.51980  1.0000 -0.2823386791
N   N10       1.0  0.61670  0.13110  0.98020  1.0000 -0.2823386791
N   N11       1.0  0.61670  0.36890  0.48020  1.0000 -0.2823386791
N   N12       1.0  0.38330  0.86890  0.01980  1.0000 -0.2823386791
N   N13       1.0  0.25840  0.64220  0.51430  1.0000 -0.0081620831
N   N14       1.0  0.74160  0.14220  0.98570  1.0000 -0.0081620831
N   N15       1.0  0.74160  0.35780  0.48570  1.0000 -0.0081620831
N   N16       1.0  0.25840  0.85780  0.01430  1.0000 -0.0081620831
N   N17       1.0  0.63570  0.78780  0.79610  1.0000 -0.2823386791
N   N18       1.0  0.36430  0.28780  0.70390  1.0000 -0.2823386791
N   N19       1.0  0.36430  0.21220  0.20390  1.0000 -0.2823386791
N   N20       1.0  0.63570  0.71220  0.29610  1.0000 -0.2823386791
N   N21       1.0  0.76350  0.77050  0.80710  1.0000 -0.0081620831
N   N22       1.0  0.23650  0.27050  0.69290  1.0000 -0.0081620831
N   N23       1.0  0.23650  0.22950  0.19290  1.0000 -0.0081620831
N   N24       1.0  0.76350  0.72950  0.30710  1.0000 -0.0081620831
N   N25       1.0  0.39020  0.83370  0.70520  1.0000 -0.2972027812
N   N26       1.0  0.60980  0.33370  0.79480  1.0000 -0.2972027812
N   N27       1.0  0.60980  0.16630  0.29480  1.0000 -0.2972027812
N   N28       1.0  0.39020  0.66630  0.20520  1.0000 -0.2972027812
N   N29       1.0  0.26020  0.82720  0.68700  1.0000 -0.0081620831
N   N30       1.0  0.73980  0.32720  0.81300  1.0000 -0.0081620831
N   N31       1.0  0.73980  0.17280  0.31300  1.0000 -0.0081620831
N   N32       1.0  0.26020  0.67280  0.18700  1.0000 -0.0081620831
O   O1        1.0  0.51640  0.78080  0.54280  1.0000 -0.4256988469
O   O2        1.0  0.48360  0.28080  0.95720  1.0000 -0.4256988469
O   O3        1.0  0.48360  0.21920  0.45720  1.0000 -0.4256988469
O   O4        1.0  0.51640  0.71920  0.04280  1.0000 -0.4256988469
O   O5        1.0  0.49160  0.66667  0.79410  1.0000 -0.4076953086
O   O6        1.0  0.50840  0.16667  0.70590  1.0000 -0.4076953086
O   O7        1.0  0.50840  0.33333  0.20590  1.0000 -0.4076953086
O   O8        1.0  0.49160  0.83333  0.29410  1.0000 -0.4076953086
O   O9        1.0  0.50780  0.93110  0.95120  1.0000 -0.48926276
O   O10       1.0  0.49220  0.43110  0.54880  1.0000 -0.48926276
O   O11       1.0  0.49220  0.06890  0.04880  1.0000 -0.48926276
O   O12       1.0  0.50780  0.56890  0.45120  1.0000 -0.48926276
O   O13       1.0  0.51410  0.90380  0.84310  1.0000 -0.48926276
O   O14       1.0  0.48590  0.40380  0.65690  1.0000 -0.48926276
O   O15       1.0  0.48590  0.09620  0.15690  1.0000 -0.48926276
O   O16       1.0  0.51410  0.59620  0.34310  1.0000 -0.48926276
O   O17       1.0  0.46810  0.47920  0.78570  1.0000 -0.5441860858
O   O18       1.0  0.53190  0.97920  0.71430  1.0000 -0.5441860858
O   O19       1.0  0.53190  0.52080  0.21430  1.0000 -0.5441860858
O   O20       1.0  0.46810  0.02080  0.28570  1.0000 -0.5441860858
O   O21       1.0  0.51160  0.74300  0.65190  1.0000 -0.5787149224
O   O22       1.0  0.48840  0.24300  0.84810  1.0000 -0.5787149224
O   O23       1.0  0.48840  0.25700  0.34810  1.0000 -0.5787149224
O   O24       1.0  0.51160  0.75700  0.15190  1.0000 -0.5787149224
