# DDEC6 charges by PACMAN v1.1 (https://github.com/mtap-research/PACMAN-charge/)
data_2009[Zn][nan]3[ASR]3
_chemical_formula_sum              "Zn8 H48 C68 N16 O32"
_cell_length_a       12.125
_cell_length_b       13.8332
_cell_length_c       21.6436
_cell_angle_alpha    90
_cell_angle_beta     90
_cell_angle_gamma    90

_symmetry_space_group_name_H-M    "P 1"
_symmetry_Int_Tables_number       1

loop_
  _symmetry_equiv_pos_as_xyz
  'x, y, z'

loop_
  _atom_site_type_symbol
  _atom_site_label
  _atom_site_symmetry_multiplicity
  _atom_site_fract_x
  _atom_site_fract_y
  _atom_site_fract_z
  _atom_site_occupancy
  _atom_site_charge
Zn  Zn1       1.0  0.75154  0.07486  0.75594  1.0000 0.7834671255
Zn  Zn2       1.0  0.75154  0.92514  0.24406  1.0000 0.7850170761
Zn  Zn3       1.0  0.24846  0.42514  0.25594  1.0000 0.7834671255
Zn  Zn4       1.0  0.24846  0.57486  0.74406  1.0000 0.7834671255
Zn  Zn5       1.0  0.76621  0.56766  0.87421  1.0000 0.7834671255
Zn  Zn6       1.0  0.76621  0.43234  0.12579  1.0000 0.7834671255
Zn  Zn7       1.0  0.23379  0.93234  0.37421  1.0000 0.7834671255
Zn  Zn8       1.0  0.23379  0.06766  0.62579  1.0000 0.7834671255
H   H1        1.0  0.76900  0.28110  0.78920  1.0000 0.1109371939
H   H2        1.0  0.76900  0.71890  0.21080  1.0000 0.1109371939
H   H3        1.0  0.23100  0.21890  0.28920  1.0000 0.1109371939
H   H4        1.0  0.23100  0.78110  0.71080  1.0000 0.1109371939
H   H5        1.0  0.05700  0.28180  0.65560  1.0000 0.1408289552
H   H6        1.0  0.05700  0.71820  0.34440  1.0000 0.1408289552
H   H7        1.0  0.94300  0.21820  0.15560  1.0000 0.1408289552
H   H8        1.0  0.94300  0.78180  0.84440  1.0000 0.1408289552
H   H9        1.0  0.95880  0.14280  0.67650  1.0000 0.1196489861
H   H10       1.0  0.95880  0.85720  0.32350  1.0000 0.1196489861
H   H11       1.0  0.04120  0.35720  0.17650  1.0000 0.1196489861
H   H12       1.0  0.04120  0.64280  0.82350  1.0000 0.1196489861
H   H13       1.0  0.74850  0.87020  0.80800  1.0000 0.1109371939
H   H14       1.0  0.74850  0.12980  0.19200  1.0000 0.1109371939
H   H15       1.0  0.25150  0.62980  0.30800  1.0000 0.1109371939
H   H16       1.0  0.25150  0.37020  0.69200  1.0000 0.1109371939
H   H17       1.0  0.39170  0.88640  0.74500  1.0000 0.1408289552
H   H18       1.0  0.39170  0.11360  0.25500  1.0000 0.1408289552
H   H19       1.0  0.60830  0.61360  0.24500  1.0000 0.1408289552
H   H20       1.0  0.60830  0.38640  0.75500  1.0000 0.1408289552
H   H21       1.0  0.50650  0.01440  0.73480  1.0000 0.1196489861
H   H22       1.0  0.50650  0.98560  0.26520  1.0000 0.1196489861
H   H23       1.0  0.49350  0.48560  0.23480  1.0000 0.1196489861
H   H24       1.0  0.49350  0.51440  0.76520  1.0000 0.1196489861
H   H25       1.0  0.62850  0.39570  0.91450  1.0000 0.1109371939
H   H26       1.0  0.62850  0.60430  0.08550  1.0000 0.1109371939
H   H27       1.0  0.37150  0.10430  0.41450  1.0000 0.1109371939
H   H28       1.0  0.37150  0.89570  0.58550  1.0000 0.1109371939
H   H29       1.0  0.53670  0.46960  0.89490  1.0000 0.1196489861
H   H30       1.0  0.53670  0.53040  0.10510  1.0000 0.1196489861
H   H31       1.0  0.46330  0.03040  0.39490  1.0000 0.1196489861
H   H32       1.0  0.46330  0.96960  0.60510  1.0000 0.1196489861
H   H33       1.0  0.39970  0.48150  0.03420  1.0000 0.1109371939
H   H34       1.0  0.39970  0.51850  0.96580  1.0000 0.1109371939
H   H35       1.0  0.60030  0.01850  0.53420  1.0000 0.1109371939
H   H36       1.0  0.60030  0.98150  0.46580  1.0000 0.1109371939
H   H37       1.0  0.62780  0.66790  0.98120  1.0000 0.1109371939
H   H38       1.0  0.62780  0.33210  0.01880  1.0000 0.1109371939
H   H39       1.0  0.37220  0.83210  0.48120  1.0000 0.1109371939
H   H40       1.0  0.37220  0.16790  0.51880  1.0000 0.1109371939
H   H41       1.0  0.53640  0.63580  0.93400  1.0000 0.1109371939
H   H42       1.0  0.53640  0.36420  0.06600  1.0000 0.1109371939
H   H43       1.0  0.46360  0.86420  0.43400  1.0000 0.1109371939
H   H44       1.0  0.46360  0.13580  0.56600  1.0000 0.1109371939
H   H45       1.0  0.76950  0.44670  0.98780  1.0000 0.1109371939
H   H46       1.0  0.76950  0.55330  0.01220  1.0000 0.1109371939
H   H47       1.0  0.23050  0.05330  0.48780  1.0000 0.1109371939
H   H48       1.0  0.23050  0.94670  0.51220  1.0000 0.1109371939
C   C1        1.0  0.82930  0.28120  0.76260  1.0000 0.0626379896
C   C2        1.0  0.82930  0.71880  0.23740  1.0000 0.0626379896
C   C3        1.0  0.17070  0.21880  0.26260  1.0000 0.0626379896
C   C4        1.0  0.17070  0.78120  0.73740  1.0000 0.0626379896
C   C5        1.0  0.88630  0.36780  0.75560  1.0000 -0.0911879621
C   C6        1.0  0.88630  0.63220  0.24440  1.0000 -0.0911879621
C   C7        1.0  0.11370  0.13220  0.25560  1.0000 -0.0911879621
C   C8        1.0  0.11370  0.86780  0.74440  1.0000 -0.0911879621
C   C9        1.0  0.84970  0.45380  0.79050  1.0000 0.5596479446
C   C10       1.0  0.84970  0.54620  0.20950  1.0000 0.5596479446
C   C11       1.0  0.15030  0.04620  0.29050  1.0000 0.5596479446
C   C12       1.0  0.15030  0.95380  0.70950  1.0000 0.5596479446
C   C13       1.0  0.97290  0.36830  0.71380  1.0000 0.0399522519
C   C14       1.0  0.97290  0.63170  0.28620  1.0000 0.0399522519
C   C15       1.0  0.02710  0.13170  0.21380  1.0000 0.0399522519
C   C16       1.0  0.02710  0.86830  0.78620  1.0000 0.0399522519
C   C17       1.0  0.95240  0.95660  0.79840  1.0000 0.5596479446
C   C18       1.0  0.95240  0.04340  0.20160  1.0000 0.5596479446
C   C19       1.0  0.04760  0.54340  0.29840  1.0000 0.5596479446
C   C20       1.0  0.04760  0.45660  0.70160  1.0000 0.5596479446
C   C21       1.0  0.99920  0.28340  0.68380  1.0000 -0.1488966465
C   C22       1.0  0.99920  0.71660  0.31620  1.0000 -0.1488966465
C   C23       1.0  0.00080  0.21660  0.18380  1.0000 -0.1488966465
C   C24       1.0  0.00080  0.78340  0.81620  1.0000 -0.1488966465
C   C25       1.0  0.93860  0.19990  0.69620  1.0000 0.1034337834
C   C26       1.0  0.93860  0.80010  0.30380  1.0000 0.1034337834
C   C27       1.0  0.06140  0.30010  0.19620  1.0000 0.1034337834
C   C28       1.0  0.06140  0.69990  0.80380  1.0000 0.1034337834
C   C29       1.0  0.67520  0.87350  0.79540  1.0000 0.0816221788
C   C30       1.0  0.67520  0.12650  0.20460  1.0000 0.0816221788
C   C31       1.0  0.32480  0.62650  0.29540  1.0000 0.0816221788
C   C32       1.0  0.32480  0.37350  0.70460  1.0000 0.0816221788
C   C33       1.0  0.60950  0.79080  0.80250  1.0000 -0.083348152
C   C34       1.0  0.60950  0.20920  0.19750  1.0000 -0.083348152
C   C35       1.0  0.39050  0.70920  0.30250  1.0000 -0.083348152
C   C36       1.0  0.39050  0.29080  0.69750  1.0000 -0.083348152
C   C37       1.0  0.66280  0.70160  0.82800  1.0000 0.5547237426
C   C38       1.0  0.66280  0.29840  0.17200  1.0000 0.5596479446
C   C39       1.0  0.33720  0.79840  0.32800  1.0000 0.5596479446
C   C40       1.0  0.33720  0.20160  0.67200  1.0000 0.5596479446
C   C41       1.0  0.50090  0.79520  0.78440  1.0000 0.0345440202
C   C42       1.0  0.50090  0.20480  0.21560  1.0000 0.0399522519
C   C43       1.0  0.49910  0.70480  0.28440  1.0000 0.0399522519
C   C44       1.0  0.49910  0.29520  0.71560  1.0000 0.0399522519
C   C45       1.0  0.57850  0.21070  0.70530  1.0000 0.5596479446
C   C46       1.0  0.57850  0.78930  0.29470  1.0000 0.5596479446
C   C47       1.0  0.42150  0.28930  0.20530  1.0000 0.5596479446
C   C48       1.0  0.42150  0.71070  0.79470  1.0000 0.5596479446
C   C49       1.0  0.46430  0.88130  0.75860  1.0000 -0.1585271776
C   C50       1.0  0.46430  0.11870  0.24140  1.0000 -0.1585271776
C   C51       1.0  0.53570  0.61870  0.25860  1.0000 -0.1585271776
C   C52       1.0  0.53570  0.38130  0.74140  1.0000 -0.1585271776
C   C53       1.0  0.53330  0.95800  0.75280  1.0000 0.068128816
C   C54       1.0  0.53330  0.04200  0.24720  1.0000 0.068128816
C   C55       1.0  0.46670  0.54200  0.25280  1.0000 0.068128816
C   C56       1.0  0.46670  0.45800  0.74720  1.0000 0.068128816
C   C57       1.0  0.58370  0.44930  0.92880  1.0000 -0.0329847213
C   C58       1.0  0.58370  0.55070  0.07120  1.0000 -0.0329847213
C   C59       1.0  0.41630  0.05070  0.42880  1.0000 -0.0329847213
C   C60       1.0  0.41630  0.94930  0.57120  1.0000 -0.0329847213
C   C61       1.0  0.44690  0.50000  0.00000  1.0000 -0.0098734813
C   C62       1.0  0.55310  0.00000  0.50000  1.0000 -0.0098734813
C   C63       1.0  0.58210  0.61410  0.96810  1.0000 -0.0329847213
C   C64       1.0  0.58210  0.38590  0.03190  1.0000 -0.0329847213
C   C65       1.0  0.41790  0.88590  0.46810  1.0000 -0.035341271
C   C66       1.0  0.41790  0.11410  0.53190  1.0000 -0.0329847213
C   C67       1.0  0.72240  0.50000  0.00000  1.0000 -0.0654545993
C   C68       1.0  0.27760  0.00000  0.50000  1.0000 -0.0654545993
N   N1        1.0  0.63920  0.95590  0.77200  1.0000 -0.2040525913
N   N2        1.0  0.63920  0.04410  0.22800  1.0000 -0.2040525913
N   N3        1.0  0.36080  0.54410  0.27200  1.0000 -0.2040525913
N   N4        1.0  0.36080  0.45590  0.72800  1.0000 -0.2040525913
N   N5        1.0  0.85390  0.19840  0.73450  1.0000 -0.2056317896
N   N6        1.0  0.85390  0.80160  0.26550  1.0000 -0.2040525913
N   N7        1.0  0.14610  0.30160  0.23450  1.0000 -0.2056317896
N   N8        1.0  0.14610  0.69840  0.76550  1.0000 -0.2056317896
N   N9        1.0  0.65570  0.52980  0.94680  1.0000 -0.1946721419
N   N10       1.0  0.65570  0.47020  0.05320  1.0000 -0.1946721419
N   N11       1.0  0.34430  0.97020  0.44680  1.0000 -0.1946721419
N   N12       1.0  0.34430  0.02980  0.55320  1.0000 -0.1946721419
N   N13       1.0  0.51340  0.41660  0.98160  1.0000 -0.128855624
N   N14       1.0  0.51340  0.58340  0.01840  1.0000 -0.128855624
N   N15       1.0  0.48660  0.08340  0.48160  1.0000 -0.128855624
N   N16       1.0  0.48660  0.91660  0.51840  1.0000 -0.128855624
O   O1        1.0  0.78790  0.43650  0.83760  1.0000 -0.5686671704
O   O2        1.0  0.78790  0.56350  0.16240  1.0000 -0.5686671704
O   O3        1.0  0.21210  0.06350  0.33760  1.0000 -0.5686671704
O   O4        1.0  0.21210  0.93650  0.66240  1.0000 -0.5686671704
O   O5        1.0  0.87810  0.53580  0.77600  1.0000 -0.5013388706
O   O6        1.0  0.87810  0.46420  0.22400  1.0000 -0.5013388706
O   O7        1.0  0.12190  0.96420  0.27600  1.0000 -0.5013388706
O   O8        1.0  0.12190  0.03580  0.72400  1.0000 -0.5013388706
O   O9        1.0  0.88740  0.97820  0.75580  1.0000 -0.5638643473
O   O10       1.0  0.88740  0.02180  0.24420  1.0000 -0.5638643473
O   O11       1.0  0.11260  0.52180  0.25580  1.0000 -0.5638643473
O   O12       1.0  0.11260  0.47820  0.74420  1.0000 -0.5638643473
O   O13       1.0  0.96090  0.99360  0.85000  1.0000 -0.4914409786
O   O14       1.0  0.96090  0.00640  0.15000  1.0000 -0.5013388706
O   O15       1.0  0.03910  0.50640  0.35000  1.0000 -0.5013388706
O   O16       1.0  0.03910  0.49360  0.65000  1.0000 -0.5013388706
O   O17       1.0  0.74560  0.71160  0.86310  1.0000 -0.5335658163
O   O18       1.0  0.74560  0.28840  0.13690  1.0000 -0.5335658163
O   O19       1.0  0.25440  0.78840  0.36310  1.0000 -0.5335658163
O   O20       1.0  0.25440  0.21160  0.63690  1.0000 -0.5335658163
O   O21       1.0  0.62810  0.62010  0.81310  1.0000 -0.5127863258
O   O22       1.0  0.62810  0.37990  0.18690  1.0000 -0.5127863258
O   O23       1.0  0.37190  0.87990  0.31310  1.0000 -0.5127863258
O   O24       1.0  0.37190  0.12010  0.68690  1.0000 -0.5127863258
O   O25       1.0  0.61700  0.17200  0.75339  1.0000 -0.5686671704
O   O26       1.0  0.61700  0.82800  0.24661  1.0000 -0.5686671704
O   O27       1.0  0.38300  0.32800  0.25339  1.0000 -0.5686671704
O   O28       1.0  0.38300  0.67200  0.74661  1.0000 -0.5686671704
O   O29       1.0  0.59990  0.19070  0.65110  1.0000 -0.5494689018
O   O30       1.0  0.59990  0.80930  0.34890  1.0000 -0.5494689018
O   O31       1.0  0.40010  0.30930  0.15110  1.0000 -0.5494689018
O   O32       1.0  0.40010  0.69070  0.84890  1.0000 -0.5494689018
