# DDEC6 charges by PACMAN v1.1 (https://github.com/mtap-research/PACMAN-charge/)
data_2009[Ni][tfz]3[ASR]1
_chemical_formula_sum              "Ni6 H24 C72 O52"
_cell_length_a       10.711
_cell_length_b       13.7963
_cell_length_c       18.7511
_cell_angle_alpha    90
_cell_angle_beta     98.158
_cell_angle_gamma    90

_symmetry_space_group_name_H-M    "P 1"
_symmetry_Int_Tables_number       1

loop_
  _symmetry_equiv_pos_as_xyz
  'x, y, z'

loop_
  _atom_site_type_symbol
  _atom_site_label
  _atom_site_symmetry_multiplicity
  _atom_site_fract_x
  _atom_site_fract_y
  _atom_site_fract_z
  _atom_site_occupancy
  _atom_site_charge
Ni  Ni1       1.0  0.60200  0.73230  0.47589  1.0000 1.0738293519
Ni  Ni2       1.0  0.39800  0.23230  0.02411  1.0000 1.0756527295
Ni  Ni3       1.0  0.39800  0.26770  0.52411  1.0000 1.0738293519
Ni  Ni4       1.0  0.60200  0.76770  0.97589  1.0000 1.0738293519
Ni  Ni5       1.0  0.50000  0.00000  0.00000  1.0000 1.0738293519
Ni  Ni6       1.0  0.50000  0.50000  0.50000  1.0000 1.0738293519
H   H1        1.0  0.61460  0.79630  0.76420  1.0000 0.1387844881
H   H2        1.0  0.38540  0.29630  0.73580  1.0000 0.1387844881
H   H3        1.0  0.38540  0.20370  0.23580  1.0000 0.1387844881
H   H4        1.0  0.61460  0.70370  0.26420  1.0000 0.1387844881
H   H5        1.0  0.44590  0.05880  0.76830  1.0000 0.1387844881
H   H6        1.0  0.55410  0.55880  0.73170  1.0000 0.1387844881
H   H7        1.0  0.55410  0.94120  0.23170  1.0000 0.1387844881
H   H8        1.0  0.44590  0.44120  0.26830  1.0000 0.1387844881
H   H9        1.0  0.54920  0.95580  0.58220  1.0000 0.1387844881
H   H10       1.0  0.45080  0.45580  0.91780  1.0000 0.1387844881
H   H11       1.0  0.45080  0.04420  0.41780  1.0000 0.1387844881
H   H12       1.0  0.54920  0.54420  0.08220  1.0000 0.1387844881
H   H13       1.0  0.89780  0.12040  0.02060  1.0000 0.1312254107
H   H14       1.0  0.10220  0.62040  0.47940  1.0000 0.1312254107
H   H15       1.0  0.10220  0.87960  0.97940  1.0000 0.1312254107
H   H16       1.0  0.89780  0.37960  0.52060  1.0000 0.1312254107
H   H17       1.0  0.07790  0.37630  0.07040  1.0000 0.1387844881
H   H18       1.0  0.92210  0.87630  0.42960  1.0000 0.1387844881
H   H19       1.0  0.92210  0.62370  0.92960  1.0000 0.1387844881
H   H20       1.0  0.07790  0.12370  0.57040  1.0000 0.1387844881
H   H21       1.0  0.69640  0.36510  0.03610  1.0000 0.1387844881
H   H22       1.0  0.30360  0.86510  0.46390  1.0000 0.1387844881
H   H23       1.0  0.30360  0.63490  0.96390  1.0000 0.1387844881
H   H24       1.0  0.69640  0.13490  0.53610  1.0000 0.1387844881
C   C1        1.0  0.59050  0.86470  0.66684  1.0000 0.0105426794
C   C2        1.0  0.40950  0.36470  0.83316  1.0000 0.0105426794
C   C3        1.0  0.40950  0.13530  0.33316  1.0000 0.0105426794
C   C4        1.0  0.59050  0.63530  0.16684  1.0000 0.0105426794
C   C5        1.0  0.58370  0.85390  0.74018  1.0000 -0.0700836491
C   C6        1.0  0.41630  0.35390  0.75982  1.0000 -0.0700836491
C   C7        1.0  0.41630  0.14610  0.25982  1.0000 -0.0700836491
C   C8        1.0  0.58370  0.64610  0.24018  1.0000 -0.0700836491
C   C9        1.0  0.53240  0.92640  0.77853  1.0000 0.0105426794
C   C10       1.0  0.46760  0.42640  0.72147  1.0000 0.0036239157
C   C11       1.0  0.46760  0.07360  0.22147  1.0000 0.0036239157
C   C12       1.0  0.53240  0.57360  0.27853  1.0000 0.0036239157
C   C13       1.0  0.48150  0.00910  0.74253  1.0000 -0.0909319829
C   C14       1.0  0.51850  0.50910  0.75747  1.0000 -0.0909319829
C   C15       1.0  0.51850  0.99090  0.25747  1.0000 -0.0909319829
C   C16       1.0  0.48150  0.49090  0.24253  1.0000 -0.0909319829
C   C17       1.0  0.48300  0.01850  0.66881  1.0000 0.0105426794
C   C18       1.0  0.51700  0.51850  0.83119  1.0000 0.0157073083
C   C19       1.0  0.51700  0.98150  0.33119  1.0000 0.0105426794
C   C20       1.0  0.48300  0.48150  0.16881  1.0000 0.0105426794
C   C21       1.0  0.54240  0.94700  0.63178  1.0000 -0.0611171268
C   C22       1.0  0.45760  0.44700  0.86822  1.0000 -0.0611171268
C   C23       1.0  0.45760  0.05300  0.36822  1.0000 -0.0611171268
C   C24       1.0  0.54240  0.55300  0.13178  1.0000 -0.0611171268
C   C25       1.0  0.64420  0.78270  0.62702  1.0000 0.5496832466
C   C26       1.0  0.35580  0.28270  0.87298  1.0000 0.5496832466
C   C27       1.0  0.35580  0.21730  0.37298  1.0000 0.5496832466
C   C28       1.0  0.64420  0.71730  0.12702  1.0000 0.5496832466
C   C29       1.0  0.52940  0.91470  0.85876  1.0000 0.576000314
C   C30       1.0  0.47060  0.41470  0.64124  1.0000 0.576000314
C   C31       1.0  0.47060  0.08530  0.14124  1.0000 0.576000314
C   C32       1.0  0.52940  0.58530  0.35876  1.0000 0.576000314
C   C33       1.0  0.41630  0.10010  0.62732  1.0000 0.5496832466
C   C34       1.0  0.58370  0.60010  0.87268  1.0000 0.5496832466
C   C35       1.0  0.58370  0.89990  0.37268  1.0000 0.5496832466
C   C36       1.0  0.41630  0.39990  0.12732  1.0000 0.5496832466
C   C37       1.0  0.77910  0.23310  0.02681  1.0000 -0.0088511106
C   C38       1.0  0.22090  0.73310  0.47319  1.0000 -0.0088511106
C   C39       1.0  0.22090  0.76690  0.97319  1.0000 -0.0088511106
C   C40       1.0  0.77910  0.26690  0.52681  1.0000 -0.0088511106
C   C41       1.0  0.89450  0.18810  0.02929  1.0000 -0.0909319829
C   C42       1.0  0.10550  0.68810  0.47071  1.0000 -0.0909319829
C   C43       1.0  0.10550  0.81190  0.97071  1.0000 -0.0909319829
C   C44       1.0  0.89450  0.31190  0.52929  1.0000 -0.0909319829
C   C45       1.0  0.00770  0.24090  0.04456  1.0000 0.0105426794
C   C46       1.0  0.99230  0.74090  0.45544  1.0000 0.0105426794
C   C47       1.0  0.99230  0.75910  0.95544  1.0000 0.0105426794
C   C48       1.0  0.00770  0.25910  0.54456  1.0000 0.0105426794
C   C49       1.0  0.00230  0.34030  0.05842  1.0000 -0.0700836491
C   C50       1.0  0.99770  0.84030  0.44158  1.0000 -0.0700836491
C   C51       1.0  0.99770  0.65970  0.94158  1.0000 -0.0700836491
C   C52       1.0  0.00230  0.15970  0.55842  1.0000 -0.0700836491
C   C53       1.0  0.88630  0.38600  0.05468  1.0000 -0.0088511106
C   C54       1.0  0.11370  0.88600  0.44532  1.0000 -0.0088511106
C   C55       1.0  0.11370  0.61400  0.94532  1.0000 -0.0088511106
C   C56       1.0  0.88630  0.11400  0.55468  1.0000 -0.0088511106
C   C57       1.0  0.77550  0.33310  0.03881  1.0000 -0.0494300446
C   C58       1.0  0.22450  0.83310  0.46119  1.0000 -0.0494300446
C   C59       1.0  0.22450  0.66690  0.96119  1.0000 -0.0494300446
C   C60       1.0  0.77550  0.16690  0.53881  1.0000 -0.0494300446
C   C61       1.0  0.65530  0.18180  0.00907  1.0000 0.576000314
C   C62       1.0  0.34470  0.68180  0.49093  1.0000 0.576000314
C   C63       1.0  0.34470  0.81820  0.99093  1.0000 0.576000314
C   C64       1.0  0.65530  0.31820  0.50907  1.0000 0.576000314
C   C65       1.0  0.13090  0.19290  0.03925  1.0000 0.5338465383
C   C66       1.0  0.86910  0.69290  0.46075  1.0000 0.5338465383
C   C67       1.0  0.86910  0.80710  0.96075  1.0000 0.5338465383
C   C68       1.0  0.13090  0.30710  0.53925  1.0000 0.5338465383
C   C69       1.0  0.87910  0.49360  0.06658  1.0000 0.5176606437
C   C70       1.0  0.12090  0.99360  0.43342  1.0000 0.5176606437
C   C71       1.0  0.12090  0.50640  0.93342  1.0000 0.5176606437
C   C72       1.0  0.87910  0.00640  0.56658  1.0000 0.5176606437
O   O1        1.0  0.68212  0.80484  0.56760  1.0000 -0.4133409226
O   O2        1.0  0.31788  0.30484  0.93240  1.0000 -0.4133409226
O   O3        1.0  0.31788  0.19516  0.43240  1.0000 -0.4133409226
O   O4        1.0  0.68212  0.69516  0.06760  1.0000 -0.4133409226
O   O5        1.0  0.64550  0.69957  0.65269  1.0000 -0.3741968403
O   O6        1.0  0.35450  0.19957  0.84731  1.0000 -0.3741968403
O   O7        1.0  0.35450  0.30043  0.34731  1.0000 -0.3741968403
O   O8        1.0  0.64550  0.80043  0.15269  1.0000 -0.3741968403
O   O9        1.0  0.52990  0.82817  0.88103  1.0000 -0.4998033235
O   O10       1.0  0.47010  0.32817  0.61897  1.0000 -0.4998033235
O   O11       1.0  0.47010  0.17183  0.11897  1.0000 -0.4998033235
O   O12       1.0  0.52990  0.67183  0.38103  1.0000 -0.4998033235
O   O13       1.0  0.52679  0.99028  0.89517  1.0000 -0.48187897
O   O14       1.0  0.47321  0.49028  0.60483  1.0000 -0.48187897
O   O15       1.0  0.47321  0.00972  0.10483  1.0000 -0.48187897
O   O16       1.0  0.52679  0.50972  0.39517  1.0000 -0.48187897
O   O17       1.0  0.31900  0.13383  0.65586  1.0000 -0.3741968403
O   O18       1.0  0.68100  0.63383  0.84414  1.0000 -0.3801662116
O   O19       1.0  0.68100  0.86617  0.34414  1.0000 -0.3801662116
O   O20       1.0  0.31900  0.36617  0.15586  1.0000 -0.3741968403
O   O21       1.0  0.44942  0.13233  0.57242  1.0000 -0.4418952057
O   O22       1.0  0.55058  0.63233  0.92758  1.0000 -0.4418952057
O   O23       1.0  0.55058  0.86767  0.42758  1.0000 -0.4418952057
O   O24       1.0  0.44942  0.36767  0.07242  1.0000 -0.4418952057
O   O25       1.0  0.56319  0.23516  0.98572  1.0000 -0.485175241
O   O26       1.0  0.43681  0.73516  0.51428  1.0000 -0.485175241
O   O27       1.0  0.43681  0.76484  0.01428  1.0000 -0.485175241
O   O28       1.0  0.56319  0.26484  0.48572  1.0000 -0.485175241
O   O29       1.0  0.65313  0.09198  0.01853  1.0000 -0.4709525594
O   O30       1.0  0.34687  0.59198  0.48147  1.0000 -0.4709525594
O   O31       1.0  0.34687  0.90802  0.98147  1.0000 -0.4709525594
O   O32       1.0  0.65313  0.40802  0.51853  1.0000 -0.4709525594
O   O33       1.0  0.13190  0.10984  0.01226  1.0000 -0.3741968403
O   O34       1.0  0.86810  0.60984  0.48774  1.0000 -0.3741968403
O   O35       1.0  0.86810  0.89016  0.98774  1.0000 -0.3741968403
O   O36       1.0  0.13190  0.39016  0.51226  1.0000 -0.3741968403
O   O37       1.0  0.23001  0.24131  0.06147  1.0000 -0.4133409226
O   O38       1.0  0.76999  0.74131  0.43853  1.0000 -0.4133409226
O   O39       1.0  0.76999  0.75869  0.93853  1.0000 -0.4133409226
O   O40       1.0  0.23001  0.25869  0.56147  1.0000 -0.4133409226
O   O41       1.0  0.96180  0.54061  0.09863  1.0000 -0.3344833344
O   O42       1.0  0.03820  0.04061  0.40137  1.0000 -0.3363870272
O   O43       1.0  0.03820  0.45939  0.90137  1.0000 -0.3344833344
O   O44       1.0  0.96180  0.95939  0.59863  1.0000 -0.3344833344
O   O45       1.0  0.76840  0.52895  0.03509  1.0000 -0.3801662116
O   O46       1.0  0.23160  0.02895  0.46491  1.0000 -0.3801662116
O   O47       1.0  0.23160  0.47105  0.96491  1.0000 -0.3801662116
O   O48       1.0  0.76840  0.97105  0.53509  1.0000 -0.3801662116
O   O49       1.0  0.35831  0.10297  0.96977  1.0000 -0.280126352
O   O50       1.0  0.64169  0.60297  0.53023  1.0000 -0.280126352
O   O51       1.0  0.64169  0.89703  0.03023  1.0000 -0.280126352
O   O52       1.0  0.35831  0.39703  0.46977  1.0000 -0.280126352
