# DDEC6 charges by PACMAN v1.1 (https://github.com/mtap-research/PACMAN-charge/)
data_2009[Cd][pts]3[ASR]1
_chemical_formula_sum              "Cd8 H24 C48 N16 O32"
_cell_length_a       16.3261
_cell_length_b       16.3261
_cell_length_c       6.5495
_cell_angle_alpha    90
_cell_angle_beta     90
_cell_angle_gamma    90

_symmetry_space_group_name_H-M    "P 1"
_symmetry_Int_Tables_number       1

loop_
  _symmetry_equiv_pos_as_xyz
  'x, y, z'

loop_
  _atom_site_type_symbol
  _atom_site_label
  _atom_site_symmetry_multiplicity
  _atom_site_fract_x
  _atom_site_fract_y
  _atom_site_fract_z
  _atom_site_occupancy
  _atom_site_charge
Cd  Cd1       1.0  0.54253  0.45747  0.25000  1.0000 1.0503308752
Cd  Cd2       1.0  0.45747  0.54253  0.75000  1.0000 1.0503308752
Cd  Cd3       1.0  0.95747  0.04253  0.25000  1.0000 1.0503308752
Cd  Cd4       1.0  0.04253  0.95747  0.75000  1.0000 1.0503308752
Cd  Cd5       1.0  0.04253  0.54253  0.75000  1.0000 1.0503308752
Cd  Cd6       1.0  0.95747  0.45747  0.25000  1.0000 1.0503308752
Cd  Cd7       1.0  0.45747  0.95747  0.75000  1.0000 1.0503308752
Cd  Cd8       1.0  0.54253  0.04253  0.25000  1.0000 1.0503308752
H   H1        1.0  0.61004  0.18662  0.57385  1.0000 0.1391828486
H   H2        1.0  0.38996  0.81338  0.42615  1.0000 0.1391828486
H   H3        1.0  0.88996  0.31338  0.57385  1.0000 0.1391828486
H   H4        1.0  0.11004  0.68662  0.42615  1.0000 0.1391828486
H   H5        1.0  0.31338  0.61004  0.07385  1.0000 0.1391828486
H   H6        1.0  0.68662  0.38996  0.92615  1.0000 0.1391828486
H   H7        1.0  0.18662  0.88996  0.07385  1.0000 0.1391828486
H   H8        1.0  0.81338  0.11004  0.92615  1.0000 0.1391828486
H   H9        1.0  0.38996  0.68662  0.42615  1.0000 0.1391828486
H   H10       1.0  0.61004  0.31338  0.57385  1.0000 0.1391828486
H   H11       1.0  0.11004  0.81338  0.42615  1.0000 0.1391828486
H   H12       1.0  0.88996  0.18662  0.57385  1.0000 0.1391828486
H   H13       1.0  0.68662  0.11004  0.92615  1.0000 0.1391828486
H   H14       1.0  0.31338  0.88996  0.07385  1.0000 0.1391828486
H   H15       1.0  0.81338  0.38996  0.92615  1.0000 0.1391828486
H   H16       1.0  0.18662  0.61004  0.07385  1.0000 0.1391828486
H   H17       1.0  0.67602  0.25000  0.45072  1.0000 0.1316093781
H   H18       1.0  0.32398  0.75000  0.54928  1.0000 0.1316093781
H   H19       1.0  0.82398  0.25000  0.45072  1.0000 0.1316093781
H   H20       1.0  0.17602  0.75000  0.54928  1.0000 0.1316093781
H   H21       1.0  0.25000  0.67602  0.95072  1.0000 0.1316093781
H   H22       1.0  0.75000  0.32398  0.04928  1.0000 0.1316093781
H   H23       1.0  0.25000  0.82398  0.95072  1.0000 0.1316093781
H   H24       1.0  0.75000  0.17602  0.04928  1.0000 0.1316093781
C   C1        1.0  0.55771  0.25000  0.30719  1.0000 0.4294187032
C   C2        1.0  0.44229  0.75000  0.69281  1.0000 0.4294187032
C   C3        1.0  0.94229  0.25000  0.30719  1.0000 0.4294187032
C   C4        1.0  0.05771  0.75000  0.69281  1.0000 0.4294187032
C   C5        1.0  0.25000  0.55771  0.80719  1.0000 0.4294187032
C   C6        1.0  0.75000  0.44229  0.19281  1.0000 0.4294187032
C   C7        1.0  0.25000  0.94229  0.80719  1.0000 0.4294187032
C   C8        1.0  0.75000  0.05771  0.19281  1.0000 0.4294187032
C   C9        1.0  0.61076  0.25000  0.49649  1.0000 -0.4281581364
C   C10       1.0  0.38924  0.75000  0.50351  1.0000 -0.4281581364
C   C11       1.0  0.88924  0.25000  0.49649  1.0000 -0.4281581364
C   C12       1.0  0.11076  0.75000  0.50351  1.0000 -0.4281581364
C   C13       1.0  0.25000  0.61076  0.99649  1.0000 -0.4281581364
C   C14       1.0  0.75000  0.38924  0.00351  1.0000 -0.4281581364
C   C15       1.0  0.25000  0.88924  0.99649  1.0000 -0.4281581364
C   C16       1.0  0.75000  0.11076  0.00351  1.0000 -0.4281581364
C   C17       1.0  0.49404  0.29310  0.03691  1.0000 0.0500574467
C   C18       1.0  0.50596  0.70690  0.96309  1.0000 0.0500574467
C   C19       1.0  0.00596  0.20690  0.03691  1.0000 0.0500574467
C   C20       1.0  0.99404  0.79310  0.96309  1.0000 0.0500574467
C   C21       1.0  0.20690  0.49404  0.53691  1.0000 0.0500574467
C   C22       1.0  0.79310  0.50596  0.46309  1.0000 0.0500574467
C   C23       1.0  0.29310  0.00596  0.53691  1.0000 0.0500574467
C   C24       1.0  0.70690  0.99404  0.46309  1.0000 0.0500574467
C   C25       1.0  0.50596  0.79310  0.96309  1.0000 0.0500574467
C   C26       1.0  0.49404  0.20690  0.03691  1.0000 0.0500574467
C   C27       1.0  0.99404  0.70690  0.96309  1.0000 0.0500574467
C   C28       1.0  0.00596  0.29310  0.03691  1.0000 0.0500574467
C   C29       1.0  0.79310  0.99404  0.46309  1.0000 0.0500574467
C   C30       1.0  0.20690  0.00596  0.53691  1.0000 0.0500574467
C   C31       1.0  0.70690  0.50596  0.46309  1.0000 0.0500574467
C   C32       1.0  0.29310  0.49404  0.53691  1.0000 0.0500574467
C   C33       1.0  0.46222  0.35279  0.88538  1.0000 0.5669444703
C   C34       1.0  0.53778  0.64721  0.11462  1.0000 0.5669444703
C   C35       1.0  0.03778  0.14721  0.88538  1.0000 0.5669444703
C   C36       1.0  0.96222  0.85279  0.11462  1.0000 0.5669444703
C   C37       1.0  0.14721  0.46222  0.38538  1.0000 0.5669444703
C   C38       1.0  0.85279  0.53778  0.61462  1.0000 0.5669444703
C   C39       1.0  0.35279  0.03778  0.38538  1.0000 0.5669444703
C   C40       1.0  0.64721  0.96222  0.61462  1.0000 0.5669444703
C   C41       1.0  0.53778  0.85279  0.11462  1.0000 0.5669444703
C   C42       1.0  0.46222  0.14721  0.88538  1.0000 0.5669444703
C   C43       1.0  0.96222  0.64721  0.11462  1.0000 0.5669444703
C   C44       1.0  0.03778  0.35279  0.88538  1.0000 0.5669444703
C   C45       1.0  0.85279  0.96222  0.61462  1.0000 0.5669444703
C   C46       1.0  0.14721  0.03778  0.38538  1.0000 0.5669444703
C   C47       1.0  0.64721  0.53778  0.61462  1.0000 0.5669444703
C   C48       1.0  0.35279  0.46222  0.38538  1.0000 0.5669444703
N   N1        1.0  0.53499  0.32041  0.20781  1.0000 -0.40537582
N   N2        1.0  0.46501  0.67959  0.79219  1.0000 -0.40537582
N   N3        1.0  0.96501  0.17959  0.20781  1.0000 -0.40537582
N   N4        1.0  0.03499  0.82041  0.79219  1.0000 -0.40537582
N   N5        1.0  0.17959  0.53499  0.70781  1.0000 -0.40537582
N   N6        1.0  0.82041  0.46501  0.29219  1.0000 -0.40537582
N   N7        1.0  0.32041  0.96501  0.70781  1.0000 -0.40537582
N   N8        1.0  0.67959  0.03499  0.29219  1.0000 -0.40537582
N   N9        1.0  0.46501  0.82041  0.79219  1.0000 -0.40537582
N   N10       1.0  0.53499  0.17959  0.20781  1.0000 -0.40537582
N   N11       1.0  0.03499  0.67959  0.79219  1.0000 -0.40537582
N   N12       1.0  0.96501  0.32041  0.20781  1.0000 -0.40537582
N   N13       1.0  0.82041  0.03499  0.29219  1.0000 -0.40537582
N   N14       1.0  0.17959  0.96501  0.70781  1.0000 -0.40537582
N   N15       1.0  0.67959  0.46501  0.29219  1.0000 -0.40537582
N   N16       1.0  0.32041  0.53499  0.70781  1.0000 -0.40537582
O   O1        1.0  0.48444  0.42910  0.92835  1.0000 -0.5605986438
O   O2        1.0  0.51556  0.57090  0.07165  1.0000 -0.5605986438
O   O3        1.0  0.01556  0.07090  0.92835  1.0000 -0.5605986438
O   O4        1.0  0.98444  0.92910  0.07165  1.0000 -0.5605986438
O   O5        1.0  0.07090  0.48444  0.42835  1.0000 -0.5605986438
O   O6        1.0  0.92910  0.51556  0.57165  1.0000 -0.5605986438
O   O7        1.0  0.42910  0.01556  0.42835  1.0000 -0.5605986438
O   O8        1.0  0.57090  0.98444  0.57165  1.0000 -0.5605986438
O   O9        1.0  0.51556  0.92910  0.07165  1.0000 -0.5605986438
O   O10       1.0  0.48444  0.07090  0.92835  1.0000 -0.5605986438
O   O11       1.0  0.98444  0.57090  0.07165  1.0000 -0.5605986438
O   O12       1.0  0.01556  0.42910  0.92835  1.0000 -0.5605986438
O   O13       1.0  0.92910  0.98444  0.57165  1.0000 -0.5605986438
O   O14       1.0  0.07090  0.01556  0.42835  1.0000 -0.5605986438
O   O15       1.0  0.57090  0.51556  0.57165  1.0000 -0.5605986438
O   O16       1.0  0.42910  0.48444  0.42835  1.0000 -0.5605986438
O   O17       1.0  0.42184  0.32886  0.73362  1.0000 -0.3818107119
O   O18       1.0  0.57816  0.67114  0.26638  1.0000 -0.3818107119
O   O19       1.0  0.07816  0.17114  0.73362  1.0000 -0.3818107119
O   O20       1.0  0.92184  0.82886  0.26638  1.0000 -0.3818107119
O   O21       1.0  0.17114  0.42184  0.23362  1.0000 -0.3818107119
O   O22       1.0  0.82886  0.57816  0.76638  1.0000 -0.3818107119
O   O23       1.0  0.32886  0.07816  0.23362  1.0000 -0.3818107119
O   O24       1.0  0.67114  0.92184  0.76638  1.0000 -0.3818107119
O   O25       1.0  0.57816  0.82886  0.26638  1.0000 -0.3818107119
O   O26       1.0  0.42184  0.17114  0.73362  1.0000 -0.3818107119
O   O27       1.0  0.92184  0.67114  0.26638  1.0000 -0.3818107119
O   O28       1.0  0.07816  0.32886  0.73362  1.0000 -0.3818107119
O   O29       1.0  0.82886  0.92184  0.76638  1.0000 -0.3818107119
O   O30       1.0  0.17114  0.07816  0.23362  1.0000 -0.3818107119
O   O31       1.0  0.67114  0.57816  0.76638  1.0000 -0.3818107119
O   O32       1.0  0.32886  0.42184  0.23362  1.0000 -0.3818107119
