# DDEC6 charges by PACMAN v1.1 (https://github.com/mtap-research/PACMAN-charge/)
data_2009[Zn][nan]3[ASR]14
_chemical_formula_sum              "Zn5 H12 C28 N18 O8 F8"
_cell_length_a       10.137
_cell_length_b       10.228
_cell_length_c       12.747
_cell_angle_alpha    74.562
_cell_angle_beta     83.796
_cell_angle_gamma    60.952

_symmetry_space_group_name_H-M    "P 1"
_symmetry_Int_Tables_number       1

loop_
  _symmetry_equiv_pos_as_xyz
  'x, y, z'

loop_
  _atom_site_type_symbol
  _atom_site_label
  _atom_site_symmetry_multiplicity
  _atom_site_fract_x
  _atom_site_fract_y
  _atom_site_fract_z
  _atom_site_occupancy
  _atom_site_charge
Zn  Zn1       1.0  0.50000  0.50000  0.00000  1.0000 0.5500582946
Zn  Zn2       1.0  0.49168  0.40560  0.28787  1.0000 0.7050117148
Zn  Zn3       1.0  0.50832  0.59440  0.71213  1.0000 0.7050117148
Zn  Zn4       1.0  0.15344  0.11833  0.13899  1.0000 0.7460758282
Zn  Zn5       1.0  0.84656  0.88167  0.86101  1.0000 0.7460758282
H   H1        1.0  0.29772  0.31304  0.97803  1.0000 0.1015241809
H   H2        1.0  0.70228  0.68696  0.02197  1.0000 0.1015241809
H   H3        1.0  0.31261  0.89118  0.98653  1.0000 0.1015241809
H   H4        1.0  0.68739  0.10882  0.01347  1.0000 0.1015241809
H   H5        1.0  0.87301  0.17453  0.34137  1.0000 0.1107246049
H   H6        1.0  0.12699  0.82547  0.65863  1.0000 0.1107246049
H   H7        1.0  0.87219  0.29717  0.99440  1.0000 0.1015241809
H   H8        1.0  0.12781  0.70283  0.00560  1.0000 0.1015241809
H   H9        1.0  0.27587  0.23567  0.32226  1.0000 0.1107246049
H   H10       1.0  0.72413  0.76433  0.67774  1.0000 0.1107246049
H   H11       1.0  0.30551  0.76911  0.33190  1.0000 0.1107246049
H   H12       1.0  0.69449  0.23089  0.66810  1.0000 0.1107246049
C   C1        1.0  0.83870  0.22478  0.25529  1.0000 0.1582001441
C   C2        1.0  0.16130  0.77522  0.74471  1.0000 0.1582001441
C   C3        1.0  0.83674  0.28906  0.07994  1.0000 0.1514084431
C   C4        1.0  0.16326  0.71094  0.92006  1.0000 0.1514084431
C   C5        1.0  0.30038  0.27008  0.23655  1.0000 0.1582001441
C   C6        1.0  0.69962  0.72992  0.76345  1.0000 0.1582001441
C   C7        1.0  0.31227  0.30954  0.06278  1.0000 0.1582001441
C   C8        1.0  0.68773  0.69046  0.93722  1.0000 0.1582001441
C   C9        1.0  0.32433  0.76392  0.24624  1.0000 0.1582001441
C   C10       1.0  0.67567  0.23608  0.75376  1.0000 0.1582001441
C   C11       1.0  0.32935  0.82443  0.07131  1.0000 0.1582001441
C   C12       1.0  0.67065  0.17557  0.92869  1.0000 0.1582001441
C   C13       1.0  0.48668  0.27821  0.50854  1.0000 0.6152494592
C   C14       1.0  0.51332  0.72179  0.49146  1.0000 0.6152494592
C   C15       1.0  0.39391  0.26186  0.60752  1.0000 -0.213279094
C   C16       1.0  0.60609  0.73814  0.39248  1.0000 -0.213279094
C   C17       1.0  0.30290  0.38708  0.65314  1.0000 0.1582001441
C   C18       1.0  0.69710  0.61292  0.34686  1.0000 0.1582001441
C   C19       1.0  0.39224  0.12283  0.65464  1.0000 0.1514084431
C   C20       1.0  0.60776  0.87717  0.34536  1.0000 0.1514084431
C   C21       1.0  0.21598  0.37132  0.74338  1.0000 0.1439206494
C   C22       1.0  0.78402  0.62868  0.25662  1.0000 0.1439206494
C   C23       1.0  0.30544  0.10859  0.74502  1.0000 0.1514084431
C   C24       1.0  0.69456  0.89141  0.25498  1.0000 0.1514084431
C   C25       1.0  0.21492  0.23235  0.79076  1.0000 -0.1991446889
C   C26       1.0  0.78508  0.76765  0.20924  1.0000 -0.1991446889
C   C27       1.0  0.10692  0.22223  0.88150  1.0000 0.6152494592
C   C28       1.0  0.89308  0.77777  0.11850  1.0000 0.6152494592
N   N1        1.0  0.69425  0.31475  0.22196  1.0000 -0.1991446889
N   N2        1.0  0.30575  0.68525  0.77804  1.0000 -0.1991446889
N   N3        1.0  0.69310  0.35610  0.10857  1.0000 -0.1813410776
N   N4        1.0  0.30690  0.64390  0.89143  1.0000 -0.1813410776
N   N5        1.0  0.93372  0.20522  0.16892  1.0000 -0.3467072802
N   N6        1.0  0.06628  0.79478  0.83108  1.0000 -0.3467072802
N   N7        1.0  0.37802  0.34727  0.20412  1.0000 -0.1813410776
N   N8        1.0  0.62198  0.65273  0.79588  1.0000 -0.1813410776
N   N9        1.0  0.38529  0.37396  0.09168  1.0000 -0.187523845
N   N10       1.0  0.61471  0.62604  0.90832  1.0000 -0.187523845
N   N11       1.0  0.25703  0.24052  0.15102  1.0000 -0.3441431182
N   N12       1.0  0.74297  0.75948  0.84898  1.0000 -0.3441431182
N   N13       1.0  0.40104  0.63205  0.21470  1.0000 -0.1991446889
N   N14       1.0  0.59896  0.36795  0.78530  1.0000 -0.1991446889
N   N15       1.0  0.40408  0.67068  0.10146  1.0000 -0.1991446889
N   N16       1.0  0.59592  0.32932  0.89854  1.0000 -0.1991446889
N   N17       1.0  0.27666  0.88963  0.15884  1.0000 -0.3441431182
N   N18       1.0  0.72334  0.11037  0.84116  1.0000 -0.3441431182
O   O1        1.0  0.40252  0.38968  0.42842  1.0000 -0.5259817349
O   O2        1.0  0.59748  0.61032  0.57158  1.0000 -0.5259817349
O   O3        1.0  0.62517  0.19170  0.50857  1.0000 -0.5431972849
O   O4        1.0  0.37483  0.80830  0.49143  1.0000 -0.5431972849
O   O5        1.0  0.97435  0.26899  0.85476  1.0000 -0.5046178209
O   O6        1.0  0.02565  0.73101  0.14524  1.0000 -0.5046178209
O   O7        1.0  0.16824  0.16543  0.97789  1.0000 -0.5587381827
O   O8        1.0  0.83176  0.83457  0.02211  1.0000 -0.5587381827
F   F1        1.0  0.29994  0.52565  0.61004  1.0000 -0.1070701139
F   F2        1.0  0.70006  0.47435  0.38996  1.0000 -0.1070701139
F   F3        1.0  0.47262  0.99985  0.60998  1.0000 -0.1020154352
F   F4        1.0  0.52738  0.00015  0.39002  1.0000 -0.1020154352
F   F5        1.0  0.12766  0.49581  0.78609  1.0000 -0.1020154352
F   F6        1.0  0.87234  0.50419  0.21391  1.0000 -0.1020154352
F   F7        1.0  0.30723  0.96994  0.78786  1.0000 -0.1020154352
F   F8        1.0  0.69277  0.03006  0.21214  1.0000 -0.1020154352
