# DDEC6 charges by PACMAN v1.1 (https://github.com/mtap-research/PACMAN-charge/)
data_2009[LaAg][nan]3[ASR]1
_chemical_formula_sum              "La4 Ag4 H32 C56 N8 O32"
_cell_length_a       9.2864
_cell_length_b       22.446
_cell_length_c       9.884
_cell_angle_alpha    90
_cell_angle_beta     116.564
_cell_angle_gamma    90

_symmetry_space_group_name_H-M    "P 1"
_symmetry_Int_Tables_number       1

loop_
  _symmetry_equiv_pos_as_xyz
  'x, y, z'

loop_
  _atom_site_type_symbol
  _atom_site_label
  _atom_site_symmetry_multiplicity
  _atom_site_fract_x
  _atom_site_fract_y
  _atom_site_fract_z
  _atom_site_occupancy
  _atom_site_charge
La  La1       1.0  0.35977  0.00884  0.11562  1.0000 1.8289216645
La  La2       1.0  0.64023  0.50884  0.38438  1.0000 1.8289216645
La  La3       1.0  0.64023  0.99116  0.88438  1.0000 1.8289216645
La  La4       1.0  0.35977  0.49116  0.61562  1.0000 1.8289216645
Ag  Ag1       1.0  0.31779  0.35346  0.97450  1.0000 0.3055894263
Ag  Ag2       1.0  0.68221  0.85346  0.52550  1.0000 0.3055894263
Ag  Ag3       1.0  0.68221  0.64654  0.02550  1.0000 0.3047546036
Ag  Ag4       1.0  0.31779  0.14654  0.47450  1.0000 0.3055894263
H   H1        1.0  0.59880  0.33190  0.89010  1.0000 0.1153110991
H   H2        1.0  0.40120  0.83190  0.60990  1.0000 0.1153110991
H   H3        1.0  0.40120  0.66810  0.10990  1.0000 0.1153110991
H   H4        1.0  0.59880  0.16810  0.39010  1.0000 0.1153110991
H   H5        1.0  0.73800  0.25510  0.86080  1.0000 0.1377260032
H   H6        1.0  0.26200  0.75510  0.63920  1.0000 0.1377260032
H   H7        1.0  0.26200  0.74490  0.13920  1.0000 0.1377260032
H   H8        1.0  0.73800  0.24490  0.36080  1.0000 0.1377260032
H   H9        1.0  0.68190  0.15760  0.89820  1.0000 0.1456277258
H   H10       1.0  0.31810  0.65760  0.60180  1.0000 0.1456277258
H   H11       1.0  0.31810  0.84240  0.10180  1.0000 0.1456277258
H   H12       1.0  0.68190  0.34240  0.39820  1.0000 0.1456277258
H   H13       1.0  0.35730  0.22220  0.01030  1.0000 0.1129395254
H   H14       1.0  0.64270  0.72220  0.48970  1.0000 0.1129395254
H   H15       1.0  0.64270  0.77780  0.98970  1.0000 0.1129395254
H   H16       1.0  0.35730  0.27780  0.51030  1.0000 0.1129395254
H   H17       1.0  0.81100  0.84030  0.28910  1.0000 0.1020891256
H   H18       1.0  0.18900  0.34030  0.21090  1.0000 0.1020891256
H   H19       1.0  0.18900  0.15970  0.71090  1.0000 0.1020891256
H   H20       1.0  0.81100  0.65970  0.78910  1.0000 0.1020891256
H   H21       1.0  0.02180  0.86970  0.24560  1.0000 0.1377260032
H   H22       1.0  0.97820  0.36970  0.25440  1.0000 0.1377260032
H   H23       1.0  0.97820  0.13030  0.75440  1.0000 0.1377260032
H   H24       1.0  0.02180  0.63030  0.74560  1.0000 0.1377260032
H   H25       1.0  0.21660  0.92690  0.43570  1.0000 0.1261841542
H   H26       1.0  0.78340  0.42690  0.06430  1.0000 0.1261841542
H   H27       1.0  0.78340  0.07310  0.56430  1.0000 0.1261841542
H   H28       1.0  0.21660  0.57310  0.93570  1.0000 0.1261841542
H   H29       1.0  0.96990  0.92920  0.67890  1.0000 0.1261841542
H   H30       1.0  0.03010  0.42920  0.82110  1.0000 0.1261841542
H   H31       1.0  0.03010  0.07080  0.32110  1.0000 0.1261841542
H   H32       1.0  0.96990  0.57080  0.17890  1.0000 0.1261841542
C   C1        1.0  0.57580  0.29330  0.90870  1.0000 0.080884559
C   C2        1.0  0.42420  0.79330  0.59130  1.0000 0.080884559
C   C3        1.0  0.42420  0.70670  0.09130  1.0000 0.080884559
C   C4        1.0  0.57580  0.20670  0.40870  1.0000 0.080884559
C   C5        1.0  0.65770  0.24750  0.89040  1.0000 -0.1731612087
C   C6        1.0  0.34230  0.74750  0.60960  1.0000 -0.1731612087
C   C7        1.0  0.34230  0.75250  0.10960  1.0000 -0.1731612087
C   C8        1.0  0.65770  0.25250  0.39040  1.0000 -0.1731612087
C   C9        1.0  0.62650  0.18920  0.91430  1.0000 -0.0538314219
C   C10       1.0  0.37350  0.68920  0.58570  1.0000 -0.0538314219
C   C11       1.0  0.37350  0.81080  0.08570  1.0000 -0.0538314219
C   C12       1.0  0.62650  0.31080  0.41430  1.0000 -0.0538314219
C   C13       1.0  0.51340  0.17990  0.96140  1.0000 -0.0690934971
C   C14       1.0  0.48660  0.67990  0.53860  1.0000 -0.0690934971
C   C15       1.0  0.48660  0.82010  0.03860  1.0000 -0.0690934971
C   C16       1.0  0.51340  0.32010  0.46140  1.0000 -0.0690934971
C   C17       1.0  0.43610  0.22840  0.97820  1.0000 0.0110619428
C   C18       1.0  0.56390  0.72840  0.52180  1.0000 0.0110619428
C   C19       1.0  0.56390  0.77160  0.02180  1.0000 0.0110619428
C   C20       1.0  0.43610  0.27160  0.47820  1.0000 0.0110619428
C   C21       1.0  0.47030  0.11960  0.99700  1.0000 0.5833450145
C   C22       1.0  0.52970  0.61960  0.50300  1.0000 0.5833450145
C   C23       1.0  0.52970  0.88040  0.00300  1.0000 0.5833450145
C   C24       1.0  0.47030  0.38040  0.49700  1.0000 0.5833450145
C   C25       1.0  0.89070  0.86450  0.35940  1.0000 0.0243077538
C   C26       1.0  0.10930  0.36450  0.14060  1.0000 0.0243077538
C   C27       1.0  0.10930  0.13550  0.64060  1.0000 0.0243077538
C   C28       1.0  0.89070  0.63550  0.85940  1.0000 0.0243077538
C   C29       1.0  0.01310  0.88050  0.33250  1.0000 -0.108027231
C   C30       1.0  0.98690  0.38050  0.16750  1.0000 -0.108027231
C   C31       1.0  0.98690  0.11950  0.66750  1.0000 -0.108027231
C   C32       1.0  0.01310  0.61950  0.83250  1.0000 -0.108027231
C   C33       1.0  0.12610  0.91490  0.44580  1.0000 -0.0831090734
C   C34       1.0  0.87390  0.41490  0.05420  1.0000 -0.0831090734
C   C35       1.0  0.87390  0.08510  0.55420  1.0000 -0.0831090734
C   C36       1.0  0.12610  0.58510  0.94580  1.0000 -0.0831090734
C   C37       1.0  0.11210  0.93360  0.58080  1.0000 -0.0690934971
C   C38       1.0  0.88790  0.43360  0.91920  1.0000 -0.0690934971
C   C39       1.0  0.88790  0.06640  0.41920  1.0000 -0.0690934971
C   C40       1.0  0.11210  0.56640  0.08080  1.0000 -0.0690934971
C   C41       1.0  0.98500  0.91710  0.59610  1.0000 0.0465952418
C   C42       1.0  0.01500  0.41710  0.90390  1.0000 0.0465952418
C   C43       1.0  0.01500  0.08290  0.40390  1.0000 0.0465952418
C   C44       1.0  0.98500  0.58290  0.09610  1.0000 0.0465952418
C   C45       1.0  0.23810  0.96950  0.71310  1.0000 0.6021075733
C   C46       1.0  0.76190  0.46950  0.78690  1.0000 0.6021075733
C   C47       1.0  0.76190  0.03050  0.28690  1.0000 0.6021075733
C   C48       1.0  0.23810  0.53050  0.21310  1.0000 0.6021075733
C   C49       1.0  0.47510  0.03340  0.49810  1.0000 0.4748319573
C   C50       1.0  0.52490  0.53340  0.00190  1.0000 0.4748319573
C   C51       1.0  0.52490  0.96660  0.50190  1.0000 0.4751391894
C   C52       1.0  0.47510  0.46660  0.99810  1.0000 0.4748319573
C   C53       1.0  0.99260  0.03352  0.99200  1.0000 0.4536392874
C   C54       1.0  0.00740  0.53352  0.50800  1.0000 0.4536392874
C   C55       1.0  0.00740  0.96648  0.00800  1.0000 0.4536392874
C   C56       1.0  0.99260  0.46648  0.49200  1.0000 0.4536392874
N   N1        1.0  0.46400  0.28430  0.95220  1.0000 -0.1731612087
N   N2        1.0  0.53600  0.78430  0.54780  1.0000 -0.1731612087
N   N3        1.0  0.53600  0.71570  0.04780  1.0000 -0.1731612087
N   N4        1.0  0.46400  0.21570  0.45220  1.0000 -0.1731612087
N   N5        1.0  0.87580  0.88180  0.48650  1.0000 -0.1776447595
N   N6        1.0  0.12420  0.38180  0.01350  1.0000 -0.1776447595
N   N7        1.0  0.12420  0.11820  0.51350  1.0000 -0.1776447595
N   N8        1.0  0.87580  0.61820  0.98650  1.0000 -0.1776447595
O   O1        1.0  0.52010  0.07337  0.96060  1.0000 -0.630020272
O   O2        1.0  0.47990  0.57337  0.53940  1.0000 -0.630020272
O   O3        1.0  0.47990  0.92663  0.03940  1.0000 -0.630020272
O   O4        1.0  0.52010  0.42663  0.46060  1.0000 -0.630020272
O   O5        1.0  0.38370  0.11804  0.06220  1.0000 -0.5466167741
O   O6        1.0  0.61630  0.61804  0.43780  1.0000 -0.5466167741
O   O7        1.0  0.61630  0.88196  0.93780  1.0000 -0.5466167741
O   O8        1.0  0.38370  0.38196  0.56220  1.0000 -0.5466167741
O   O9        1.0  0.20870  0.99345  0.81740  1.0000 -0.630020272
O   O10       1.0  0.79130  0.49345  0.68260  1.0000 -0.630020272
O   O11       1.0  0.79130  0.00655  0.18260  1.0000 -0.630020272
O   O12       1.0  0.20870  0.50655  0.31740  1.0000 -0.630020272
O   O13       1.0  0.36210  0.97100  0.70700  1.0000 -0.5398110263
O   O14       1.0  0.63790  0.47100  0.79300  1.0000 -0.5398110263
O   O15       1.0  0.63790  0.02900  0.29300  1.0000 -0.5398110263
O   O16       1.0  0.36210  0.52900  0.20700  1.0000 -0.5398110263
O   O17       1.0  0.38180  0.05519  0.37280  1.0000 -0.5245027953
O   O18       1.0  0.61820  0.55519  0.12720  1.0000 -0.5245027953
O   O19       1.0  0.61820  0.94481  0.62720  1.0000 -0.5251159482
O   O20       1.0  0.38180  0.44481  0.87280  1.0000 -0.5251159482
O   O21       1.0  0.53900  0.05903  0.63550  1.0000 -0.6188029759
O   O22       1.0  0.46100  0.55903  0.86450  1.0000 -0.6188029759
O   O23       1.0  0.46100  0.94097  0.36450  1.0000 -0.6188029759
O   O24       1.0  0.53900  0.44097  0.13550  1.0000 -0.6188029759
O   O25       1.0  0.11460  0.06415  0.05120  1.0000 -0.5032663309
O   O26       1.0  0.88540  0.56415  0.44880  1.0000 -0.5032663309
O   O27       1.0  0.88540  0.93585  0.94880  1.0000 -0.5032663309
O   O28       1.0  0.11460  0.43585  0.55120  1.0000 -0.5032663309
O   O29       1.0  0.85930  0.05590  0.92190  1.0000 -0.5144713932
O   O30       1.0  0.14070  0.55590  0.57810  1.0000 -0.5144713932
O   O31       1.0  0.14070  0.94410  0.07810  1.0000 -0.5144713932
O   O32       1.0  0.85930  0.44410  0.42190  1.0000 -0.5144713932
