# DDEC6 charges by PACMAN v1.1 (https://github.com/mtap-research/PACMAN-charge/)
data_2009[Cd][nuc]3[ASR]10
_chemical_formula_sum              "Cd4 H144 C192 N48"
_cell_length_a       15.8471
_cell_length_b       15.8471
_cell_length_c       21.767
_cell_angle_alpha    90
_cell_angle_beta     90
_cell_angle_gamma    90

_symmetry_space_group_name_H-M    "P 1"
_symmetry_Int_Tables_number       1

loop_
  _symmetry_equiv_pos_as_xyz
  'x, y, z'

loop_
  _atom_site_type_symbol
  _atom_site_label
  _atom_site_symmetry_multiplicity
  _atom_site_fract_x
  _atom_site_fract_y
  _atom_site_fract_z
  _atom_site_occupancy
  _atom_site_charge
Cd  Cd1       1.0  0.94014  0.05986  0.75000  1.0000 0.6430352459
Cd  Cd2       1.0  0.05986  0.94014  0.25000  1.0000 0.6430352459
Cd  Cd3       1.0  0.44014  0.44014  0.50000  1.0000 0.6430352459
Cd  Cd4       1.0  0.55986  0.55986  0.00000  1.0000 0.6430352459
H   H1        1.0  0.61500  0.53690  0.85100  1.0000 0.0996000606
H   H2        1.0  0.38500  0.46310  0.35100  1.0000 0.0996000606
H   H3        1.0  0.96310  0.11500  0.60100  1.0000 0.0996000606
H   H4        1.0  0.03690  0.88500  0.10100  1.0000 0.0996000606
H   H5        1.0  0.88500  0.03690  0.89900  1.0000 0.0996000606
H   H6        1.0  0.11500  0.96310  0.39900  1.0000 0.0996000606
H   H7        1.0  0.53690  0.61500  0.14900  1.0000 0.0996000606
H   H8        1.0  0.46310  0.38500  0.64900  1.0000 0.0996000606
H   H9        1.0  0.71320  0.58830  0.78450  1.0000 0.1278444537
H   H10       1.0  0.28680  0.41170  0.28450  1.0000 0.1278444537
H   H11       1.0  0.91170  0.21320  0.53450  1.0000 0.1278444537
H   H12       1.0  0.08830  0.78680  0.03450  1.0000 0.1278444537
H   H13       1.0  0.78680  0.08830  0.96550  1.0000 0.1278444537
H   H14       1.0  0.21320  0.91170  0.46550  1.0000 0.1278444537
H   H15       1.0  0.58830  0.71320  0.21550  1.0000 0.1278444537
H   H16       1.0  0.41170  0.28680  0.71550  1.0000 0.1278444537
H   H17       1.0  0.73690  0.79000  0.89370  1.0000 0.1278444537
H   H18       1.0  0.26310  0.21000  0.39370  1.0000 0.1278444537
H   H19       1.0  0.71000  0.23690  0.64370  1.0000 0.1278444537
H   H20       1.0  0.29000  0.76310  0.14370  1.0000 0.1278444537
H   H21       1.0  0.76310  0.29000  0.85630  1.0000 0.1278444537
H   H22       1.0  0.23690  0.71000  0.35630  1.0000 0.1278444537
H   H23       1.0  0.79000  0.73690  0.10630  1.0000 0.1278444537
H   H24       1.0  0.21000  0.26310  0.60630  1.0000 0.1278444537
H   H25       1.0  0.64160  0.73140  0.95820  1.0000 0.0996000606
H   H26       1.0  0.35840  0.26860  0.45820  1.0000 0.0996000606
H   H27       1.0  0.76860  0.14160  0.70820  1.0000 0.0996000606
H   H28       1.0  0.23140  0.85840  0.20820  1.0000 0.0996000606
H   H29       1.0  0.85840  0.23140  0.79180  1.0000 0.0996000606
H   H30       1.0  0.14160  0.76860  0.29180  1.0000 0.0996000606
H   H31       1.0  0.73140  0.64160  0.04180  1.0000 0.0996000606
H   H32       1.0  0.26860  0.35840  0.54180  1.0000 0.0996000606
H   H33       1.0  0.79480  0.65690  0.71830  1.0000 0.0996000606
H   H34       1.0  0.20520  0.34310  0.21830  1.0000 0.0996000606
H   H35       1.0  0.84310  0.29480  0.46830  1.0000 0.0996000606
H   H36       1.0  0.15690  0.70520  0.96830  1.0000 0.0996000606
H   H37       1.0  0.70520  0.15690  0.03170  1.0000 0.0996000606
H   H38       1.0  0.29480  0.84310  0.53170  1.0000 0.0996000606
H   H39       1.0  0.65690  0.79480  0.28170  1.0000 0.0996000606
H   H40       1.0  0.34310  0.20520  0.78170  1.0000 0.0996000606
H   H41       1.0  0.90960  0.70640  0.66440  1.0000 0.0996000606
H   H42       1.0  0.09040  0.29360  0.16440  1.0000 0.0996000606
H   H43       1.0  0.79360  0.40960  0.41440  1.0000 0.0996000606
H   H44       1.0  0.20640  0.59040  0.91440  1.0000 0.0996000606
H   H45       1.0  0.59040  0.20640  0.08560  1.0000 0.0996000606
H   H46       1.0  0.40960  0.79360  0.58560  1.0000 0.0996000606
H   H47       1.0  0.70640  0.90960  0.33560  1.0000 0.0996000606
H   H48       1.0  0.29360  0.09040  0.83560  1.0000 0.0996000606
H   H49       1.0  0.00220  0.80120  0.70870  1.0000 0.1105945227
H   H50       1.0  0.99780  0.19880  0.20870  1.0000 0.1105945227
H   H51       1.0  0.69880  0.50220  0.45870  1.0000 0.1105945227
H   H52       1.0  0.30120  0.49780  0.95870  1.0000 0.1105945227
H   H53       1.0  0.49780  0.30120  0.04130  1.0000 0.1105945227
H   H54       1.0  0.50220  0.69880  0.54130  1.0000 0.1105945227
H   H55       1.0  0.80120  0.00220  0.29130  1.0000 0.1105945227
H   H56       1.0  0.19880  0.99780  0.79130  1.0000 0.1105945227
H   H57       1.0  0.85850  0.80530  0.86020  1.0000 0.1105945227
H   H58       1.0  0.14150  0.19470  0.36020  1.0000 0.1105945227
H   H59       1.0  0.69470  0.35850  0.61020  1.0000 0.1105945227
H   H60       1.0  0.30530  0.64150  0.11020  1.0000 0.1105945227
H   H61       1.0  0.64150  0.30530  0.88980  1.0000 0.1105945227
H   H62       1.0  0.35850  0.69470  0.38980  1.0000 0.1105945227
H   H63       1.0  0.80530  0.85850  0.13980  1.0000 0.1105945227
H   H64       1.0  0.19470  0.14150  0.63980  1.0000 0.1105945227
H   H65       1.0  0.12140  0.04590  0.95800  1.0000 0.1105945227
H   H66       1.0  0.87860  0.95410  0.45800  1.0000 0.1105945227
H   H67       1.0  0.45410  0.62140  0.70800  1.0000 0.1105945227
H   H68       1.0  0.54590  0.37860  0.20800  1.0000 0.1105945227
H   H69       1.0  0.37860  0.54590  0.79200  1.0000 0.1105945227
H   H70       1.0  0.62140  0.45410  0.29200  1.0000 0.1105945227
H   H71       1.0  0.04590  0.12140  0.04200  1.0000 0.1105945227
H   H72       1.0  0.95410  0.87860  0.54200  1.0000 0.1105945227
H   H73       1.0  0.23340  0.06870  0.02360  1.0000 0.1105945227
H   H74       1.0  0.76660  0.93130  0.52360  1.0000 0.1105945227
H   H75       1.0  0.43130  0.73340  0.77360  1.0000 0.1105945227
H   H76       1.0  0.56870  0.26660  0.27360  1.0000 0.1105945227
H   H77       1.0  0.26660  0.56870  0.72640  1.0000 0.1105945227
H   H78       1.0  0.73340  0.43130  0.22640  1.0000 0.1105945227
H   H79       1.0  0.06870  0.23340  0.97640  1.0000 0.1105945227
H   H80       1.0  0.93130  0.76660  0.47640  1.0000 0.1105945227
H   H81       1.0  0.33680  0.96680  0.03420  1.0000 0.1105945227
H   H82       1.0  0.66320  0.03320  0.53420  1.0000 0.1105945227
H   H83       1.0  0.53320  0.83680  0.78420  1.0000 0.1105945227
H   H84       1.0  0.46680  0.16320  0.28420  1.0000 0.1105945227
H   H85       1.0  0.16320  0.46680  0.71580  1.0000 0.1105945227
H   H86       1.0  0.83680  0.53320  0.21580  1.0000 0.1105945227
H   H87       1.0  0.96680  0.33680  0.96580  1.0000 0.1105945227
H   H88       1.0  0.03320  0.66320  0.46580  1.0000 0.1105945227
H   H89       1.0  0.22480  0.82770  0.90390  1.0000 0.1105945227
H   H90       1.0  0.77520  0.17230  0.40390  1.0000 0.0996000606
H   H91       1.0  0.67230  0.72480  0.65390  1.0000 0.0996000606
H   H92       1.0  0.32770  0.27520  0.15390  1.0000 0.0996000606
H   H93       1.0  0.27520  0.32770  0.84610  1.0000 0.1105945227
H   H94       1.0  0.72480  0.67230  0.34610  1.0000 0.0996000606
H   H95       1.0  0.82770  0.22480  0.09610  1.0000 0.0996000606
H   H96       1.0  0.17230  0.77520  0.59610  1.0000 0.0996000606
H   H97       1.0  0.40200  0.85210  0.06030  1.0000 0.1278444537
H   H98       1.0  0.59800  0.14790  0.56030  1.0000 0.1278444537
H   H99       1.0  0.64790  0.90200  0.81030  1.0000 0.1278444537
H   H100      1.0  0.35210  0.09800  0.31030  1.0000 0.1278444537
H   H101      1.0  0.09800  0.35210  0.68970  1.0000 0.1278444537
H   H102      1.0  0.90200  0.64790  0.18970  1.0000 0.1278444537
H   H103      1.0  0.85210  0.40200  0.93970  1.0000 0.1278444537
H   H104      1.0  0.14790  0.59800  0.43970  1.0000 0.1278444537
H   H105      1.0  0.44070  0.66020  0.90770  1.0000 0.0996000606
H   H106      1.0  0.55930  0.33980  0.40770  1.0000 0.0996000606
H   H107      1.0  0.83980  0.94070  0.65770  1.0000 0.0996000606
H   H108      1.0  0.16020  0.05930  0.15770  1.0000 0.0996000606
H   H109      1.0  0.05930  0.16020  0.84230  1.0000 0.0996000606
H   H110      1.0  0.94070  0.83980  0.34230  1.0000 0.0996000606
H   H111      1.0  0.66020  0.44070  0.09230  1.0000 0.0996000606
H   H112      1.0  0.33980  0.55930  0.59230  1.0000 0.0996000606
H   H113      1.0  0.34830  0.76790  0.89200  1.0000 0.1278444537
H   H114      1.0  0.65170  0.23210  0.39200  1.0000 0.1278444537
H   H115      1.0  0.73210  0.84830  0.64200  1.0000 0.1278444537
H   H116      1.0  0.26790  0.15170  0.14200  1.0000 0.1278444537
H   H117      1.0  0.15170  0.26790  0.85800  1.0000 0.1278444537
H   H118      1.0  0.84830  0.73210  0.35800  1.0000 0.1278444537
H   H119      1.0  0.76790  0.34830  0.10800  1.0000 0.1278444537
H   H120      1.0  0.23210  0.65170  0.60800  1.0000 0.1278444537
H   H121      1.0  0.49370  0.74210  0.07090  1.0000 0.0996000606
H   H122      1.0  0.50630  0.25790  0.57090  1.0000 0.0996000606
H   H123      1.0  0.75790  0.99370  0.82090  1.0000 0.0996000606
H   H124      1.0  0.24210  0.00630  0.32090  1.0000 0.0996000606
H   H125      1.0  0.00630  0.24210  0.67910  1.0000 0.0996000606
H   H126      1.0  0.99370  0.75790  0.17910  1.0000 0.0996000606
H   H127      1.0  0.74210  0.49370  0.92910  1.0000 0.0996000606
H   H128      1.0  0.25790  0.50630  0.42910  1.0000 0.0996000606
H   H129      1.0  0.02930  0.74420  0.89170  1.0000 0.2516645546
H   H130      1.0  0.97070  0.25580  0.39170  1.0000 0.2516645546
H   H131      1.0  0.75580  0.52930  0.64170  1.0000 0.2516645546
H   H132      1.0  0.24420  0.47070  0.14170  1.0000 0.2516645546
H   H133      1.0  0.47070  0.24420  0.85830  1.0000 0.2516645546
H   H134      1.0  0.52930  0.75580  0.35830  1.0000 0.2516645546
H   H135      1.0  0.74420  0.02930  0.10830  1.0000 0.2516645546
H   H136      1.0  0.25580  0.97070  0.60830  1.0000 0.2516645546
H   H137      1.0  0.10010  0.74160  0.84930  1.0000 0.2442137747
H   H138      1.0  0.89990  0.25840  0.34930  1.0000 0.2442137747
H   H139      1.0  0.75840  0.60010  0.59930  1.0000 0.2442137747
H   H140      1.0  0.24160  0.39990  0.09930  1.0000 0.2442137747
H   H141      1.0  0.39990  0.24160  0.90070  1.0000 0.2442137747
H   H142      1.0  0.60010  0.75840  0.40070  1.0000 0.2442137747
H   H143      1.0  0.74160  0.10010  0.15070  1.0000 0.2442137747
H   H144      1.0  0.25840  0.89990  0.65070  1.0000 0.2442137747
C   C1        1.0  0.64190  0.58740  0.86060  1.0000 0.0490067209
C   C2        1.0  0.35810  0.41260  0.36060  1.0000 0.0490067209
C   C3        1.0  0.91260  0.14190  0.61060  1.0000 0.0490067209
C   C4        1.0  0.08740  0.85810  0.11060  1.0000 0.0490067209
C   C5        1.0  0.85810  0.08740  0.88940  1.0000 0.0490067209
C   C6        1.0  0.14190  0.91260  0.38940  1.0000 0.0490067209
C   C7        1.0  0.58740  0.64190  0.13940  1.0000 0.0490067209
C   C8        1.0  0.41260  0.35810  0.63940  1.0000 0.0490067209
C   C9        1.0  0.70110  0.61780  0.82030  1.0000 -0.209534038
C   C10       1.0  0.29890  0.38220  0.32030  1.0000 -0.209534038
C   C11       1.0  0.88220  0.20110  0.57030  1.0000 -0.209534038
C   C12       1.0  0.11780  0.79890  0.07030  1.0000 -0.209534038
C   C13       1.0  0.79890  0.11780  0.92970  1.0000 -0.209534038
C   C14       1.0  0.20110  0.88220  0.42970  1.0000 -0.209534038
C   C15       1.0  0.61780  0.70110  0.17970  1.0000 -0.209534038
C   C16       1.0  0.38220  0.29890  0.67970  1.0000 -0.209534038
C   C17       1.0  0.74350  0.69380  0.83347  1.0000 0.1105945227
C   C18       1.0  0.25650  0.30620  0.33347  1.0000 0.1105945227
C   C19       1.0  0.80620  0.24350  0.58347  1.0000 0.1105945227
C   C20       1.0  0.19380  0.75650  0.08347  1.0000 0.1105945227
C   C21       1.0  0.75650  0.19380  0.91653  1.0000 0.1105945227
C   C22       1.0  0.24350  0.80620  0.41653  1.0000 0.1105945227
C   C23       1.0  0.69380  0.74350  0.16653  1.0000 0.1105945227
C   C24       1.0  0.30620  0.25650  0.66653  1.0000 0.1105945227
C   C25       1.0  0.71550  0.73670  0.88510  1.0000 -0.209534038
C   C26       1.0  0.28450  0.26330  0.38510  1.0000 -0.209534038
C   C27       1.0  0.76330  0.21550  0.63510  1.0000 -0.209534038
C   C28       1.0  0.23670  0.78450  0.13510  1.0000 -0.209534038
C   C29       1.0  0.78450  0.23670  0.86490  1.0000 -0.209534038
C   C30       1.0  0.21550  0.76330  0.36490  1.0000 -0.209534038
C   C31       1.0  0.73670  0.71550  0.11490  1.0000 -0.209534038
C   C32       1.0  0.26330  0.28450  0.61490  1.0000 -0.209534038
C   C33       1.0  0.65700  0.70160  0.92320  1.0000 0.039846477
C   C34       1.0  0.34300  0.29840  0.42320  1.0000 0.039846477
C   C35       1.0  0.79840  0.15700  0.67320  1.0000 0.039846477
C   C36       1.0  0.20160  0.84300  0.17320  1.0000 0.039846477
C   C37       1.0  0.84300  0.20160  0.82680  1.0000 0.039846477
C   C38       1.0  0.15700  0.79840  0.32680  1.0000 0.039846477
C   C39       1.0  0.70160  0.65700  0.07680  1.0000 0.039846477
C   C40       1.0  0.29840  0.34300  0.57680  1.0000 0.039846477
C   C41       1.0  0.81500  0.72460  0.79599  1.0000 0.067465918
C   C42       1.0  0.18500  0.27540  0.29599  1.0000 0.067465918
C   C43       1.0  0.77540  0.31500  0.54599  1.0000 0.067465918
C   C44       1.0  0.22460  0.68500  0.04599  1.0000 0.067465918
C   C45       1.0  0.68500  0.22460  0.95401  1.0000 0.067465918
C   C46       1.0  0.31500  0.77540  0.45401  1.0000 0.067465918
C   C47       1.0  0.72460  0.81500  0.20401  1.0000 0.067465918
C   C48       1.0  0.27540  0.18500  0.70401  1.0000 0.067465918
C   C49       1.0  0.83090  0.69590  0.73636  1.0000 -0.1697275919
C   C50       1.0  0.16910  0.30410  0.23636  1.0000 -0.1697275919
C   C51       1.0  0.80410  0.33090  0.48636  1.0000 -0.1697275919
C   C52       1.0  0.19590  0.66910  0.98636  1.0000 -0.1697275919
C   C53       1.0  0.66910  0.19590  0.01364  1.0000 -0.1697275919
C   C54       1.0  0.33090  0.80410  0.51364  1.0000 -0.1697275919
C   C55       1.0  0.69590  0.83090  0.26364  1.0000 -0.1697275919
C   C56       1.0  0.30410  0.16910  0.76364  1.0000 -0.1697275919
C   C57       1.0  0.90000  0.72540  0.70420  1.0000 -0.1095002881
C   C58       1.0  0.10000  0.27460  0.20420  1.0000 -0.1095002881
C   C59       1.0  0.77460  0.40000  0.45420  1.0000 -0.1095002881
C   C60       1.0  0.22540  0.60000  0.95420  1.0000 -0.1095002881
C   C61       1.0  0.60000  0.22540  0.04580  1.0000 -0.1095002881
C   C62       1.0  0.40000  0.77460  0.54580  1.0000 -0.1095002881
C   C63       1.0  0.72540  0.90000  0.29580  1.0000 -0.1095002881
C   C64       1.0  0.27460  0.10000  0.79580  1.0000 -0.1095002881
C   C65       1.0  0.95500  0.78290  0.73032  1.0000 -0.1697275919
C   C66       1.0  0.04500  0.21710  0.23032  1.0000 -0.1697275919
C   C67       1.0  0.71710  0.45500  0.48032  1.0000 -0.1697275919
C   C68       1.0  0.28290  0.54500  0.98032  1.0000 -0.1697275919
C   C69       1.0  0.54500  0.28290  0.01968  1.0000 -0.1697275919
C   C70       1.0  0.45500  0.71710  0.51968  1.0000 -0.1697275919
C   C71       1.0  0.78290  0.95500  0.26968  1.0000 -0.1697275919
C   C72       1.0  0.21710  0.04500  0.76968  1.0000 -0.1697275919
C   C73       1.0  0.93940  0.81280  0.78910  1.0000 0.0185121771
C   C74       1.0  0.06060  0.18720  0.28910  1.0000 0.0185121771
C   C75       1.0  0.68720  0.43940  0.53910  1.0000 0.0185121771
C   C76       1.0  0.31280  0.56060  0.03910  1.0000 0.0185121771
C   C77       1.0  0.56060  0.31280  0.96090  1.0000 0.0185121771
C   C78       1.0  0.43940  0.68720  0.46090  1.0000 0.0185121771
C   C79       1.0  0.81280  0.93940  0.21090  1.0000 0.0185121771
C   C80       1.0  0.18720  0.06060  0.71090  1.0000 0.0185121771
C   C81       1.0  0.86940  0.78420  0.82110  1.0000 -0.209534038
C   C82       1.0  0.13060  0.21580  0.32110  1.0000 -0.209534038
C   C83       1.0  0.71580  0.36940  0.57110  1.0000 -0.209534038
C   C84       1.0  0.28420  0.63060  0.07110  1.0000 -0.209534038
C   C85       1.0  0.63060  0.28420  0.92890  1.0000 -0.209534038
C   C86       1.0  0.36940  0.71580  0.42890  1.0000 -0.209534038
C   C87       1.0  0.78420  0.86940  0.17890  1.0000 -0.209534038
C   C88       1.0  0.21580  0.13060  0.67890  1.0000 -0.209534038
C   C89       1.0  0.99550  0.87450  0.81930  1.0000 0.1690592746
C   C90       1.0  0.00450  0.12550  0.31930  1.0000 0.1690592746
C   C91       1.0  0.62550  0.49550  0.56930  1.0000 0.1690592746
C   C92       1.0  0.37450  0.50450  0.06930  1.0000 0.1690592746
C   C93       1.0  0.50450  0.37450  0.93070  1.0000 0.1690592746
C   C94       1.0  0.49550  0.62550  0.43070  1.0000 0.1690592746
C   C95       1.0  0.87450  0.99550  0.18070  1.0000 0.1690592746
C   C96       1.0  0.12550  0.00450  0.68070  1.0000 0.1690592746
C   C97       1.0  0.09140  0.92540  0.88120  1.0000 0.1790948639
C   C98       1.0  0.90860  0.07460  0.38120  1.0000 0.1790948639
C   C99       1.0  0.57460  0.59140  0.63120  1.0000 0.1790948639
C   C100      1.0  0.42540  0.40860  0.13120  1.0000 0.1790948639
C   C101      1.0  0.40860  0.42540  0.86880  1.0000 0.1790948639
C   C102      1.0  0.59140  0.57460  0.36880  1.0000 0.1790948639
C   C103      1.0  0.92540  0.09140  0.11880  1.0000 0.1790948639
C   C104      1.0  0.07460  0.90860  0.61880  1.0000 0.1790948639
C   C105      1.0  0.16160  0.93370  0.92490  1.0000 0.0347396949
C   C106      1.0  0.83840  0.06630  0.42490  1.0000 0.0347396949
C   C107      1.0  0.56630  0.66160  0.67490  1.0000 0.0347396949
C   C108      1.0  0.43370  0.33840  0.17490  1.0000 0.0347396949
C   C109      1.0  0.33840  0.43370  0.82510  1.0000 0.0347396949
C   C110      1.0  0.66160  0.56630  0.32510  1.0000 0.0347396949
C   C111      1.0  0.93370  0.16160  0.07510  1.0000 0.0347396949
C   C112      1.0  0.06630  0.83840  0.57510  1.0000 0.0347396949
C   C113      1.0  0.16450  0.00620  0.96080  1.0000 -0.1609772091
C   C114      1.0  0.83550  0.99380  0.46080  1.0000 -0.1609772091
C   C115      1.0  0.49380  0.66450  0.71080  1.0000 -0.1609772091
C   C116      1.0  0.50620  0.33550  0.21080  1.0000 -0.1609772091
C   C117      1.0  0.33550  0.50620  0.78920  1.0000 -0.1609772091
C   C118      1.0  0.66450  0.49380  0.28920  1.0000 -0.1609772091
C   C119      1.0  0.00620  0.16450  0.03920  1.0000 -0.1609772091
C   C120      1.0  0.99380  0.83550  0.53920  1.0000 -0.1609772091
C   C121      1.0  0.23080  0.01940  0.00050  1.0000 -0.1095002881
C   C122      1.0  0.76920  0.98060  0.50050  1.0000 -0.1095002881
C   C123      1.0  0.48060  0.73080  0.75050  1.0000 -0.1095002881
C   C124      1.0  0.51940  0.26920  0.25050  1.0000 -0.1095002881
C   C125      1.0  0.26920  0.51940  0.74950  1.0000 -0.1095002881
C   C126      1.0  0.73080  0.48060  0.24950  1.0000 -0.1095002881
C   C127      1.0  0.01940  0.23080  0.99950  1.0000 -0.1095002881
C   C128      1.0  0.98060  0.76920  0.49950  1.0000 -0.1095002881
C   C129      1.0  0.29360  0.95910  0.00590  1.0000 -0.1609772091
C   C130      1.0  0.70640  0.04090  0.50590  1.0000 -0.1609772091
C   C131      1.0  0.54090  0.79360  0.75590  1.0000 -0.1609772091
C   C132      1.0  0.45910  0.20640  0.25590  1.0000 -0.1609772091
C   C133      1.0  0.20640  0.45910  0.74410  1.0000 -0.1609772091
C   C134      1.0  0.79360  0.54090  0.24410  1.0000 -0.1609772091
C   C135      1.0  0.95910  0.29360  0.99410  1.0000 -0.1609772091
C   C136      1.0  0.04090  0.70640  0.49410  1.0000 -0.1609772091
C   C137      1.0  0.29280  0.88740  0.96950  1.0000 0.067465918
C   C138      1.0  0.70720  0.11260  0.46950  1.0000 0.067465918
C   C139      1.0  0.61260  0.79280  0.71950  1.0000 0.067465918
C   C140      1.0  0.38740  0.20720  0.21950  1.0000 0.067465918
C   C141      1.0  0.20720  0.38740  0.78050  1.0000 0.067465918
C   C142      1.0  0.79280  0.61260  0.28050  1.0000 0.067465918
C   C143      1.0  0.88740  0.29280  0.03050  1.0000 0.067465918
C   C144      1.0  0.11260  0.70720  0.53050  1.0000 0.067465918
C   C145      1.0  0.22600  0.87540  0.92870  1.0000 -0.1994756778
C   C146      1.0  0.77400  0.12460  0.42870  1.0000 -0.1994756778
C   C147      1.0  0.62460  0.72600  0.67870  1.0000 -0.1994756778
C   C148      1.0  0.37540  0.27400  0.17870  1.0000 -0.1994756778
C   C149      1.0  0.27400  0.37540  0.82130  1.0000 -0.1994756778
C   C150      1.0  0.72600  0.62460  0.32130  1.0000 -0.1994756778
C   C151      1.0  0.87540  0.22600  0.07130  1.0000 -0.1994756778
C   C152      1.0  0.12460  0.77400  0.57130  1.0000 -0.1994756778
C   C153      1.0  0.35980  0.82140  0.97590  1.0000 0.1105945227
C   C154      1.0  0.64020  0.17860  0.47590  1.0000 0.1105945227
C   C155      1.0  0.67860  0.85980  0.72590  1.0000 0.1105945227
C   C156      1.0  0.32140  0.14020  0.22590  1.0000 0.1105945227
C   C157      1.0  0.14020  0.32140  0.77410  1.0000 0.1105945227
C   C158      1.0  0.85980  0.67860  0.27410  1.0000 0.1105945227
C   C159      1.0  0.82140  0.35980  0.02410  1.0000 0.1105945227
C   C160      1.0  0.17860  0.64020  0.52410  1.0000 0.1105945227
C   C161      1.0  0.40750  0.81300  0.02870  1.0000 -0.209534038
C   C162      1.0  0.59250  0.18700  0.52870  1.0000 -0.209534038
C   C163      1.0  0.68700  0.90750  0.77870  1.0000 -0.209534038
C   C164      1.0  0.31300  0.09250  0.27870  1.0000 -0.209534038
C   C165      1.0  0.09250  0.31300  0.72130  1.0000 -0.209534038
C   C166      1.0  0.90750  0.68700  0.22130  1.0000 -0.209534038
C   C167      1.0  0.81300  0.40750  0.97130  1.0000 -0.209534038
C   C168      1.0  0.18700  0.59250  0.47130  1.0000 -0.209534038
C   C169      1.0  0.43240  0.69900  0.93910  1.0000 0.0595462059
C   C170      1.0  0.56760  0.30100  0.43910  1.0000 0.0595462059
C   C171      1.0  0.80100  0.93240  0.68910  1.0000 0.0595462059
C   C172      1.0  0.19900  0.06760  0.18910  1.0000 0.0595462059
C   C173      1.0  0.06760  0.19900  0.81090  1.0000 0.0595462059
C   C174      1.0  0.93240  0.80100  0.31090  1.0000 0.0595462059
C   C175      1.0  0.69900  0.43240  0.06090  1.0000 0.0595462059
C   C176      1.0  0.30100  0.56760  0.56090  1.0000 0.0595462059
C   C177      1.0  0.37590  0.76320  0.92960  1.0000 -0.1994756778
C   C178      1.0  0.62410  0.23680  0.42960  1.0000 -0.1994756778
C   C179      1.0  0.73680  0.87590  0.67960  1.0000 -0.1994756778
C   C180      1.0  0.26320  0.12410  0.17960  1.0000 -0.1994756778
C   C181      1.0  0.12410  0.26320  0.82040  1.0000 -0.1994756778
C   C182      1.0  0.87590  0.73680  0.32040  1.0000 -0.1994756778
C   C183      1.0  0.76320  0.37590  0.07040  1.0000 -0.1994756778
C   C184      1.0  0.23680  0.62410  0.57040  1.0000 -0.1994756778
C   C185      1.0  0.46330  0.74670  0.03450  1.0000 0.0595462059
C   C186      1.0  0.53670  0.25330  0.53450  1.0000 0.0595462059
C   C187      1.0  0.75330  0.96330  0.78450  1.0000 0.0595462059
C   C188      1.0  0.24670  0.03670  0.28450  1.0000 0.0595462059
C   C189      1.0  0.03670  0.24670  0.71550  1.0000 0.0595462059
C   C190      1.0  0.96330  0.75330  0.21550  1.0000 0.0595462059
C   C191      1.0  0.74670  0.46330  0.96550  1.0000 0.0595462059
C   C192      1.0  0.25330  0.53670  0.46550  1.0000 0.0595462059
N   N1        1.0  0.99260  0.95700  0.81593  1.0000 -0.2321018666
N   N2        1.0  0.00740  0.04300  0.31593  1.0000 -0.2321018666
N   N3        1.0  0.54300  0.49260  0.56593  1.0000 -0.2321018666
N   N4        1.0  0.45700  0.50740  0.06593  1.0000 -0.2321018666
N   N5        1.0  0.50740  0.45700  0.93407  1.0000 -0.2321018666
N   N6        1.0  0.49260  0.54300  0.43407  1.0000 -0.2321018666
N   N7        1.0  0.95700  0.99260  0.18407  1.0000 -0.2321018666
N   N8        1.0  0.04300  0.00740  0.68407  1.0000 -0.2321018666
N   N9        1.0  0.05380  0.98940  0.85480  1.0000 -0.2786402722
N   N10       1.0  0.94620  0.01060  0.35480  1.0000 -0.2786402722
N   N11       1.0  0.51060  0.55380  0.60480  1.0000 -0.2786402722
N   N12       1.0  0.48940  0.44620  0.10480  1.0000 -0.2786402722
N   N13       1.0  0.44620  0.48940  0.89520  1.0000 -0.2786402722
N   N14       1.0  0.55380  0.51060  0.39520  1.0000 -0.2786402722
N   N15       1.0  0.98940  0.05380  0.14520  1.0000 -0.2786402722
N   N16       1.0  0.01060  0.94620  0.64520  1.0000 -0.2786402722
N   N17       1.0  0.05660  0.85248  0.86011  1.0000 0.0595462059
N   N18       1.0  0.94340  0.14752  0.36011  1.0000 0.0595462059
N   N19       1.0  0.64752  0.55660  0.61011  1.0000 0.0595462059
N   N20       1.0  0.35248  0.44340  0.11011  1.0000 0.0595462059
N   N21       1.0  0.44340  0.35248  0.88989  1.0000 0.0595462059
N   N22       1.0  0.55660  0.64752  0.38989  1.0000 0.0595462059
N   N23       1.0  0.85248  0.05660  0.13989  1.0000 0.0595462059
N   N24       1.0  0.14752  0.94340  0.63989  1.0000 0.0595462059
N   N25       1.0  0.07650  0.77010  0.88000  1.0000 -0.5106688013
N   N26       1.0  0.92350  0.22990  0.38000  1.0000 -0.5106688013
N   N27       1.0  0.72990  0.57650  0.63000  1.0000 -0.5106688013
N   N28       1.0  0.27010  0.42350  0.13000  1.0000 -0.5106688013
N   N29       1.0  0.42350  0.27010  0.87000  1.0000 -0.5106688013
N   N30       1.0  0.57650  0.72990  0.37000  1.0000 -0.5106688013
N   N31       1.0  0.77010  0.07650  0.12000  1.0000 -0.5106688013
N   N32       1.0  0.22990  0.92350  0.62000  1.0000 -0.5106688013
N   N33       1.0  0.62050  0.62660  0.91330  1.0000 -0.2353034387
N   N34       1.0  0.37950  0.37340  0.41330  1.0000 -0.2353034387
N   N35       1.0  0.87340  0.12050  0.66330  1.0000 -0.2353034387
N   N36       1.0  0.12660  0.87950  0.16330  1.0000 -0.2353034387
N   N37       1.0  0.87950  0.12660  0.83670  1.0000 -0.2353034387
N   N38       1.0  0.12050  0.87340  0.33670  1.0000 -0.2353034387
N   N39       1.0  0.62660  0.62050  0.08670  1.0000 -0.2353034387
N   N40       1.0  0.37340  0.37950  0.58670  1.0000 -0.2353034387
N   N41       1.0  0.47620  0.68900  0.99111  1.0000 -0.2321018666
N   N42       1.0  0.52380  0.31100  0.49111  1.0000 -0.2321018666
N   N43       1.0  0.81100  0.97620  0.74111  1.0000 -0.2353034387
N   N44       1.0  0.18900  0.02380  0.24111  1.0000 -0.2321018666
N   N45       1.0  0.02380  0.18900  0.75889  1.0000 -0.2321018666
N   N46       1.0  0.97620  0.81100  0.25889  1.0000 -0.2321018666
N   N47       1.0  0.68900  0.47620  0.00889  1.0000 -0.2321018666
N   N48       1.0  0.31100  0.52380  0.50889  1.0000 -0.2321018666
