# DDEC6 charges by PACMAN v1.1 (https://github.com/mtap-research/PACMAN-charge/)
data_2009[Cu][tbo]3[ASR]5
_chemical_formula_sum              "Cu12 H24 C72 O48"
_cell_length_a       18.6215
_cell_length_b       18.6215
_cell_length_c       18.6215
_cell_angle_alpha    60
_cell_angle_beta     60
_cell_angle_gamma    60

_symmetry_space_group_name_H-M    "P 1"
_symmetry_Int_Tables_number       1

loop_
  _symmetry_equiv_pos_as_xyz
  'x, y, z'

loop_
  _atom_site_type_symbol
  _atom_site_label
  _atom_site_symmetry_multiplicity
  _atom_site_fract_x
  _atom_site_fract_y
  _atom_site_fract_z
  _atom_site_occupancy
  _atom_site_charge
Cu  Cu1       1.0  0.50000  0.92985  0.50000  1.0000 0.850356679
Cu  Cu2       1.0  0.92985  0.50000  0.07015  1.0000 0.850356679
Cu  Cu3       1.0  0.50000  0.07015  0.50000  1.0000 0.850356679
Cu  Cu4       1.0  0.07015  0.50000  0.92985  1.0000 0.850356679
Cu  Cu5       1.0  0.50000  0.50000  0.07015  1.0000 0.850356679
Cu  Cu6       1.0  0.92985  0.07015  0.50000  1.0000 0.850356679
Cu  Cu7       1.0  0.50000  0.50000  0.92985  1.0000 0.850356679
Cu  Cu8       1.0  0.07015  0.92985  0.50000  1.0000 0.850356679
Cu  Cu9       1.0  0.50000  0.07015  0.92985  1.0000 0.850356679
Cu  Cu10      1.0  0.92985  0.50000  0.50000  1.0000 0.850356679
Cu  Cu11      1.0  0.50000  0.92985  0.07015  1.0000 0.850356679
Cu  Cu12      1.0  0.07015  0.50000  0.50000  1.0000 0.850356679
H   H1        1.0  0.46670  0.77230  0.77230  1.0000 0.1377714831
H   H2        1.0  0.77230  0.46670  0.98870  1.0000 0.1377714831
H   H3        1.0  0.77230  0.98870  0.46670  1.0000 0.1377714831
H   H4        1.0  0.98870  0.77230  0.77230  1.0000 0.1377714831
H   H5        1.0  0.46670  0.77230  0.98870  1.0000 0.1377714831
H   H6        1.0  0.77230  0.98870  0.77230  1.0000 0.1377714831
H   H7        1.0  0.77230  0.46670  0.77230  1.0000 0.1377714831
H   H8        1.0  0.98870  0.77230  0.46670  1.0000 0.1377714831
H   H9        1.0  0.46670  0.98870  0.77230  1.0000 0.1377714831
H   H10       1.0  0.77230  0.77230  0.46670  1.0000 0.1377714831
H   H11       1.0  0.77230  0.77230  0.98870  1.0000 0.1377714831
H   H12       1.0  0.98870  0.46670  0.77230  1.0000 0.1377714831
H   H13       1.0  0.22770  0.53330  0.22770  1.0000 0.1377714831
H   H14       1.0  0.53330  0.22770  0.01130  1.0000 0.1377714831
H   H15       1.0  0.01130  0.22770  0.53330  1.0000 0.1377714831
H   H16       1.0  0.22770  0.01130  0.22770  1.0000 0.1377714831
H   H17       1.0  0.22770  0.53330  0.01130  1.0000 0.1377714831
H   H18       1.0  0.01130  0.22770  0.22770  1.0000 0.1377714831
H   H19       1.0  0.53330  0.22770  0.22770  1.0000 0.1377714831
H   H20       1.0  0.22770  0.01130  0.53330  1.0000 0.1377714831
H   H21       1.0  0.01130  0.53330  0.22770  1.0000 0.1377714831
H   H22       1.0  0.22770  0.22770  0.53330  1.0000 0.1377714831
H   H23       1.0  0.22770  0.22770  0.01130  1.0000 0.1377714831
H   H24       1.0  0.53330  0.01130  0.22770  1.0000 0.1377714831
C   C1        1.0  0.47486  0.93090  0.66334  1.0000 0.579575378
C   C2        1.0  0.46748  0.88730  0.75792  1.0000 -0.0334378785
C   C3        1.0  0.93090  0.47486  0.93090  1.0000 0.579575378
C   C4        1.0  0.88730  0.46748  0.88730  1.0000 -0.0334378785
C   C5        1.0  0.66334  0.93090  0.47486  1.0000 0.579575378
C   C6        1.0  0.75792  0.88730  0.46748  1.0000 -0.0334378785
C   C7        1.0  0.93090  0.66334  0.93090  1.0000 0.579575378
C   C8        1.0  0.88730  0.75792  0.88730  1.0000 -0.0334378785
C   C9        1.0  0.47486  0.66334  0.93090  1.0000 0.579575378
C   C10       1.0  0.46748  0.75792  0.88730  1.0000 -0.0334378785
C   C11       1.0  0.93090  0.93090  0.66334  1.0000 0.579575378
C   C12       1.0  0.88730  0.88730  0.75792  1.0000 -0.0334378785
C   C13       1.0  0.66334  0.47486  0.93090  1.0000 0.579575378
C   C14       1.0  0.75792  0.46748  0.88730  1.0000 -0.0334378785
C   C15       1.0  0.93090  0.93090  0.47486  1.0000 0.579575378
C   C16       1.0  0.88730  0.88730  0.46748  1.0000 -0.0334378785
C   C17       1.0  0.47486  0.93090  0.93090  1.0000 0.579575378
C   C18       1.0  0.46748  0.88730  0.88730  1.0000 -0.0334378785
C   C19       1.0  0.93090  0.66334  0.47486  1.0000 0.579575378
C   C20       1.0  0.88730  0.75792  0.46748  1.0000 -0.0334378785
C   C21       1.0  0.66334  0.93090  0.93090  1.0000 0.579575378
C   C22       1.0  0.75792  0.88730  0.88730  1.0000 -0.0334378785
C   C23       1.0  0.93090  0.47486  0.66334  1.0000 0.579575378
C   C24       1.0  0.88730  0.46748  0.75792  1.0000 -0.0334378785
C   C25       1.0  0.06910  0.52514  0.33666  1.0000 0.579575378
C   C26       1.0  0.11270  0.53252  0.24208  1.0000 -0.0334378785
C   C27       1.0  0.52514  0.06910  0.06910  1.0000 0.579575378
C   C28       1.0  0.53252  0.11270  0.11270  1.0000 -0.0334378785
C   C29       1.0  0.06910  0.33666  0.52514  1.0000 0.579575378
C   C30       1.0  0.11270  0.24208  0.53252  1.0000 -0.0334378785
C   C31       1.0  0.33666  0.06910  0.06910  1.0000 0.579575378
C   C32       1.0  0.24208  0.11270  0.11270  1.0000 -0.0334378785
C   C33       1.0  0.33666  0.52514  0.06910  1.0000 0.579575378
C   C34       1.0  0.24208  0.53252  0.11270  1.0000 -0.0334378785
C   C35       1.0  0.06910  0.06910  0.33666  1.0000 0.579575378
C   C36       1.0  0.11270  0.11270  0.24208  1.0000 -0.0334378785
C   C37       1.0  0.52514  0.33666  0.06910  1.0000 0.579575378
C   C38       1.0  0.53252  0.24208  0.11270  1.0000 -0.0334378785
C   C39       1.0  0.06910  0.06910  0.52514  1.0000 0.579575378
C   C40       1.0  0.11270  0.11270  0.53252  1.0000 -0.0334378785
C   C41       1.0  0.06910  0.52514  0.06910  1.0000 0.579575378
C   C42       1.0  0.11270  0.53252  0.11270  1.0000 -0.0334378785
C   C43       1.0  0.33666  0.06910  0.52514  1.0000 0.579575378
C   C44       1.0  0.24208  0.11270  0.53252  1.0000 -0.0334378785
C   C45       1.0  0.06910  0.33666  0.06910  1.0000 0.579575378
C   C46       1.0  0.11270  0.24208  0.11270  1.0000 -0.0334378785
C   C47       1.0  0.52514  0.06910  0.33666  1.0000 0.579575378
C   C48       1.0  0.53252  0.11270  0.24208  1.0000 -0.0334378785
C   C49       1.0  0.46714  0.80100  0.80100  1.0000 -0.0801538907
C   C50       1.0  0.80100  0.46714  0.93086  1.0000 -0.0801538907
C   C51       1.0  0.80100  0.93086  0.46714  1.0000 -0.0801538907
C   C52       1.0  0.93086  0.80100  0.80100  1.0000 -0.0801538907
C   C53       1.0  0.46714  0.80100  0.93086  1.0000 -0.0801538907
C   C54       1.0  0.80100  0.93086  0.80100  1.0000 -0.0801538907
C   C55       1.0  0.80100  0.46714  0.80100  1.0000 -0.0801538907
C   C56       1.0  0.93086  0.80100  0.46714  1.0000 -0.0801538907
C   C57       1.0  0.46714  0.93086  0.80100  1.0000 -0.0801538907
C   C58       1.0  0.80100  0.80100  0.46714  1.0000 -0.0801538907
C   C59       1.0  0.80100  0.80100  0.93086  1.0000 -0.0801538907
C   C60       1.0  0.93086  0.46714  0.80100  1.0000 -0.0801538907
C   C61       1.0  0.19900  0.53286  0.19900  1.0000 -0.0801538907
C   C62       1.0  0.53286  0.19900  0.06914  1.0000 -0.0801538907
C   C63       1.0  0.06914  0.19900  0.53286  1.0000 -0.0801538907
C   C64       1.0  0.19900  0.06914  0.19900  1.0000 -0.0801538907
C   C65       1.0  0.19900  0.53286  0.06914  1.0000 -0.0801538907
C   C66       1.0  0.06914  0.19900  0.19900  1.0000 -0.0801538907
C   C67       1.0  0.53286  0.19900  0.19900  1.0000 -0.0801538907
C   C68       1.0  0.19900  0.06914  0.53286  1.0000 -0.0801538907
C   C69       1.0  0.06914  0.53286  0.19900  1.0000 -0.0801538907
C   C70       1.0  0.19900  0.19900  0.53286  1.0000 -0.0801538907
C   C71       1.0  0.19900  0.19900  0.06914  1.0000 -0.0801538907
C   C72       1.0  0.53286  0.06914  0.19900  1.0000 -0.0801538907
O   O1        1.0  0.47913  0.88721  0.62641  1.0000 -0.514132162
O   O2        1.0  0.88721  0.47913  0.00725  1.0000 -0.5153674375
O   O3        1.0  0.62641  0.00725  0.47913  1.0000 -0.514132162
O   O4        1.0  0.00725  0.62641  0.88721  1.0000 -0.514132162
O   O5        1.0  0.47913  0.62641  0.00725  1.0000 -0.514132162
O   O6        1.0  0.88721  0.00725  0.62641  1.0000 -0.514132162
O   O7        1.0  0.62641  0.47913  0.88721  1.0000 -0.514132162
O   O8        1.0  0.00725  0.88721  0.47913  1.0000 -0.5153674375
O   O9        1.0  0.47913  0.00725  0.88721  1.0000 -0.514132162
O   O10       1.0  0.88721  0.62641  0.47913  1.0000 -0.514132162
O   O11       1.0  0.62641  0.88721  0.00725  1.0000 -0.514132162
O   O12       1.0  0.00725  0.47913  0.62641  1.0000 -0.514132162
O   O13       1.0  0.11279  0.52087  0.37359  1.0000 -0.514132162
O   O14       1.0  0.52087  0.11279  0.99275  1.0000 -0.514132162
O   O15       1.0  0.99275  0.37359  0.52087  1.0000 -0.514132162
O   O16       1.0  0.37359  0.99275  0.11279  1.0000 -0.514132162
O   O17       1.0  0.37359  0.52087  0.99275  1.0000 -0.5153674375
O   O18       1.0  0.99275  0.11279  0.37359  1.0000 -0.514132162
O   O19       1.0  0.52087  0.37359  0.11279  1.0000 -0.5153674375
O   O20       1.0  0.11279  0.99275  0.52087  1.0000 -0.514132162
O   O21       1.0  0.99275  0.52087  0.11279  1.0000 -0.514132162
O   O22       1.0  0.37359  0.11279  0.52087  1.0000 -0.514132162
O   O23       1.0  0.11279  0.37359  0.99275  1.0000 -0.5153674375
O   O24       1.0  0.52087  0.99275  0.37359  1.0000 -0.514132162
O   O25       1.0  0.52087  0.11279  0.37359  1.0000 -0.514132162
O   O26       1.0  0.11279  0.52087  0.99275  1.0000 -0.514132162
O   O27       1.0  0.37359  0.99275  0.52087  1.0000 -0.514132162
O   O28       1.0  0.99275  0.37359  0.11279  1.0000 -0.5153674375
O   O29       1.0  0.52087  0.37359  0.99275  1.0000 -0.5153674375
O   O30       1.0  0.11279  0.99275  0.37359  1.0000 -0.514132162
O   O31       1.0  0.37359  0.52087  0.11279  1.0000 -0.5153674375
O   O32       1.0  0.99275  0.11279  0.52087  1.0000 -0.5153674375
O   O33       1.0  0.52087  0.99275  0.11279  1.0000 -0.5153674375
O   O34       1.0  0.11279  0.37359  0.52087  1.0000 -0.514132162
O   O35       1.0  0.37359  0.11279  0.99275  1.0000 -0.514132162
O   O36       1.0  0.99275  0.52087  0.37359  1.0000 -0.514132162
O   O37       1.0  0.88721  0.47913  0.62641  1.0000 -0.514132162
O   O38       1.0  0.47913  0.88721  0.00725  1.0000 -0.514132162
O   O39       1.0  0.00725  0.62641  0.47913  1.0000 -0.514132162
O   O40       1.0  0.62641  0.00725  0.88721  1.0000 -0.514132162
O   O41       1.0  0.62641  0.47913  0.00725  1.0000 -0.514132162
O   O42       1.0  0.00725  0.88721  0.62641  1.0000 -0.514132162
O   O43       1.0  0.47913  0.62641  0.88721  1.0000 -0.514132162
O   O44       1.0  0.88721  0.00725  0.47913  1.0000 -0.514132162
O   O45       1.0  0.00725  0.47913  0.88721  1.0000 -0.5153674375
O   O46       1.0  0.62641  0.88721  0.47913  1.0000 -0.5153674375
O   O47       1.0  0.88721  0.62641  0.00725  1.0000 -0.514132162
O   O48       1.0  0.47913  0.00725  0.62641  1.0000 -0.5153674375
