# DDEC6 charges by PACMAN v1.1 (https://github.com/mtap-research/PACMAN-charge/)
data_2009[Ni][xbe]3[ASR]1
_chemical_formula_sum              "Ni3 H8 C20 N12 O8"
_cell_length_a       8.1933
_cell_length_b       8.8646
_cell_length_c       12.3811
_cell_angle_alpha    67.7925
_cell_angle_beta     75.8743
_cell_angle_gamma    74.259

_symmetry_space_group_name_H-M    "P 1"
_symmetry_Int_Tables_number       1

loop_
  _symmetry_equiv_pos_as_xyz
  'x, y, z'

loop_
  _atom_site_type_symbol
  _atom_site_label
  _atom_site_symmetry_multiplicity
  _atom_site_fract_x
  _atom_site_fract_y
  _atom_site_fract_z
  _atom_site_occupancy
  _atom_site_charge
Ni  Ni1       1.0  0.50000  0.00000  0.50000  1.0000 0.8174642907
Ni  Ni2       1.0  0.97394  0.87707  0.17948  1.0000 0.4116600887
Ni  Ni3       1.0  0.02606  0.12293  0.82052  1.0000 0.4116600887
H   H1        1.0  0.96730  0.23210  0.54950  1.0000 0.1491544233
H   H2        1.0  0.03270  0.76790  0.45050  1.0000 0.1491544233
H   H3        1.0  0.80150  0.17260  0.45190  1.0000 0.1414489062
H   H4        1.0  0.19850  0.82740  0.54810  1.0000 0.1414489062
H   H5        1.0  0.56850  0.91580  0.75350  1.0000 0.1491544233
H   H6        1.0  0.43150  0.08420  0.24650  1.0000 0.1491544233
H   H7        1.0  0.62430  0.56550  0.30370  1.0000 0.1414489062
H   H8        1.0  0.37570  0.43450  0.69630  1.0000 0.1414489062
C   C1        1.0  0.75260  0.93990  0.89680  1.0000 0.2230977104
C   C2        1.0  0.24740  0.06010  0.10320  1.0000 0.2230977104
C   C3        1.0  0.75540  0.01010  0.76860  1.0000 0.1491544233
C   C4        1.0  0.24460  0.98990  0.23140  1.0000 0.1491544233
C   C5        1.0  0.88750  0.16530  0.59290  1.0000 0.0686335289
C   C6        1.0  0.11250  0.83470  0.40710  1.0000 0.0686335289
C   C7        1.0  0.78600  0.13070  0.53400  1.0000 0.0411809855
C   C8        1.0  0.21400  0.86930  0.46600  1.0000 0.0411809855
C   C9        1.0  0.65120  0.97930  0.71010  1.0000 0.0486003538
C   C10       1.0  0.34880  0.02070  0.28990  1.0000 0.0486003538
C   C11       1.0  0.72630  0.73920  0.39420  1.0000 0.585064231
C   C12       1.0  0.27370  0.26080  0.60580  1.0000 0.585064231
C   C13       1.0  0.60810  0.61610  0.45170  1.0000 -0.0485134101
C   C14       1.0  0.39190  0.38390  0.54830  1.0000 -0.0485134101
C   C15       1.0  0.53230  0.57630  0.57120  1.0000 -0.0346471775
C   C16       1.0  0.46770  0.42370  0.42880  1.0000 -0.0346471775
C   C17       1.0  0.54840  0.65990  0.65280  1.0000 0.5626851902
C   C18       1.0  0.45160  0.34010  0.34720  1.0000 0.5626851902
C   C19       1.0  0.57430  0.53910  0.38280  1.0000 -0.1292635514
C   C20       1.0  0.42570  0.46090  0.61720  1.0000 -0.1292635514
N   N1        1.0  0.86410  0.97006  0.94404  1.0000 -0.2171232342
N   N2        1.0  0.13590  0.02994  0.05596  1.0000 -0.2171232342
N   N3        1.0  0.83390  0.88414  0.05926  1.0000 -0.0122293937
N   N4        1.0  0.16610  0.11586  0.94074  1.0000 -0.0122293937
N   N5        1.0  0.70830  0.80570  0.08020  1.0000 -0.0485134101
N   N6        1.0  0.29170  0.19430  0.91980  1.0000 -0.0485134101
N   N7        1.0  0.65500  0.83940  0.97770  1.0000 -0.2171232342
N   N8        1.0  0.34500  0.16060  0.02230  1.0000 -0.2171232342
N   N9        1.0  0.87340  0.10503  0.71027  1.0000 -0.1666850015
N   N10       1.0  0.12660  0.89497  0.28973  1.0000 -0.1666850015
N   N11       1.0  0.66680  0.03907  0.59203  1.0000 -0.1596103175
N   N12       1.0  0.33320  0.96093  0.40797  1.0000 -0.1596103175
O   O1        1.0  0.84330  0.71130  0.31250  1.0000 -0.4775141343
O   O2        1.0  0.15670  0.28870  0.68750  1.0000 -0.4775141343
O   O3        1.0  0.70580  0.86111  0.42789  1.0000 -0.5418747081
O   O4        1.0  0.29420  0.13889  0.57211  1.0000 -0.5418747081
O   O5        1.0  0.45330  0.80148  0.64332  1.0000 -0.5494036092
O   O6        1.0  0.54670  0.19852  0.35668  1.0000 -0.5494036092
O   O7        1.0  0.64200  0.58670  0.72700  1.0000 -0.4775141343
O   O8        1.0  0.35800  0.41330  0.27300  1.0000 -0.4775141343
