# DDEC6 charges by PACMAN v1.1 (https://github.com/mtap-research/PACMAN-charge/)
data_2009[Fe][pcu]3[ASR]1
_chemical_formula_sum              "Fe24 H96 C192 O104"
_cell_length_a       19.2108
_cell_length_b       19.2108
_cell_length_c       19.2108
_cell_angle_alpha    90
_cell_angle_beta     90
_cell_angle_gamma    90

_symmetry_space_group_name_H-M    "P 1"
_symmetry_Int_Tables_number       1

loop_
  _symmetry_equiv_pos_as_xyz
  'x, y, z'

loop_
  _atom_site_type_symbol
  _atom_site_label
  _atom_site_symmetry_multiplicity
  _atom_site_fract_x
  _atom_site_fract_y
  _atom_site_fract_z
  _atom_site_occupancy
  _atom_site_charge
Fe  Fe1       1.0  0.85955  0.25738  0.10740  1.0000 1.2360928788
Fe  Fe2       1.0  0.64045  0.74262  0.60740  1.0000 1.2360928788
Fe  Fe3       1.0  0.14045  0.75738  0.39260  1.0000 1.2360928788
Fe  Fe4       1.0  0.35955  0.24262  0.89260  1.0000 1.2342834769
Fe  Fe5       1.0  0.10740  0.85955  0.25738  1.0000 1.2360928788
Fe  Fe6       1.0  0.60740  0.64045  0.74262  1.0000 1.2360928788
Fe  Fe7       1.0  0.39260  0.14045  0.75738  1.0000 1.2360928788
Fe  Fe8       1.0  0.89260  0.35955  0.24262  1.0000 1.2360928788
Fe  Fe9       1.0  0.25738  0.10740  0.85955  1.0000 1.2342834769
Fe  Fe10      1.0  0.74262  0.60740  0.64045  1.0000 1.2360928788
Fe  Fe11      1.0  0.75738  0.39260  0.14045  1.0000 1.2360928788
Fe  Fe12      1.0  0.24262  0.89260  0.35955  1.0000 1.2360928788
Fe  Fe13      1.0  0.14045  0.74262  0.89260  1.0000 1.2360928788
Fe  Fe14      1.0  0.35955  0.25738  0.39260  1.0000 1.2360928788
Fe  Fe15      1.0  0.85955  0.24262  0.60740  1.0000 1.2360928788
Fe  Fe16      1.0  0.64045  0.75738  0.10740  1.0000 1.2360928788
Fe  Fe17      1.0  0.89260  0.14045  0.74262  1.0000 1.2360928788
Fe  Fe18      1.0  0.39260  0.35955  0.25738  1.0000 1.2360928788
Fe  Fe19      1.0  0.60740  0.85955  0.24262  1.0000 1.2360928788
Fe  Fe20      1.0  0.10740  0.64045  0.75738  1.0000 1.2360928788
Fe  Fe21      1.0  0.74262  0.89260  0.14045  1.0000 1.2360928788
Fe  Fe22      1.0  0.25738  0.39260  0.35955  1.0000 1.2360928788
Fe  Fe23      1.0  0.24262  0.60740  0.85955  1.0000 1.2360928788
Fe  Fe24      1.0  0.75738  0.10740  0.64045  1.0000 1.2360928788
H   H1        1.0  0.74240  0.48090  0.81090  1.0000 0.1237472945
H   H2        1.0  0.75760  0.51910  0.31090  1.0000 0.1237472945
H   H3        1.0  0.25760  0.98090  0.68910  1.0000 0.1237472945
H   H4        1.0  0.24240  0.01910  0.18910  1.0000 0.1237472945
H   H5        1.0  0.81090  0.74240  0.48090  1.0000 0.1237472945
H   H6        1.0  0.31090  0.75760  0.51910  1.0000 0.1237472945
H   H7        1.0  0.68910  0.25760  0.98090  1.0000 0.1237472945
H   H8        1.0  0.18910  0.24240  0.01910  1.0000 0.1237472945
H   H9        1.0  0.48090  0.81090  0.74240  1.0000 0.1237472945
H   H10       1.0  0.51910  0.31090  0.75760  1.0000 0.1237472945
H   H11       1.0  0.98090  0.68910  0.25760  1.0000 0.1237472945
H   H12       1.0  0.01910  0.18910  0.24240  1.0000 0.1237472945
H   H13       1.0  0.25760  0.51910  0.18910  1.0000 0.1237472945
H   H14       1.0  0.24240  0.48090  0.68910  1.0000 0.1237472945
H   H15       1.0  0.74240  0.01910  0.31090  1.0000 0.1237472945
H   H16       1.0  0.75760  0.98090  0.81090  1.0000 0.1237472945
H   H17       1.0  0.18910  0.25760  0.51910  1.0000 0.1237472945
H   H18       1.0  0.68910  0.24240  0.48090  1.0000 0.1237472945
H   H19       1.0  0.31090  0.74240  0.01910  1.0000 0.1237472945
H   H20       1.0  0.81090  0.75760  0.98090  1.0000 0.1237472945
H   H21       1.0  0.51910  0.18910  0.25760  1.0000 0.1237472945
H   H22       1.0  0.48090  0.68910  0.24240  1.0000 0.1237472945
H   H23       1.0  0.01910  0.31090  0.74240  1.0000 0.1237472945
H   H24       1.0  0.98090  0.81090  0.75760  1.0000 0.1237472945
H   H25       1.0  0.74660  0.45770  0.92850  1.0000 0.1282123031
H   H26       1.0  0.75340  0.54230  0.42850  1.0000 0.1282123031
H   H27       1.0  0.25340  0.95770  0.57150  1.0000 0.1282123031
H   H28       1.0  0.24660  0.04230  0.07150  1.0000 0.1282123031
H   H29       1.0  0.92850  0.74660  0.45770  1.0000 0.1282123031
H   H30       1.0  0.42850  0.75340  0.54230  1.0000 0.1282123031
H   H31       1.0  0.57150  0.25340  0.95770  1.0000 0.1282123031
H   H32       1.0  0.07150  0.24660  0.04230  1.0000 0.1282123031
H   H33       1.0  0.45770  0.92850  0.74660  1.0000 0.1282123031
H   H34       1.0  0.54230  0.42850  0.75340  1.0000 0.1282123031
H   H35       1.0  0.95770  0.57150  0.25340  1.0000 0.1282123031
H   H36       1.0  0.04230  0.07150  0.24660  1.0000 0.1282123031
H   H37       1.0  0.25340  0.54230  0.07150  1.0000 0.1282123031
H   H38       1.0  0.24660  0.45770  0.57150  1.0000 0.1282123031
H   H39       1.0  0.74660  0.04230  0.42850  1.0000 0.1282123031
H   H40       1.0  0.75340  0.95770  0.92850  1.0000 0.1282123031
H   H41       1.0  0.07150  0.25340  0.54230  1.0000 0.1282123031
H   H42       1.0  0.57150  0.24660  0.45770  1.0000 0.1282123031
H   H43       1.0  0.42850  0.74660  0.04230  1.0000 0.1282123031
H   H44       1.0  0.92850  0.75340  0.95770  1.0000 0.1282123031
H   H45       1.0  0.54230  0.07150  0.25340  1.0000 0.1282123031
H   H46       1.0  0.45770  0.57150  0.24660  1.0000 0.1282123031
H   H47       1.0  0.04230  0.42850  0.74660  1.0000 0.1282123031
H   H48       1.0  0.95770  0.92850  0.75340  1.0000 0.1282123031
H   H49       1.0  0.87000  0.29320  0.89050  1.0000 0.1373952029
H   H50       1.0  0.63000  0.70680  0.39050  1.0000 0.1373952029
H   H51       1.0  0.13000  0.79320  0.60950  1.0000 0.1373952029
H   H52       1.0  0.37000  0.20680  0.10950  1.0000 0.1373952029
H   H53       1.0  0.89050  0.87000  0.29320  1.0000 0.1373952029
H   H54       1.0  0.39050  0.63000  0.70680  1.0000 0.1373952029
H   H55       1.0  0.60950  0.13000  0.79320  1.0000 0.1373952029
H   H56       1.0  0.10950  0.37000  0.20680  1.0000 0.1373952029
H   H57       1.0  0.29320  0.89050  0.87000  1.0000 0.1373952029
H   H58       1.0  0.70680  0.39050  0.63000  1.0000 0.1373952029
H   H59       1.0  0.79320  0.60950  0.13000  1.0000 0.1373952029
H   H60       1.0  0.20680  0.10950  0.37000  1.0000 0.1373952029
H   H61       1.0  0.13000  0.70680  0.10950  1.0000 0.1373952029
H   H62       1.0  0.37000  0.29320  0.60950  1.0000 0.1373952029
H   H63       1.0  0.87000  0.20680  0.39050  1.0000 0.1373952029
H   H64       1.0  0.63000  0.79320  0.89050  1.0000 0.1373952029
H   H65       1.0  0.10950  0.13000  0.70680  1.0000 0.1373952029
H   H66       1.0  0.60950  0.37000  0.29320  1.0000 0.1373952029
H   H67       1.0  0.39050  0.87000  0.20680  1.0000 0.1373952029
H   H68       1.0  0.89050  0.63000  0.79320  1.0000 0.1373952029
H   H69       1.0  0.70680  0.10950  0.13000  1.0000 0.1373952029
H   H70       1.0  0.29320  0.60950  0.37000  1.0000 0.1373952029
H   H71       1.0  0.20680  0.39050  0.87000  1.0000 0.1373952029
H   H72       1.0  0.79320  0.89050  0.63000  1.0000 0.1373952029
H   H73       1.0  0.80190  0.41190  0.73250  1.0000 0.1282123031
H   H74       1.0  0.69810  0.58810  0.23250  1.0000 0.1282123031
H   H75       1.0  0.19810  0.91190  0.76750  1.0000 0.1282123031
H   H76       1.0  0.30190  0.08810  0.26750  1.0000 0.1282123031
H   H77       1.0  0.73250  0.80190  0.41190  1.0000 0.1282123031
H   H78       1.0  0.23250  0.69810  0.58810  1.0000 0.1282123031
H   H79       1.0  0.76750  0.19810  0.91190  1.0000 0.1282123031
H   H80       1.0  0.26750  0.30190  0.08810  1.0000 0.1282123031
H   H81       1.0  0.41190  0.73250  0.80190  1.0000 0.1282123031
H   H82       1.0  0.58810  0.23250  0.69810  1.0000 0.1282123031
H   H83       1.0  0.91190  0.76750  0.19810  1.0000 0.1282123031
H   H84       1.0  0.08810  0.26750  0.30190  1.0000 0.1282123031
H   H85       1.0  0.19810  0.58810  0.26750  1.0000 0.1282123031
H   H86       1.0  0.30190  0.41190  0.76750  1.0000 0.1282123031
H   H87       1.0  0.80190  0.08810  0.23250  1.0000 0.1282123031
H   H88       1.0  0.69810  0.91190  0.73250  1.0000 0.1282123031
H   H89       1.0  0.26750  0.19810  0.58810  1.0000 0.1282123031
H   H90       1.0  0.76750  0.30190  0.41190  1.0000 0.1282123031
H   H91       1.0  0.23250  0.80190  0.08810  1.0000 0.1282123031
H   H92       1.0  0.73250  0.69810  0.91190  1.0000 0.1282123031
H   H93       1.0  0.58810  0.26750  0.19810  1.0000 0.1282123031
H   H94       1.0  0.41190  0.76750  0.30190  1.0000 0.1282123031
H   H95       1.0  0.08810  0.23250  0.80190  1.0000 0.1282123031
H   H96       1.0  0.91190  0.73250  0.69810  1.0000 0.1282123031
C   C1        1.0  0.76810  0.44310  0.82690  1.0000 -0.0880218588
C   C2        1.0  0.73190  0.55690  0.32690  1.0000 -0.0880218588
C   C3        1.0  0.23190  0.94310  0.67310  1.0000 -0.0880218588
C   C4        1.0  0.26810  0.05690  0.17310  1.0000 -0.0880218588
C   C5        1.0  0.82690  0.76810  0.44310  1.0000 -0.0880218588
C   C6        1.0  0.32690  0.73190  0.55690  1.0000 -0.0880218588
C   C7        1.0  0.67310  0.23190  0.94310  1.0000 -0.0880218588
C   C8        1.0  0.17310  0.26810  0.05690  1.0000 -0.0880218588
C   C9        1.0  0.44310  0.82690  0.76810  1.0000 -0.0880218588
C   C10       1.0  0.55690  0.32690  0.73190  1.0000 -0.0880218588
C   C11       1.0  0.94310  0.67310  0.23190  1.0000 -0.0880218588
C   C12       1.0  0.05690  0.17310  0.26810  1.0000 -0.0880218588
C   C13       1.0  0.23190  0.55690  0.17310  1.0000 -0.0880218588
C   C14       1.0  0.26810  0.44310  0.67310  1.0000 -0.0880218588
C   C15       1.0  0.76810  0.05690  0.32690  1.0000 -0.0880218588
C   C16       1.0  0.73190  0.94310  0.82690  1.0000 -0.0880218588
C   C17       1.0  0.17310  0.23190  0.55690  1.0000 -0.0880218588
C   C18       1.0  0.67310  0.26810  0.44310  1.0000 -0.0880218588
C   C19       1.0  0.32690  0.76810  0.05690  1.0000 -0.0880218588
C   C20       1.0  0.82690  0.73190  0.94310  1.0000 -0.0880218588
C   C21       1.0  0.55690  0.17310  0.23190  1.0000 -0.0880218588
C   C22       1.0  0.44310  0.67310  0.26810  1.0000 -0.0880218588
C   C23       1.0  0.05690  0.32690  0.76810  1.0000 -0.0880218588
C   C24       1.0  0.94310  0.82690  0.73190  1.0000 -0.0880218588
C   C25       1.0  0.77060  0.42960  0.89720  1.0000 -0.0880218588
C   C26       1.0  0.72940  0.57040  0.39720  1.0000 -0.0880218588
C   C27       1.0  0.22940  0.92960  0.60280  1.0000 -0.0880218588
C   C28       1.0  0.27060  0.07040  0.10280  1.0000 -0.0880218588
C   C29       1.0  0.89720  0.77060  0.42960  1.0000 -0.0880218588
C   C30       1.0  0.39720  0.72940  0.57040  1.0000 -0.0880218588
C   C31       1.0  0.60280  0.22940  0.92960  1.0000 -0.0880218588
C   C32       1.0  0.10280  0.27060  0.07040  1.0000 -0.0880218588
C   C33       1.0  0.42960  0.89720  0.77060  1.0000 -0.0880218588
C   C34       1.0  0.57040  0.39720  0.72940  1.0000 -0.0880218588
C   C35       1.0  0.92960  0.60280  0.22940  1.0000 -0.0880218588
C   C36       1.0  0.07040  0.10280  0.27060  1.0000 -0.0880218588
C   C37       1.0  0.22940  0.57040  0.10280  1.0000 -0.0880218588
C   C38       1.0  0.27060  0.42960  0.60280  1.0000 -0.0880218588
C   C39       1.0  0.77060  0.07040  0.39720  1.0000 -0.0880218588
C   C40       1.0  0.72940  0.92960  0.89720  1.0000 -0.0880218588
C   C41       1.0  0.10280  0.22940  0.57040  1.0000 -0.0880218588
C   C42       1.0  0.60280  0.27060  0.42960  1.0000 -0.0880218588
C   C43       1.0  0.39720  0.77060  0.07040  1.0000 -0.0880218588
C   C44       1.0  0.89720  0.72940  0.92960  1.0000 -0.0880218588
C   C45       1.0  0.57040  0.10280  0.22940  1.0000 -0.0880218588
C   C46       1.0  0.42960  0.60280  0.27060  1.0000 -0.0880218588
C   C47       1.0  0.07040  0.39720  0.77060  1.0000 -0.0880218588
C   C48       1.0  0.92960  0.89720  0.72940  1.0000 -0.0880218588
C   C49       1.0  0.80970  0.37340  0.92100  1.0000 -0.0341255611
C   C50       1.0  0.69030  0.62660  0.42100  1.0000 -0.0341255611
C   C51       1.0  0.19030  0.87340  0.57900  1.0000 -0.0341255611
C   C52       1.0  0.30970  0.12660  0.07900  1.0000 -0.0341255611
C   C53       1.0  0.92100  0.80970  0.37340  1.0000 -0.0341255611
C   C54       1.0  0.42100  0.69030  0.62660  1.0000 -0.0341255611
C   C55       1.0  0.57900  0.19030  0.87340  1.0000 -0.0341255611
C   C56       1.0  0.07900  0.30970  0.12660  1.0000 -0.0341255611
C   C57       1.0  0.37340  0.92100  0.80970  1.0000 -0.0341255611
C   C58       1.0  0.62660  0.42100  0.69030  1.0000 -0.0341255611
C   C59       1.0  0.87340  0.57900  0.19030  1.0000 -0.0341255611
C   C60       1.0  0.12660  0.07900  0.30970  1.0000 -0.0341255611
C   C61       1.0  0.19030  0.62660  0.07900  1.0000 -0.0341255611
C   C62       1.0  0.30970  0.37340  0.57900  1.0000 -0.0341255611
C   C63       1.0  0.80970  0.12660  0.42100  1.0000 -0.0341255611
C   C64       1.0  0.69030  0.87340  0.92100  1.0000 -0.0341255611
C   C65       1.0  0.07900  0.19030  0.62660  1.0000 -0.0341255611
C   C66       1.0  0.57900  0.30970  0.37340  1.0000 -0.0341255611
C   C67       1.0  0.42100  0.80970  0.12660  1.0000 -0.0341255611
C   C68       1.0  0.92100  0.69030  0.87340  1.0000 -0.0341255611
C   C69       1.0  0.62660  0.07900  0.19030  1.0000 -0.0341255611
C   C70       1.0  0.37340  0.57900  0.30970  1.0000 -0.0341255611
C   C71       1.0  0.12660  0.42100  0.80970  1.0000 -0.0341255611
C   C72       1.0  0.87340  0.92100  0.69030  1.0000 -0.0341255611
C   C73       1.0  0.84410  0.33080  0.87440  1.0000 -0.1066798123
C   C74       1.0  0.65590  0.66920  0.37440  1.0000 -0.1066798123
C   C75       1.0  0.15590  0.83080  0.62560  1.0000 -0.1066798123
C   C76       1.0  0.34410  0.16920  0.12560  1.0000 -0.1066798123
C   C77       1.0  0.87440  0.84410  0.33080  1.0000 -0.1066798123
C   C78       1.0  0.37440  0.65590  0.66920  1.0000 -0.1066798123
C   C79       1.0  0.62560  0.15590  0.83080  1.0000 -0.1066798123
C   C80       1.0  0.12560  0.34410  0.16920  1.0000 -0.1066798123
C   C81       1.0  0.33080  0.87440  0.84410  1.0000 -0.1066798123
C   C82       1.0  0.66920  0.37440  0.65590  1.0000 -0.1066798123
C   C83       1.0  0.83080  0.62560  0.15590  1.0000 -0.1066798123
C   C84       1.0  0.16920  0.12560  0.34410  1.0000 -0.1066798123
C   C85       1.0  0.15590  0.66920  0.12560  1.0000 -0.1066798123
C   C86       1.0  0.34410  0.33080  0.62560  1.0000 -0.1066798123
C   C87       1.0  0.84410  0.16920  0.37440  1.0000 -0.1066798123
C   C88       1.0  0.65590  0.83080  0.87440  1.0000 -0.1066798123
C   C89       1.0  0.12560  0.15590  0.66920  1.0000 -0.1066798123
C   C90       1.0  0.62560  0.34410  0.33080  1.0000 -0.1066798123
C   C91       1.0  0.37440  0.84410  0.16920  1.0000 -0.1066798123
C   C92       1.0  0.87440  0.65590  0.83080  1.0000 -0.1066798123
C   C93       1.0  0.66920  0.12560  0.15590  1.0000 -0.1066798123
C   C94       1.0  0.33080  0.62560  0.34410  1.0000 -0.1066798123
C   C95       1.0  0.16920  0.37440  0.84410  1.0000 -0.1066798123
C   C96       1.0  0.83080  0.87440  0.65590  1.0000 -0.1066798123
C   C97       1.0  0.83990  0.34410  0.80330  1.0000 -0.0366953427
C   C98       1.0  0.66010  0.65590  0.30330  1.0000 -0.0366953427
C   C99       1.0  0.16010  0.84410  0.69670  1.0000 -0.0366953427
C   C100      1.0  0.33990  0.15590  0.19670  1.0000 -0.0366953427
C   C101      1.0  0.80330  0.83990  0.34410  1.0000 -0.0366953427
C   C102      1.0  0.30330  0.66010  0.65590  1.0000 -0.0366953427
C   C103      1.0  0.69670  0.16010  0.84410  1.0000 -0.0366953427
C   C104      1.0  0.19670  0.33990  0.15590  1.0000 -0.0366953427
C   C105      1.0  0.34410  0.80330  0.83990  1.0000 -0.0366953427
C   C106      1.0  0.65590  0.30330  0.66010  1.0000 -0.0366953427
C   C107      1.0  0.84410  0.69670  0.16010  1.0000 -0.0366953427
C   C108      1.0  0.15590  0.19670  0.33990  1.0000 -0.0366953427
C   C109      1.0  0.16010  0.65590  0.19670  1.0000 -0.0366953427
C   C110      1.0  0.33990  0.34410  0.69670  1.0000 -0.0366953427
C   C111      1.0  0.83990  0.15590  0.30330  1.0000 -0.0366953427
C   C112      1.0  0.66010  0.84410  0.80330  1.0000 -0.0366953427
C   C113      1.0  0.19670  0.16010  0.65590  1.0000 -0.0366953427
C   C114      1.0  0.69670  0.33990  0.34410  1.0000 -0.0366953427
C   C115      1.0  0.30330  0.83990  0.15590  1.0000 -0.0366953427
C   C116      1.0  0.80330  0.66010  0.84410  1.0000 -0.0366953427
C   C117      1.0  0.65590  0.19670  0.16010  1.0000 -0.0366953427
C   C118      1.0  0.34410  0.69670  0.33990  1.0000 -0.0366953427
C   C119      1.0  0.15590  0.30330  0.83990  1.0000 -0.0366953427
C   C120      1.0  0.84410  0.80330  0.66010  1.0000 -0.0366953427
C   C121      1.0  0.80310  0.40150  0.77980  1.0000 -0.0880218588
C   C122      1.0  0.69690  0.59850  0.27980  1.0000 -0.0880218588
C   C123      1.0  0.19690  0.90150  0.72020  1.0000 -0.0880218588
C   C124      1.0  0.30310  0.09850  0.22020  1.0000 -0.0880218588
C   C125      1.0  0.77980  0.80310  0.40150  1.0000 -0.0880218588
C   C126      1.0  0.27980  0.69690  0.59850  1.0000 -0.0880218588
C   C127      1.0  0.72020  0.19690  0.90150  1.0000 -0.0880218588
C   C128      1.0  0.22020  0.30310  0.09850  1.0000 -0.0880218588
C   C129      1.0  0.40150  0.77980  0.80310  1.0000 -0.0880218588
C   C130      1.0  0.59850  0.27980  0.69690  1.0000 -0.0880218588
C   C131      1.0  0.90150  0.72020  0.19690  1.0000 -0.0880218588
C   C132      1.0  0.09850  0.22020  0.30310  1.0000 -0.0880218588
C   C133      1.0  0.19690  0.59850  0.22020  1.0000 -0.0880218588
C   C134      1.0  0.30310  0.40150  0.72020  1.0000 -0.0880218588
C   C135      1.0  0.80310  0.09850  0.27980  1.0000 -0.0880218588
C   C136      1.0  0.69690  0.90150  0.77980  1.0000 -0.0880218588
C   C137      1.0  0.22020  0.19690  0.59850  1.0000 -0.0880218588
C   C138      1.0  0.72020  0.30310  0.40150  1.0000 -0.0880218588
C   C139      1.0  0.27980  0.80310  0.09850  1.0000 -0.0880218588
C   C140      1.0  0.77980  0.69690  0.90150  1.0000 -0.0880218588
C   C141      1.0  0.59850  0.22020  0.19690  1.0000 -0.0880218588
C   C142      1.0  0.40150  0.72020  0.30310  1.0000 -0.0880218588
C   C143      1.0  0.09850  0.27980  0.80310  1.0000 -0.0880218588
C   C144      1.0  0.90150  0.77980  0.69690  1.0000 -0.0880218588
C   C145      1.0  0.81170  0.35700  0.99710  1.0000 0.6068369596
C   C146      1.0  0.68830  0.64300  0.49710  1.0000 0.6068369596
C   C147      1.0  0.18830  0.85700  0.50290  1.0000 0.6068369596
C   C148      1.0  0.31170  0.14300  0.00290  1.0000 0.6068369596
C   C149      1.0  0.99710  0.81170  0.35700  1.0000 0.6068369596
C   C150      1.0  0.49710  0.68830  0.64300  1.0000 0.6068369596
C   C151      1.0  0.50290  0.18830  0.85700  1.0000 0.6068369596
C   C152      1.0  0.00290  0.31170  0.14300  1.0000 0.6068369596
C   C153      1.0  0.35700  0.99710  0.81170  1.0000 0.6068369596
C   C154      1.0  0.64300  0.49710  0.68830  1.0000 0.6068369596
C   C155      1.0  0.85700  0.50290  0.18830  1.0000 0.6068369596
C   C156      1.0  0.14300  0.00290  0.31170  1.0000 0.6068369596
C   C157      1.0  0.18830  0.64300  0.00290  1.0000 0.6068369596
C   C158      1.0  0.31170  0.35700  0.50290  1.0000 0.6068369596
C   C159      1.0  0.81170  0.14300  0.49710  1.0000 0.6068369596
C   C160      1.0  0.68830  0.85700  0.99710  1.0000 0.6068369596
C   C161      1.0  0.00290  0.18830  0.64300  1.0000 0.6068369596
C   C162      1.0  0.50290  0.31170  0.35700  1.0000 0.6068369596
C   C163      1.0  0.49710  0.81170  0.14300  1.0000 0.6068369596
C   C164      1.0  0.99710  0.68830  0.85700  1.0000 0.6068369596
C   C165      1.0  0.64300  0.00290  0.18830  1.0000 0.6068369596
C   C166      1.0  0.35700  0.50290  0.31170  1.0000 0.6068369596
C   C167      1.0  0.14300  0.49710  0.81170  1.0000 0.6068369596
C   C168      1.0  0.85700  0.99710  0.68830  1.0000 0.6068369596
C   C169      1.0  0.87100  0.29380  0.75330  1.0000 0.599209517
C   C170      1.0  0.62900  0.70620  0.25330  1.0000 0.599209517
C   C171      1.0  0.12900  0.79380  0.74670  1.0000 0.599209517
C   C172      1.0  0.37100  0.20620  0.24670  1.0000 0.599209517
C   C173      1.0  0.75330  0.87100  0.29380  1.0000 0.599209517
C   C174      1.0  0.25330  0.62900  0.70620  1.0000 0.599209517
C   C175      1.0  0.74670  0.12900  0.79380  1.0000 0.599209517
C   C176      1.0  0.24670  0.37100  0.20620  1.0000 0.599209517
C   C177      1.0  0.29380  0.75330  0.87100  1.0000 0.599209517
C   C178      1.0  0.70620  0.25330  0.62900  1.0000 0.599209517
C   C179      1.0  0.79380  0.74670  0.12900  1.0000 0.599209517
C   C180      1.0  0.20620  0.24670  0.37100  1.0000 0.599209517
C   C181      1.0  0.12900  0.70620  0.24670  1.0000 0.599209517
C   C182      1.0  0.37100  0.29380  0.74670  1.0000 0.599209517
C   C183      1.0  0.87100  0.20620  0.25330  1.0000 0.599209517
C   C184      1.0  0.62900  0.79380  0.75330  1.0000 0.599209517
C   C185      1.0  0.24670  0.12900  0.70620  1.0000 0.599209517
C   C186      1.0  0.74670  0.37100  0.29380  1.0000 0.599209517
C   C187      1.0  0.25330  0.87100  0.20620  1.0000 0.599209517
C   C188      1.0  0.75330  0.62900  0.79380  1.0000 0.599209517
C   C189      1.0  0.70620  0.24670  0.12900  1.0000 0.599209517
C   C190      1.0  0.29380  0.74670  0.37100  1.0000 0.599209517
C   C191      1.0  0.20620  0.25330  0.87100  1.0000 0.599209517
C   C192      1.0  0.79380  0.75330  0.62900  1.0000 0.599209517
O   O1        1.0  0.84928  0.30658  0.01617  1.0000 -0.5497726286
O   O2        1.0  0.65072  0.69342  0.51617  1.0000 -0.5497726286
O   O3        1.0  0.15072  0.80658  0.48383  1.0000 -0.5497726286
O   O4        1.0  0.34928  0.19342  0.98383  1.0000 -0.5497726286
O   O5        1.0  0.01617  0.84928  0.30658  1.0000 -0.5497726286
O   O6        1.0  0.51617  0.65072  0.69342  1.0000 -0.5497726286
O   O7        1.0  0.48383  0.15072  0.80658  1.0000 -0.5497726286
O   O8        1.0  0.98383  0.34928  0.19342  1.0000 -0.5497726286
O   O9        1.0  0.30658  0.01617  0.84928  1.0000 -0.5497726286
O   O10       1.0  0.69342  0.51617  0.65072  1.0000 -0.5497726286
O   O11       1.0  0.80658  0.48383  0.15072  1.0000 -0.5497726286
O   O12       1.0  0.19342  0.98383  0.34928  1.0000 -0.5497726286
O   O13       1.0  0.15072  0.69342  0.98383  1.0000 -0.5497726286
O   O14       1.0  0.34928  0.30658  0.48383  1.0000 -0.5497726286
O   O15       1.0  0.84928  0.19342  0.51617  1.0000 -0.5497726286
O   O16       1.0  0.65072  0.80658  0.01617  1.0000 -0.5497726286
O   O17       1.0  0.98383  0.15072  0.69342  1.0000 -0.5497726286
O   O18       1.0  0.48383  0.34928  0.30658  1.0000 -0.5497726286
O   O19       1.0  0.51617  0.84928  0.19342  1.0000 -0.5497726286
O   O20       1.0  0.01617  0.65072  0.80658  1.0000 -0.5497726286
O   O21       1.0  0.69342  0.98383  0.15072  1.0000 -0.5497726286
O   O22       1.0  0.30658  0.48383  0.34928  1.0000 -0.5497726286
O   O23       1.0  0.19342  0.51617  0.84928  1.0000 -0.5497726286
O   O24       1.0  0.80658  0.01617  0.65072  1.0000 -0.5497726286
O   O25       1.0  0.77604  0.39451  0.03761  1.0000 -0.5588040056
O   O26       1.0  0.72396  0.60549  0.53761  1.0000 -0.5588040056
O   O27       1.0  0.22396  0.89451  0.46239  1.0000 -0.5588040056
O   O28       1.0  0.27604  0.10549  0.96239  1.0000 -0.5588040056
O   O29       1.0  0.03761  0.77604  0.39451  1.0000 -0.5588040056
O   O30       1.0  0.53761  0.72396  0.60549  1.0000 -0.5588040056
O   O31       1.0  0.46239  0.22396  0.89451  1.0000 -0.5588040056
O   O32       1.0  0.96239  0.27604  0.10549  1.0000 -0.5588040056
O   O33       1.0  0.39451  0.03761  0.77604  1.0000 -0.5588040056
O   O34       1.0  0.60549  0.53761  0.72396  1.0000 -0.5588040056
O   O35       1.0  0.89451  0.46239  0.22396  1.0000 -0.5588040056
O   O36       1.0  0.10549  0.96239  0.27604  1.0000 -0.5588040056
O   O37       1.0  0.22396  0.60549  0.96239  1.0000 -0.5588040056
O   O38       1.0  0.27604  0.39451  0.46239  1.0000 -0.5588040056
O   O39       1.0  0.77604  0.10549  0.53761  1.0000 -0.5588040056
O   O40       1.0  0.72396  0.89451  0.03761  1.0000 -0.5588040056
O   O41       1.0  0.96239  0.22396  0.60549  1.0000 -0.5588040056
O   O42       1.0  0.46239  0.27604  0.39451  1.0000 -0.5588040056
O   O43       1.0  0.53761  0.77604  0.10549  1.0000 -0.5588040056
O   O44       1.0  0.03761  0.72396  0.89451  1.0000 -0.5588040056
O   O45       1.0  0.60549  0.96239  0.22396  1.0000 -0.5588040056
O   O46       1.0  0.39451  0.46239  0.27604  1.0000 -0.5588040056
O   O47       1.0  0.10549  0.53761  0.77604  1.0000 -0.5588040056
O   O48       1.0  0.89451  0.03761  0.72396  1.0000 -0.5588040056
O   O49       1.0  0.86700  0.30826  0.68933  1.0000 -0.5497726286
O   O50       1.0  0.63300  0.69174  0.18933  1.0000 -0.5497726286
O   O51       1.0  0.13300  0.80826  0.81067  1.0000 -0.5497726286
O   O52       1.0  0.36700  0.19174  0.31067  1.0000 -0.5497726286
O   O53       1.0  0.68933  0.86700  0.30826  1.0000 -0.5497726286
O   O54       1.0  0.18933  0.63300  0.69174  1.0000 -0.5497726286
O   O55       1.0  0.81067  0.13300  0.80826  1.0000 -0.5497726286
O   O56       1.0  0.31067  0.36700  0.19174  1.0000 -0.5497726286
O   O57       1.0  0.30826  0.68933  0.86700  1.0000 -0.5497726286
O   O58       1.0  0.69174  0.18933  0.63300  1.0000 -0.5497726286
O   O59       1.0  0.80826  0.81067  0.13300  1.0000 -0.5497726286
O   O60       1.0  0.19174  0.31067  0.36700  1.0000 -0.5497726286
O   O61       1.0  0.13300  0.69174  0.31067  1.0000 -0.5497726286
O   O62       1.0  0.36700  0.30826  0.81067  1.0000 -0.5497726286
O   O63       1.0  0.86700  0.19174  0.18933  1.0000 -0.5497726286
O   O64       1.0  0.63300  0.80826  0.68933  1.0000 -0.5497726286
O   O65       1.0  0.31067  0.13300  0.69174  1.0000 -0.5497726286
O   O66       1.0  0.81067  0.36700  0.30826  1.0000 -0.5497726286
O   O67       1.0  0.18933  0.86700  0.19174  1.0000 -0.5497726286
O   O68       1.0  0.68933  0.63300  0.80826  1.0000 -0.5497726286
O   O69       1.0  0.69174  0.31067  0.13300  1.0000 -0.5497726286
O   O70       1.0  0.30826  0.81067  0.36700  1.0000 -0.5497726286
O   O71       1.0  0.19174  0.18933  0.86700  1.0000 -0.5497726286
O   O72       1.0  0.80826  0.68933  0.63300  1.0000 -0.5497726286
O   O73       1.0  0.89845  0.23927  0.77714  1.0000 -0.5497726286
O   O74       1.0  0.60155  0.76073  0.27714  1.0000 -0.5497726286
O   O75       1.0  0.10155  0.73927  0.72286  1.0000 -0.5497726286
O   O76       1.0  0.39845  0.26073  0.22286  1.0000 -0.5497726286
O   O77       1.0  0.77714  0.89845  0.23927  1.0000 -0.5497726286
O   O78       1.0  0.27714  0.60155  0.76073  1.0000 -0.5497726286
O   O79       1.0  0.72286  0.10155  0.73927  1.0000 -0.5497726286
O   O80       1.0  0.22286  0.39845  0.26073  1.0000 -0.5497726286
O   O81       1.0  0.23927  0.77714  0.89845  1.0000 -0.5497726286
O   O82       1.0  0.76073  0.27714  0.60155  1.0000 -0.5497726286
O   O83       1.0  0.73927  0.72286  0.10155  1.0000 -0.5497726286
O   O84       1.0  0.26073  0.22286  0.39845  1.0000 -0.5497726286
O   O85       1.0  0.10155  0.76073  0.22286  1.0000 -0.5497726286
O   O86       1.0  0.39845  0.23927  0.72286  1.0000 -0.5497726286
O   O87       1.0  0.89845  0.26073  0.27714  1.0000 -0.5497726286
O   O88       1.0  0.60155  0.73927  0.77714  1.0000 -0.5497726286
O   O89       1.0  0.22286  0.10155  0.76073  1.0000 -0.5497726286
O   O90       1.0  0.72286  0.39845  0.23927  1.0000 -0.5497726286
O   O91       1.0  0.27714  0.89845  0.26073  1.0000 -0.5497726286
O   O92       1.0  0.77714  0.60155  0.73927  1.0000 -0.5497726286
O   O93       1.0  0.76073  0.22286  0.10155  1.0000 -0.5497726286
O   O94       1.0  0.23927  0.72286  0.39845  1.0000 -0.5497726286
O   O95       1.0  0.26073  0.27714  0.89845  1.0000 -0.5497726286
O   O96       1.0  0.73927  0.77714  0.60155  1.0000 -0.5497726286
O   O97       1.0  0.83642  0.33642  0.16358  1.0000 -0.9296024742
O   O98       1.0  0.66358  0.66358  0.66358  1.0000 -0.9296024742
O   O99       1.0  0.16358  0.83642  0.33642  1.0000 -0.9296024742
O   O100      1.0  0.33642  0.16358  0.83642  1.0000 -0.9296024742
O   O101      1.0  0.16358  0.66358  0.83642  1.0000 -0.9296024742
O   O102      1.0  0.33642  0.33642  0.33642  1.0000 -0.9296024742
O   O103      1.0  0.83642  0.16358  0.66358  1.0000 -0.9296024742
O   O104      1.0  0.66358  0.83642  0.16358  1.0000 -0.9296024742
