# DDEC6 charges by PACMAN v1.1 (https://github.com/mtap-research/PACMAN-charge/)
data_2009[Ni][acs]3[ASR]1
_chemical_formula_sum              "Ni6 H48 C96 O26"
_cell_length_a       15.551
_cell_length_b       15.551
_cell_length_c       16.364
_cell_angle_alpha    90
_cell_angle_beta     90
_cell_angle_gamma    120

_symmetry_space_group_name_H-M    "P 1"
_symmetry_Int_Tables_number       1

loop_
  _symmetry_equiv_pos_as_xyz
  'x, y, z'

loop_
  _atom_site_type_symbol
  _atom_site_label
  _atom_site_symmetry_multiplicity
  _atom_site_fract_x
  _atom_site_fract_y
  _atom_site_fract_z
  _atom_site_occupancy
  _atom_site_charge
Ni  Ni1       1.0  0.52000  0.26000  0.25000  1.0000 1.0199119228
Ni  Ni2       1.0  0.74000  0.26000  0.25000  1.0000 1.0199119228
Ni  Ni3       1.0  0.74000  0.48000  0.25000  1.0000 1.0199119228
Ni  Ni4       1.0  0.48000  0.74000  0.75000  1.0000 1.0199119228
Ni  Ni5       1.0  0.26000  0.74000  0.75000  1.0000 1.0199119228
Ni  Ni6       1.0  0.26000  0.52000  0.75000  1.0000 1.0199119228
H   H1        1.0  0.54780  0.30820  0.01970  1.0000 0.1298911263
H   H2        1.0  0.69180  0.23960  0.01970  1.0000 0.1298911263
H   H3        1.0  0.76040  0.45220  0.01970  1.0000 0.1298911263
H   H4        1.0  0.69180  0.45220  0.48030  1.0000 0.1298911263
H   H5        1.0  0.76040  0.30820  0.48030  1.0000 0.1298911263
H   H6        1.0  0.54780  0.23960  0.48030  1.0000 0.1298911263
H   H7        1.0  0.45220  0.69180  0.98030  1.0000 0.1298911263
H   H8        1.0  0.30820  0.76040  0.98030  1.0000 0.1298911263
H   H9        1.0  0.23960  0.54780  0.98030  1.0000 0.1298911263
H   H10       1.0  0.30820  0.54780  0.51970  1.0000 0.1298911263
H   H11       1.0  0.23960  0.69180  0.51970  1.0000 0.1298911263
H   H12       1.0  0.45220  0.76040  0.51970  1.0000 0.1298911263
H   H13       1.0  0.56020  0.57350  0.19850  1.0000 0.1249814111
H   H14       1.0  0.42650  0.98670  0.19850  1.0000 0.1298911263
H   H15       1.0  0.01330  0.43980  0.19850  1.0000 0.1249814111
H   H16       1.0  0.42650  0.43980  0.30150  1.0000 0.1298911263
H   H17       1.0  0.01330  0.57350  0.30150  1.0000 0.1249814111
H   H18       1.0  0.56020  0.98670  0.30150  1.0000 0.1298911263
H   H19       1.0  0.43980  0.42650  0.80150  1.0000 0.1249814111
H   H20       1.0  0.57350  0.01330  0.80150  1.0000 0.1249814111
H   H21       1.0  0.98670  0.56020  0.80150  1.0000 0.1249814111
H   H22       1.0  0.57350  0.56020  0.69850  1.0000 0.1298911263
H   H23       1.0  0.98670  0.42650  0.69850  1.0000 0.1298911263
H   H24       1.0  0.43980  0.01330  0.69850  1.0000 0.1249814111
H   H25       1.0  0.52120  0.23630  0.89310  1.0000 0.1122209982
H   H26       1.0  0.76370  0.28490  0.89310  1.0000 0.1122209982
H   H27       1.0  0.71510  0.47880  0.89310  1.0000 0.1122209982
H   H28       1.0  0.76370  0.47880  0.60690  1.0000 0.1122209982
H   H29       1.0  0.71510  0.23630  0.60690  1.0000 0.1122209982
H   H30       1.0  0.52120  0.28490  0.60690  1.0000 0.1122209982
H   H31       1.0  0.47880  0.76370  0.10690  1.0000 0.1122209982
H   H32       1.0  0.23630  0.71510  0.10690  1.0000 0.1122209982
H   H33       1.0  0.28490  0.52120  0.10690  1.0000 0.1122209982
H   H34       1.0  0.23630  0.52120  0.39310  1.0000 0.1122209982
H   H35       1.0  0.28490  0.76370  0.39310  1.0000 0.1122209982
H   H36       1.0  0.47880  0.71510  0.39310  1.0000 0.1122209982
H   H37       1.0  0.53520  0.70460  0.21630  1.0000 0.1122209982
H   H38       1.0  0.29540  0.83060  0.21630  1.0000 0.1122209982
H   H39       1.0  0.16940  0.46480  0.21630  1.0000 0.1122209982
H   H40       1.0  0.29540  0.46480  0.28370  1.0000 0.1122209982
H   H41       1.0  0.16940  0.70460  0.28370  1.0000 0.1122209982
H   H42       1.0  0.53520  0.83060  0.28370  1.0000 0.1122209982
H   H43       1.0  0.46480  0.29540  0.78370  1.0000 0.1122209982
H   H44       1.0  0.70460  0.16940  0.78370  1.0000 0.1122209982
H   H45       1.0  0.83060  0.53520  0.78370  1.0000 0.1122209982
H   H46       1.0  0.70460  0.53520  0.71630  1.0000 0.1122209982
H   H47       1.0  0.83060  0.29540  0.71630  1.0000 0.1122209982
H   H48       1.0  0.46480  0.16940  0.71630  1.0000 0.1122209982
C   C1        1.0  0.53470  0.46630  0.06512  1.0000 -0.0912324635
C   C2        1.0  0.53370  0.06840  0.06512  1.0000 -0.0912324635
C   C3        1.0  0.93160  0.46530  0.06512  1.0000 -0.0912324635
C   C4        1.0  0.53370  0.46530  0.43488  1.0000 -0.0912324635
C   C5        1.0  0.93160  0.46630  0.43488  1.0000 -0.0912324635
C   C6        1.0  0.53470  0.06840  0.43488  1.0000 -0.0912324635
C   C7        1.0  0.46530  0.53370  0.93488  1.0000 -0.0912324635
C   C8        1.0  0.46630  0.93160  0.93488  1.0000 -0.0912324635
C   C9        1.0  0.06840  0.53470  0.93488  1.0000 -0.0912324635
C   C10       1.0  0.46630  0.53470  0.56512  1.0000 -0.0912324635
C   C11       1.0  0.06840  0.53370  0.56512  1.0000 -0.0912324635
C   C12       1.0  0.46530  0.93160  0.56512  1.0000 -0.0912324635
C   C13       1.0  0.57310  0.43130  0.13614  1.0000 0.5983008522
C   C14       1.0  0.56870  0.14180  0.13614  1.0000 0.5983008522
C   C15       1.0  0.85820  0.42690  0.13614  1.0000 0.5983008522
C   C16       1.0  0.56870  0.42690  0.36386  1.0000 0.5983008522
C   C17       1.0  0.85820  0.43130  0.36386  1.0000 0.5983008522
C   C18       1.0  0.57310  0.14180  0.36386  1.0000 0.5983008522
C   C19       1.0  0.42690  0.56870  0.86386  1.0000 0.5983008522
C   C20       1.0  0.43130  0.85820  0.86386  1.0000 0.5983008522
C   C21       1.0  0.14180  0.57310  0.86386  1.0000 0.5983008522
C   C22       1.0  0.43130  0.57310  0.63614  1.0000 0.5983008522
C   C23       1.0  0.14180  0.56870  0.63614  1.0000 0.5983008522
C   C24       1.0  0.42690  0.85820  0.63614  1.0000 0.5983008522
C   C25       1.0  0.51980  0.54660  0.07650  1.0000 0.0546487572
C   C26       1.0  0.45340  0.97320  0.07650  1.0000 0.0546487572
C   C27       1.0  0.02680  0.48020  0.07650  1.0000 0.0546487572
C   C28       1.0  0.45340  0.48020  0.42350  1.0000 0.0566532712
C   C29       1.0  0.02680  0.54660  0.42350  1.0000 0.0546487572
C   C30       1.0  0.51980  0.97320  0.42350  1.0000 0.0546487572
C   C31       1.0  0.48020  0.45340  0.92350  1.0000 0.0546487572
C   C32       1.0  0.54660  0.02680  0.92350  1.0000 0.0546487572
C   C33       1.0  0.97320  0.51980  0.92350  1.0000 0.0546487572
C   C34       1.0  0.54660  0.51980  0.57650  1.0000 0.0546487572
C   C35       1.0  0.97320  0.45340  0.57650  1.0000 0.0546487572
C   C36       1.0  0.48020  0.02680  0.57650  1.0000 0.0546487572
C   C37       1.0  0.51510  0.41860  0.98950  1.0000 0.0566532712
C   C38       1.0  0.58140  0.09650  0.98950  1.0000 0.0566532712
C   C39       1.0  0.90350  0.48490  0.98950  1.0000 0.0566532712
C   C40       1.0  0.58140  0.48490  0.51050  1.0000 0.0566532712
C   C41       1.0  0.90350  0.41860  0.51050  1.0000 0.0566532712
C   C42       1.0  0.51510  0.09650  0.51050  1.0000 0.0566532712
C   C43       1.0  0.48490  0.58140  0.01050  1.0000 0.0566532712
C   C44       1.0  0.41860  0.90350  0.01050  1.0000 0.0566532712
C   C45       1.0  0.09650  0.51510  0.01050  1.0000 0.0566532712
C   C46       1.0  0.41860  0.51510  0.48950  1.0000 0.0566532712
C   C47       1.0  0.09650  0.58140  0.48950  1.0000 0.0566532712
C   C48       1.0  0.48490  0.90350  0.48950  1.0000 0.0566532712
C   C49       1.0  0.52750  0.33400  0.97590  1.0000 -0.1244311703
C   C50       1.0  0.66600  0.19350  0.97590  1.0000 -0.1244311703
C   C51       1.0  0.80650  0.47250  0.97590  1.0000 -0.1244311703
C   C52       1.0  0.66600  0.47250  0.52410  1.0000 -0.1244311703
C   C53       1.0  0.80650  0.33400  0.52410  1.0000 -0.1244311703
C   C54       1.0  0.52750  0.19350  0.52410  1.0000 -0.1244311703
C   C55       1.0  0.47250  0.66600  0.02410  1.0000 -0.1244311703
C   C56       1.0  0.33400  0.80650  0.02410  1.0000 -0.1244311703
C   C57       1.0  0.19350  0.52750  0.02410  1.0000 -0.1244311703
C   C58       1.0  0.33400  0.52750  0.47590  1.0000 -0.1244311703
C   C59       1.0  0.19350  0.66600  0.47590  1.0000 -0.1244311703
C   C60       1.0  0.47250  0.80650  0.47590  1.0000 -0.1244311703
C   C61       1.0  0.53760  0.59600  0.15380  1.0000 -0.1336723116
C   C62       1.0  0.40400  0.94160  0.15380  1.0000 -0.1336723116
C   C63       1.0  0.05840  0.46240  0.15380  1.0000 -0.1336723116
C   C64       1.0  0.40400  0.46240  0.34620  1.0000 -0.1336723116
C   C65       1.0  0.05840  0.59600  0.34620  1.0000 -0.1336723116
C   C66       1.0  0.53760  0.94160  0.34620  1.0000 -0.1336723116
C   C67       1.0  0.46240  0.40400  0.84620  1.0000 -0.1336723116
C   C68       1.0  0.59600  0.05840  0.84620  1.0000 -0.1336723116
C   C69       1.0  0.94160  0.53760  0.84620  1.0000 -0.1336723116
C   C70       1.0  0.59600  0.53760  0.65380  1.0000 -0.1336723116
C   C71       1.0  0.94160  0.40400  0.65380  1.0000 -0.1336723116
C   C72       1.0  0.46240  0.05840  0.65380  1.0000 -0.1336723116
C   C73       1.0  0.51060  0.29070  0.90160  1.0000 -0.0912324635
C   C74       1.0  0.70930  0.21990  0.90160  1.0000 -0.0912324635
C   C75       1.0  0.78010  0.48940  0.90160  1.0000 -0.0912324635
C   C76       1.0  0.70930  0.48940  0.59840  1.0000 -0.0912324635
C   C77       1.0  0.78010  0.29070  0.59840  1.0000 -0.0912324635
C   C78       1.0  0.51060  0.21990  0.59840  1.0000 -0.0912324635
C   C79       1.0  0.48940  0.70930  0.09840  1.0000 -0.0912324635
C   C80       1.0  0.29070  0.78010  0.09840  1.0000 -0.0912324635
C   C81       1.0  0.21990  0.51060  0.09840  1.0000 -0.0912324635
C   C82       1.0  0.29070  0.51060  0.40160  1.0000 -0.0912324635
C   C83       1.0  0.21990  0.70930  0.40160  1.0000 -0.0912324635
C   C84       1.0  0.48940  0.78010  0.40160  1.0000 -0.0912324635
C   C85       1.0  0.52310  0.67340  0.16430  1.0000 -0.0912324635
C   C86       1.0  0.32660  0.84970  0.16430  1.0000 -0.0912324635
C   C87       1.0  0.15030  0.47690  0.16430  1.0000 -0.0912324635
C   C88       1.0  0.32660  0.47690  0.33570  1.0000 -0.0912324635
C   C89       1.0  0.15030  0.67340  0.33570  1.0000 -0.0912324635
C   C90       1.0  0.52310  0.84970  0.33570  1.0000 -0.0912324635
C   C91       1.0  0.47690  0.32660  0.83570  1.0000 -0.0912324635
C   C92       1.0  0.67340  0.15030  0.83570  1.0000 -0.0912324635
C   C93       1.0  0.84970  0.52310  0.83570  1.0000 -0.0912324635
C   C94       1.0  0.67340  0.52310  0.66430  1.0000 -0.0912324635
C   C95       1.0  0.84970  0.32660  0.66430  1.0000 -0.0912324635
C   C96       1.0  0.47690  0.15030  0.66430  1.0000 -0.0912324635
O   O1        1.0  0.66667  0.33333  0.25000  1.0000 -0.8438263756
O   O2        1.0  0.33333  0.66667  0.75000  1.0000 -0.8438263756
O   O3        1.0  0.50899  0.35858  0.17434  1.0000 -0.5142840731
O   O4        1.0  0.64142  0.15041  0.17434  1.0000 -0.5142840731
O   O5        1.0  0.84959  0.49101  0.17434  1.0000 -0.5152366978
O   O6        1.0  0.64142  0.49101  0.32566  1.0000 -0.5142840731
O   O7        1.0  0.84959  0.35858  0.32566  1.0000 -0.5142840731
O   O8        1.0  0.50899  0.15041  0.32566  1.0000 -0.5142840731
O   O9        1.0  0.49101  0.64142  0.82566  1.0000 -0.5142840731
O   O10       1.0  0.35858  0.84959  0.82566  1.0000 -0.5142840731
O   O11       1.0  0.15041  0.50899  0.82566  1.0000 -0.5142840731
O   O12       1.0  0.35858  0.50899  0.67434  1.0000 -0.5142840731
O   O13       1.0  0.15041  0.64142  0.67434  1.0000 -0.5142840731
O   O14       1.0  0.49101  0.84959  0.67434  1.0000 -0.5142840731
O   O15       1.0  0.66449  0.48082  0.14853  1.0000 -0.5142840731
O   O16       1.0  0.51918  0.18367  0.14853  1.0000 -0.5142840731
O   O17       1.0  0.81633  0.33551  0.14853  1.0000 -0.5142840731
O   O18       1.0  0.51918  0.33551  0.35147  1.0000 -0.5142840731
O   O19       1.0  0.81633  0.48082  0.35147  1.0000 -0.5142840731
O   O20       1.0  0.66449  0.18367  0.35147  1.0000 -0.5142840731
O   O21       1.0  0.33551  0.51918  0.85147  1.0000 -0.5142840731
O   O22       1.0  0.48082  0.81633  0.85147  1.0000 -0.5142840731
O   O23       1.0  0.18367  0.66449  0.85147  1.0000 -0.5142840731
O   O24       1.0  0.48082  0.66449  0.64853  1.0000 -0.5142840731
O   O25       1.0  0.18367  0.51918  0.64853  1.0000 -0.5142840731
O   O26       1.0  0.33551  0.81633  0.64853  1.0000 -0.5142840731
