# DDEC6 charges by PACMAN v1.1 (https://github.com/mtap-research/PACMAN-charge/)
data_2009[Zn][npo]3[ASR]1
_chemical_formula_sum              "Zn24 H72 C144 N120 Cl48 O48"
_cell_length_a       26.307
_cell_length_b       26.307
_cell_length_c       19.361
_cell_angle_alpha    90
_cell_angle_beta     90
_cell_angle_gamma    120

_symmetry_space_group_name_H-M    "P 1"
_symmetry_Int_Tables_number       1

loop_
  _symmetry_equiv_pos_as_xyz
  'x, y, z'

loop_
  _atom_site_type_symbol
  _atom_site_label
  _atom_site_symmetry_multiplicity
  _atom_site_fract_x
  _atom_site_fract_y
  _atom_site_fract_z
  _atom_site_occupancy
  _atom_site_charge
Zn  Zn1       1.0  0.89586  0.33205  0.40570  1.0000 0.6928778324
Zn  Zn2       1.0  0.66795  0.56381  0.40570  1.0000 0.6928778324
Zn  Zn3       1.0  0.43619  0.10414  0.40570  1.0000 0.6928778324
Zn  Zn4       1.0  0.10414  0.66795  0.90570  1.0000 0.6928778324
Zn  Zn5       1.0  0.33205  0.43619  0.90570  1.0000 0.6928778324
Zn  Zn6       1.0  0.56381  0.89586  0.90570  1.0000 0.6928778324
Zn  Zn7       1.0  0.33205  0.89586  0.59430  1.0000 0.6928778324
Zn  Zn8       1.0  0.56381  0.66795  0.59430  1.0000 0.6928778324
Zn  Zn9       1.0  0.10414  0.43619  0.59430  1.0000 0.6928778324
Zn  Zn10      1.0  0.66795  0.10414  0.09430  1.0000 0.6928778324
Zn  Zn11      1.0  0.43619  0.33205  0.09430  1.0000 0.6928778324
Zn  Zn12      1.0  0.89586  0.56381  0.09430  1.0000 0.6928778324
Zn  Zn13      1.0  0.10414  0.66795  0.59430  1.0000 0.6928778324
Zn  Zn14      1.0  0.33205  0.43619  0.59430  1.0000 0.6928778324
Zn  Zn15      1.0  0.56381  0.89586  0.59430  1.0000 0.6928778324
Zn  Zn16      1.0  0.89586  0.33205  0.09430  1.0000 0.6928778324
Zn  Zn17      1.0  0.66795  0.56381  0.09430  1.0000 0.6928778324
Zn  Zn18      1.0  0.43619  0.10414  0.09430  1.0000 0.6928778324
Zn  Zn19      1.0  0.66795  0.10414  0.40570  1.0000 0.6928778324
Zn  Zn20      1.0  0.43619  0.33205  0.40570  1.0000 0.6928778324
Zn  Zn21      1.0  0.89586  0.56381  0.40570  1.0000 0.6928778324
Zn  Zn22      1.0  0.33205  0.89586  0.90570  1.0000 0.6928778324
Zn  Zn23      1.0  0.56381  0.66795  0.90570  1.0000 0.6928778324
Zn  Zn24      1.0  0.10414  0.43619  0.90570  1.0000 0.6928778324
H   H1        1.0  0.78100  0.21900  0.35360  1.0000 0.1110610463
H   H2        1.0  0.78100  0.56200  0.35360  1.0000 0.1110610463
H   H3        1.0  0.43800  0.21900  0.35360  1.0000 0.1110610463
H   H4        1.0  0.21900  0.78100  0.85360  1.0000 0.1110610463
H   H5        1.0  0.21900  0.43800  0.85360  1.0000 0.1110610463
H   H6        1.0  0.56200  0.78100  0.85360  1.0000 0.1110610463
H   H7        1.0  0.21900  0.78100  0.64640  1.0000 0.1110610463
H   H8        1.0  0.56200  0.78100  0.64640  1.0000 0.1110610463
H   H9        1.0  0.21900  0.43800  0.64640  1.0000 0.1110610463
H   H10       1.0  0.78100  0.21900  0.14640  1.0000 0.1110610463
H   H11       1.0  0.43800  0.21900  0.14640  1.0000 0.1110610463
H   H12       1.0  0.78100  0.56200  0.14640  1.0000 0.1110610463
H   H13       1.0  0.00000  0.42530  0.50000  1.0000 0.1158857045
H   H14       1.0  0.57470  0.57470  0.50000  1.0000 0.1158857045
H   H15       1.0  0.42530  0.00000  0.50000  1.0000 0.1158857045
H   H16       1.0  0.00000  0.57470  0.00000  1.0000 0.1158857045
H   H17       1.0  0.42530  0.42530  0.00000  1.0000 0.1158857045
H   H18       1.0  0.57470  0.00000  0.00000  1.0000 0.1158857045
H   H19       1.0  0.00000  0.57470  0.50000  1.0000 0.1158857045
H   H20       1.0  0.42530  0.42530  0.50000  1.0000 0.1158857045
H   H21       1.0  0.57470  0.00000  0.50000  1.0000 0.1158857045
H   H22       1.0  0.00000  0.42530  0.00000  1.0000 0.1158857045
H   H23       1.0  0.57470  0.57470  0.00000  1.0000 0.1158857045
H   H24       1.0  0.42530  0.00000  0.00000  1.0000 0.1158857045
H   H25       1.0  0.81470  0.35990  0.49750  1.0000 0.1158857045
H   H26       1.0  0.64010  0.45480  0.49750  1.0000 0.1158857045
H   H27       1.0  0.54520  0.18530  0.49750  1.0000 0.1158857045
H   H28       1.0  0.18530  0.64010  0.99750  1.0000 0.1158857045
H   H29       1.0  0.35990  0.54520  0.99750  1.0000 0.1158857045
H   H30       1.0  0.45480  0.81470  0.99750  1.0000 0.1110610463
H   H31       1.0  0.35990  0.81470  0.50250  1.0000 0.1158857045
H   H32       1.0  0.45480  0.64010  0.50250  1.0000 0.1158857045
H   H33       1.0  0.18530  0.54520  0.50250  1.0000 0.1158857045
H   H34       1.0  0.64010  0.18530  0.00250  1.0000 0.1158857045
H   H35       1.0  0.54520  0.35990  0.00250  1.0000 0.1158857045
H   H36       1.0  0.81470  0.45480  0.00250  1.0000 0.1158857045
H   H37       1.0  0.18530  0.64010  0.50250  1.0000 0.1158857045
H   H38       1.0  0.35990  0.54520  0.50250  1.0000 0.1158857045
H   H39       1.0  0.45480  0.81470  0.50250  1.0000 0.1110610463
H   H40       1.0  0.81470  0.35990  0.00250  1.0000 0.1158857045
H   H41       1.0  0.64010  0.45480  0.00250  1.0000 0.1158857045
H   H42       1.0  0.54520  0.18530  0.00250  1.0000 0.1158857045
H   H43       1.0  0.64010  0.18530  0.49750  1.0000 0.1158857045
H   H44       1.0  0.54520  0.35990  0.49750  1.0000 0.1158857045
H   H45       1.0  0.81470  0.45480  0.49750  1.0000 0.1158857045
H   H46       1.0  0.35990  0.81470  0.99750  1.0000 0.1158857045
H   H47       1.0  0.45480  0.64010  0.99750  1.0000 0.1110610463
H   H48       1.0  0.18530  0.54520  0.99750  1.0000 0.1158857045
H   H49       1.0  0.99290  0.32150  0.31260  1.0000 0.1158857045
H   H50       1.0  0.67850  0.67140  0.31260  1.0000 0.1158857045
H   H51       1.0  0.32860  0.00710  0.31260  1.0000 0.1158857045
H   H52       1.0  0.00710  0.67850  0.81260  1.0000 0.1158857045
H   H53       1.0  0.32150  0.32860  0.81260  1.0000 0.1158857045
H   H54       1.0  0.67140  0.99290  0.81260  1.0000 0.1158857045
H   H55       1.0  0.32150  0.99290  0.68740  1.0000 0.1158857045
H   H56       1.0  0.67140  0.67850  0.68740  1.0000 0.1158857045
H   H57       1.0  0.00710  0.32860  0.68740  1.0000 0.1158857045
H   H58       1.0  0.67850  0.00710  0.18740  1.0000 0.1158857045
H   H59       1.0  0.32860  0.32150  0.18740  1.0000 0.1158857045
H   H60       1.0  0.99290  0.67140  0.18740  1.0000 0.1158857045
H   H61       1.0  0.00710  0.67850  0.68740  1.0000 0.1158857045
H   H62       1.0  0.32150  0.32860  0.68740  1.0000 0.1158857045
H   H63       1.0  0.67140  0.99290  0.68740  1.0000 0.1158857045
H   H64       1.0  0.99290  0.32150  0.18740  1.0000 0.1158857045
H   H65       1.0  0.67850  0.67140  0.18740  1.0000 0.1158857045
H   H66       1.0  0.32860  0.00710  0.18740  1.0000 0.1158857045
H   H67       1.0  0.67850  0.00710  0.31260  1.0000 0.1158857045
H   H68       1.0  0.32860  0.32150  0.31260  1.0000 0.1158857045
H   H69       1.0  0.99290  0.67140  0.31260  1.0000 0.1158857045
H   H70       1.0  0.32150  0.99290  0.81260  1.0000 0.1158857045
H   H71       1.0  0.67140  0.67850  0.81260  1.0000 0.1158857045
H   H72       1.0  0.00710  0.32860  0.81260  1.0000 0.1158857045
C   C1        1.0  0.78230  0.21770  0.40200  1.0000 0.1584443433
C   C2        1.0  0.78230  0.56460  0.40200  1.0000 0.1584443433
C   C3        1.0  0.43540  0.21770  0.40200  1.0000 0.1584443433
C   C4        1.0  0.21770  0.78230  0.90200  1.0000 0.1584443433
C   C5        1.0  0.21770  0.43540  0.90200  1.0000 0.1584443433
C   C6        1.0  0.56460  0.78230  0.90200  1.0000 0.1584443433
C   C7        1.0  0.21770  0.78230  0.59800  1.0000 0.1584443433
C   C8        1.0  0.56460  0.78230  0.59800  1.0000 0.1584443433
C   C9        1.0  0.21770  0.43540  0.59800  1.0000 0.1584443433
C   C10       1.0  0.78230  0.21770  0.09800  1.0000 0.1584443433
C   C11       1.0  0.43540  0.21770  0.09800  1.0000 0.1584443433
C   C12       1.0  0.78230  0.56460  0.09800  1.0000 0.1584443433
C   C13       1.0  0.81000  0.24010  0.51090  1.0000 0.1110610463
C   C14       1.0  0.75990  0.56990  0.51090  1.0000 0.1110610463
C   C15       1.0  0.43010  0.19000  0.51090  1.0000 0.1110610463
C   C16       1.0  0.19000  0.75990  0.01090  1.0000 0.1110610463
C   C17       1.0  0.24010  0.43010  0.01090  1.0000 0.1110610463
C   C18       1.0  0.56990  0.81000  0.01090  1.0000 0.1110610463
C   C19       1.0  0.24010  0.81000  0.48910  1.0000 0.1110610463
C   C20       1.0  0.56990  0.75990  0.48910  1.0000 0.1110610463
C   C21       1.0  0.19000  0.43010  0.48910  1.0000 0.1110610463
C   C22       1.0  0.75990  0.19000  0.98910  1.0000 0.1110610463
C   C23       1.0  0.43010  0.24010  0.98910  1.0000 0.1110610463
C   C24       1.0  0.81000  0.56990  0.98910  1.0000 0.1110610463
C   C25       1.0  0.19000  0.75990  0.48910  1.0000 0.1110610463
C   C26       1.0  0.24010  0.43010  0.48910  1.0000 0.1110610463
C   C27       1.0  0.56990  0.81000  0.48910  1.0000 0.1110610463
C   C28       1.0  0.81000  0.24010  0.98910  1.0000 0.1110610463
C   C29       1.0  0.75990  0.56990  0.98910  1.0000 0.1110610463
C   C30       1.0  0.43010  0.19000  0.98910  1.0000 0.1110610463
C   C31       1.0  0.75990  0.19000  0.51090  1.0000 0.1110610463
C   C32       1.0  0.43010  0.24010  0.51090  1.0000 0.1110610463
C   C33       1.0  0.81000  0.56990  0.51090  1.0000 0.1110610463
C   C34       1.0  0.24010  0.81000  0.01090  1.0000 0.1110610463
C   C35       1.0  0.56990  0.75990  0.01090  1.0000 0.1110610463
C   C36       1.0  0.19000  0.43010  0.01090  1.0000 0.1110610463
C   C37       1.0  0.00000  0.39000  0.50000  1.0000 0.2073043459
C   C38       1.0  0.61000  0.61000  0.50000  1.0000 0.2073043459
C   C39       1.0  0.39000  0.00000  0.50000  1.0000 0.2040755682
C   C40       1.0  0.00000  0.61000  0.00000  1.0000 0.2040755682
C   C41       1.0  0.39000  0.39000  0.00000  1.0000 0.2073043459
C   C42       1.0  0.61000  0.00000  0.00000  1.0000 0.2073043459
C   C43       1.0  0.00000  0.61000  0.50000  1.0000 0.2073043459
C   C44       1.0  0.39000  0.39000  0.50000  1.0000 0.2073043459
C   C45       1.0  0.61000  0.00000  0.50000  1.0000 0.2073043459
C   C46       1.0  0.00000  0.39000  0.00000  1.0000 0.2073043459
C   C47       1.0  0.61000  0.61000  0.00000  1.0000 0.2073043459
C   C48       1.0  0.39000  0.00000  0.00000  1.0000 0.2073043459
C   C49       1.0  0.97910  0.29660  0.47680  1.0000 0.1110610463
C   C50       1.0  0.70340  0.68250  0.47680  1.0000 0.1110610463
C   C51       1.0  0.31750  0.02090  0.47680  1.0000 0.1110610463
C   C52       1.0  0.02090  0.70340  0.97680  1.0000 0.1110610463
C   C53       1.0  0.29660  0.31750  0.97680  1.0000 0.1110610463
C   C54       1.0  0.68250  0.97910  0.97680  1.0000 0.1110610463
C   C55       1.0  0.29660  0.97910  0.52320  1.0000 0.1110610463
C   C56       1.0  0.68250  0.70340  0.52320  1.0000 0.1110610463
C   C57       1.0  0.02090  0.31750  0.52320  1.0000 0.1110610463
C   C58       1.0  0.70340  0.02090  0.02320  1.0000 0.1110610463
C   C59       1.0  0.31750  0.29660  0.02320  1.0000 0.1110610463
C   C60       1.0  0.97910  0.68250  0.02320  1.0000 0.1110610463
C   C61       1.0  0.02090  0.70340  0.52320  1.0000 0.1110610463
C   C62       1.0  0.29660  0.31750  0.52320  1.0000 0.1110610463
C   C63       1.0  0.68250  0.97910  0.52320  1.0000 0.1110610463
C   C64       1.0  0.97910  0.29660  0.02320  1.0000 0.1110610463
C   C65       1.0  0.70340  0.68250  0.02320  1.0000 0.1110610463
C   C66       1.0  0.31750  0.02090  0.02320  1.0000 0.1110610463
C   C67       1.0  0.70340  0.02090  0.47680  1.0000 0.1110610463
C   C68       1.0  0.31750  0.29660  0.47680  1.0000 0.1110610463
C   C69       1.0  0.97910  0.68250  0.47680  1.0000 0.1110610463
C   C70       1.0  0.29660  0.97910  0.97680  1.0000 0.1110610463
C   C71       1.0  0.68250  0.70340  0.97680  1.0000 0.1110610463
C   C72       1.0  0.02090  0.31750  0.97680  1.0000 0.1110610463
C   C73       1.0  0.90700  0.45330  0.41300  1.0000 0.3414627397
C   C74       1.0  0.54670  0.45370  0.41300  1.0000 0.3414627397
C   C75       1.0  0.54630  0.09300  0.41300  1.0000 0.3414627397
C   C76       1.0  0.09300  0.54670  0.91300  1.0000 0.3414627397
C   C77       1.0  0.45330  0.54630  0.91300  1.0000 0.3414627397
C   C78       1.0  0.45370  0.90700  0.91300  1.0000 0.3414627397
C   C79       1.0  0.45330  0.90700  0.58700  1.0000 0.3414627397
C   C80       1.0  0.45370  0.54670  0.58700  1.0000 0.3414627397
C   C81       1.0  0.09300  0.54630  0.58700  1.0000 0.3414627397
C   C82       1.0  0.54670  0.09300  0.08700  1.0000 0.3414627397
C   C83       1.0  0.54630  0.45330  0.08700  1.0000 0.3414627397
C   C84       1.0  0.90700  0.45370  0.08700  1.0000 0.3414627397
C   C85       1.0  0.84090  0.39380  0.47380  1.0000 -0.007256951
C   C86       1.0  0.60620  0.44710  0.47380  1.0000 -0.007256951
C   C87       1.0  0.55290  0.15910  0.47380  1.0000 -0.007256951
C   C88       1.0  0.15910  0.60620  0.97380  1.0000 -0.007256951
C   C89       1.0  0.39380  0.55290  0.97380  1.0000 -0.007256951
C   C90       1.0  0.44710  0.84090  0.97380  1.0000 -0.007256951
C   C91       1.0  0.39380  0.84090  0.52620  1.0000 -0.007256951
C   C92       1.0  0.44710  0.60620  0.52620  1.0000 -0.007256951
C   C93       1.0  0.15910  0.55290  0.52620  1.0000 -0.007256951
C   C94       1.0  0.60620  0.15910  0.02620  1.0000 -0.007256951
C   C95       1.0  0.55290  0.39380  0.02620  1.0000 -0.007256951
C   C96       1.0  0.84090  0.44710  0.02620  1.0000 -0.007256951
C   C97       1.0  0.15910  0.60620  0.52620  1.0000 -0.007256951
C   C98       1.0  0.39380  0.55290  0.52620  1.0000 -0.007256951
C   C99       1.0  0.44710  0.84090  0.52620  1.0000 -0.007256951
C   C100      1.0  0.84090  0.39380  0.02620  1.0000 -0.007256951
C   C101      1.0  0.60620  0.44710  0.02620  1.0000 -0.007256951
C   C102      1.0  0.55290  0.15910  0.02620  1.0000 -0.007256951
C   C103      1.0  0.60620  0.15910  0.47380  1.0000 -0.007256951
C   C104      1.0  0.55290  0.39380  0.47380  1.0000 -0.007256951
C   C105      1.0  0.84090  0.44710  0.47380  1.0000 -0.007256951
C   C106      1.0  0.39380  0.84090  0.97380  1.0000 -0.007256951
C   C107      1.0  0.44710  0.60620  0.97380  1.0000 -0.007256951
C   C108      1.0  0.15910  0.55290  0.97380  1.0000 -0.007256951
C   C109      1.0  0.88980  0.32380  0.25000  1.0000 0.2942248019
C   C110      1.0  0.67620  0.56600  0.25000  1.0000 0.2942248019
C   C111      1.0  0.43400  0.11020  0.25000  1.0000 0.2942248019
C   C112      1.0  0.11020  0.67620  0.75000  1.0000 0.2942248019
C   C113      1.0  0.32380  0.43400  0.75000  1.0000 0.2942248019
C   C114      1.0  0.56600  0.88980  0.75000  1.0000 0.2942248019
C   C115      1.0  0.32380  0.88980  0.75000  1.0000 0.2942248019
C   C116      1.0  0.56600  0.67620  0.75000  1.0000 0.2942248019
C   C117      1.0  0.11020  0.43400  0.75000  1.0000 0.2942248019
C   C118      1.0  0.67620  0.11020  0.25000  1.0000 0.2942248019
C   C119      1.0  0.43400  0.32380  0.25000  1.0000 0.2942248019
C   C120      1.0  0.88980  0.56600  0.25000  1.0000 0.2942248019
C   C121      1.0  0.96450  0.32290  0.28520  1.0000 -0.0020763358
C   C122      1.0  0.67710  0.64160  0.28520  1.0000 -0.0020763358
C   C123      1.0  0.35840  0.03550  0.28520  1.0000 -0.0020763358
C   C124      1.0  0.03550  0.67710  0.78520  1.0000 -0.0020763358
C   C125      1.0  0.32290  0.35840  0.78520  1.0000 -0.0020763358
C   C126      1.0  0.64160  0.96450  0.78520  1.0000 -0.0020763358
C   C127      1.0  0.32290  0.96450  0.71480  1.0000 -0.0020763358
C   C128      1.0  0.64160  0.67710  0.71480  1.0000 -0.0020763358
C   C129      1.0  0.03550  0.35840  0.71480  1.0000 -0.0020763358
C   C130      1.0  0.67710  0.03550  0.21480  1.0000 -0.0020763358
C   C131      1.0  0.35840  0.32290  0.21480  1.0000 -0.0020763358
C   C132      1.0  0.96450  0.64160  0.21480  1.0000 -0.0020763358
C   C133      1.0  0.03550  0.67710  0.71480  1.0000 -0.0020763358
C   C134      1.0  0.32290  0.35840  0.71480  1.0000 -0.0020763358
C   C135      1.0  0.64160  0.96450  0.71480  1.0000 -0.0020763358
C   C136      1.0  0.96450  0.32290  0.21480  1.0000 -0.0020763358
C   C137      1.0  0.67710  0.64160  0.21480  1.0000 -0.0020763358
C   C138      1.0  0.35840  0.03550  0.21480  1.0000 -0.0020763358
C   C139      1.0  0.67710  0.03550  0.28520  1.0000 -0.0020763358
C   C140      1.0  0.35840  0.32290  0.28520  1.0000 -0.0020763358
C   C141      1.0  0.96450  0.64160  0.28520  1.0000 -0.0020763358
C   C142      1.0  0.32290  0.96450  0.78520  1.0000 -0.0020763358
C   C143      1.0  0.64160  0.67710  0.78520  1.0000 -0.0020763358
C   C144      1.0  0.03550  0.35840  0.78520  1.0000 -0.0020763358
N   N1        1.0  0.82620  0.25920  0.44370  1.0000 -0.3295770531
N   N2        1.0  0.74080  0.56700  0.44370  1.0000 -0.3295770531
N   N3        1.0  0.43300  0.17380  0.44370  1.0000 -0.3295770531
N   N4        1.0  0.17380  0.74080  0.94370  1.0000 -0.3295770531
N   N5        1.0  0.25920  0.43300  0.94370  1.0000 -0.3295770531
N   N6        1.0  0.56700  0.82620  0.94370  1.0000 -0.3295770531
N   N7        1.0  0.25920  0.82620  0.55630  1.0000 -0.3295770531
N   N8        1.0  0.56700  0.74080  0.55630  1.0000 -0.3295770531
N   N9        1.0  0.17380  0.43300  0.55630  1.0000 -0.3295770531
N   N10       1.0  0.74080  0.17380  0.05630  1.0000 -0.3295770531
N   N11       1.0  0.43300  0.25920  0.05630  1.0000 -0.3295770531
N   N12       1.0  0.82620  0.56700  0.05630  1.0000 -0.3295770531
N   N13       1.0  0.17380  0.74080  0.55630  1.0000 -0.3295770531
N   N14       1.0  0.25920  0.43300  0.55630  1.0000 -0.3295770531
N   N15       1.0  0.56700  0.82620  0.55630  1.0000 -0.3295770531
N   N16       1.0  0.82620  0.25920  0.05630  1.0000 -0.3295770531
N   N17       1.0  0.74080  0.56700  0.05630  1.0000 -0.3295770531
N   N18       1.0  0.43300  0.17380  0.05630  1.0000 -0.3295770531
N   N19       1.0  0.74080  0.17380  0.44370  1.0000 -0.3295770531
N   N20       1.0  0.43300  0.25920  0.44370  1.0000 -0.3295770531
N   N21       1.0  0.82620  0.56700  0.44370  1.0000 -0.3295770531
N   N22       1.0  0.25920  0.82620  0.94370  1.0000 -0.3295770531
N   N23       1.0  0.56700  0.74080  0.94370  1.0000 -0.3295770531
N   N24       1.0  0.17380  0.43300  0.94370  1.0000 -0.3295770531
N   N25       1.0  0.96340  0.33920  0.46330  1.0000 -0.3295770531
N   N26       1.0  0.66080  0.62420  0.46330  1.0000 -0.3295770531
N   N27       1.0  0.37580  0.03660  0.46330  1.0000 -0.3295770531
N   N28       1.0  0.03660  0.66080  0.96330  1.0000 -0.3295770531
N   N29       1.0  0.33920  0.37580  0.96330  1.0000 -0.3295770531
N   N30       1.0  0.62420  0.96340  0.96330  1.0000 -0.3295770531
N   N31       1.0  0.33920  0.96340  0.53670  1.0000 -0.3295770531
N   N32       1.0  0.62420  0.66080  0.53670  1.0000 -0.3295770531
N   N33       1.0  0.03660  0.37580  0.53670  1.0000 -0.3295770531
N   N34       1.0  0.66080  0.03660  0.03670  1.0000 -0.3295770531
N   N35       1.0  0.37580  0.33920  0.03670  1.0000 -0.3295770531
N   N36       1.0  0.96340  0.62420  0.03670  1.0000 -0.3295770531
N   N37       1.0  0.03660  0.66080  0.53670  1.0000 -0.3295770531
N   N38       1.0  0.33920  0.37580  0.53670  1.0000 -0.3295770531
N   N39       1.0  0.62420  0.96340  0.53670  1.0000 -0.3295770531
N   N40       1.0  0.96340  0.33920  0.03670  1.0000 -0.3295770531
N   N41       1.0  0.66080  0.62420  0.03670  1.0000 -0.3295770531
N   N42       1.0  0.37580  0.03660  0.03670  1.0000 -0.3295770531
N   N43       1.0  0.66080  0.03660  0.46330  1.0000 -0.3295770531
N   N44       1.0  0.37580  0.33920  0.46330  1.0000 -0.3295770531
N   N45       1.0  0.96340  0.62420  0.46330  1.0000 -0.3295770531
N   N46       1.0  0.33920  0.96340  0.96330  1.0000 -0.3295770531
N   N47       1.0  0.62420  0.66080  0.96330  1.0000 -0.3295770531
N   N48       1.0  0.03660  0.37580  0.96330  1.0000 -0.3295770531
N   N49       1.0  0.88680  0.40030  0.43230  1.0000 -0.322593564
N   N50       1.0  0.59970  0.48650  0.43230  1.0000 -0.322593564
N   N51       1.0  0.51350  0.11320  0.43230  1.0000 -0.322593564
N   N52       1.0  0.11320  0.59970  0.93230  1.0000 -0.322593564
N   N53       1.0  0.40030  0.51350  0.93230  1.0000 -0.322593564
N   N54       1.0  0.48650  0.88680  0.93230  1.0000 -0.322593564
N   N55       1.0  0.40030  0.88680  0.56770  1.0000 -0.322593564
N   N56       1.0  0.48650  0.59970  0.56770  1.0000 -0.322593564
N   N57       1.0  0.11320  0.51350  0.56770  1.0000 -0.322593564
N   N58       1.0  0.59970  0.11320  0.06770  1.0000 -0.322593564
N   N59       1.0  0.51350  0.40030  0.06770  1.0000 -0.322593564
N   N60       1.0  0.88680  0.48650  0.06770  1.0000 -0.322593564
N   N61       1.0  0.11320  0.59970  0.56770  1.0000 -0.3295770531
N   N62       1.0  0.40030  0.51350  0.56770  1.0000 -0.3295770531
N   N63       1.0  0.48650  0.88680  0.56770  1.0000 -0.3295770531
N   N64       1.0  0.88680  0.40030  0.06770  1.0000 -0.3295770531
N   N65       1.0  0.59970  0.48650  0.06770  1.0000 -0.3295770531
N   N66       1.0  0.51350  0.11320  0.06770  1.0000 -0.3295770531
N   N67       1.0  0.59970  0.11320  0.43230  1.0000 -0.3295770531
N   N68       1.0  0.51350  0.40030  0.43230  1.0000 -0.3295770531
N   N69       1.0  0.88680  0.48650  0.43230  1.0000 -0.3295770531
N   N70       1.0  0.40030  0.88680  0.93230  1.0000 -0.3295770531
N   N71       1.0  0.48650  0.59970  0.93230  1.0000 -0.3295770531
N   N72       1.0  0.11320  0.51350  0.93230  1.0000 -0.3295770531
N   N73       1.0  0.96300  0.48130  0.37700  1.0000 0.3973575849
N   N74       1.0  0.51870  0.48170  0.37700  1.0000 0.3973575849
N   N75       1.0  0.51830  0.03700  0.37700  1.0000 0.3973575849
N   N76       1.0  0.03700  0.51870  0.87700  1.0000 0.388426786
N   N77       1.0  0.48130  0.51830  0.87700  1.0000 0.3973575849
N   N78       1.0  0.48170  0.96300  0.87700  1.0000 0.388426786
N   N79       1.0  0.48130  0.96300  0.62300  1.0000 0.388426786
N   N80       1.0  0.48170  0.51870  0.62300  1.0000 0.3973575849
N   N81       1.0  0.03700  0.51830  0.62300  1.0000 0.388426786
N   N82       1.0  0.51870  0.03700  0.12300  1.0000 0.388426786
N   N83       1.0  0.51830  0.48130  0.12300  1.0000 0.3973575849
N   N84       1.0  0.96300  0.48170  0.12300  1.0000 0.3973575849
N   N85       1.0  0.91640  0.32510  0.31010  1.0000 -0.3295770531
N   N86       1.0  0.67490  0.59130  0.31010  1.0000 -0.3295770531
N   N87       1.0  0.40870  0.08360  0.31010  1.0000 -0.3295770531
N   N88       1.0  0.08360  0.67490  0.81010  1.0000 -0.3295770531
N   N89       1.0  0.32510  0.40870  0.81010  1.0000 -0.3295770531
N   N90       1.0  0.59130  0.91640  0.81010  1.0000 -0.3295770531
N   N91       1.0  0.32510  0.91640  0.68990  1.0000 -0.3295770531
N   N92       1.0  0.59130  0.67490  0.68990  1.0000 -0.3295770531
N   N93       1.0  0.08360  0.40870  0.68990  1.0000 -0.3295770531
N   N94       1.0  0.67490  0.08360  0.18990  1.0000 -0.3295770531
N   N95       1.0  0.40870  0.32510  0.18990  1.0000 -0.3295770531
N   N96       1.0  0.91640  0.59130  0.18990  1.0000 -0.3295770531
N   N97       1.0  0.08360  0.67490  0.68990  1.0000 -0.3295770531
N   N98       1.0  0.32510  0.40870  0.68990  1.0000 -0.3295770531
N   N99       1.0  0.59130  0.91640  0.68990  1.0000 -0.3295770531
N   N100      1.0  0.91640  0.32510  0.18990  1.0000 -0.3295770531
N   N101      1.0  0.67490  0.59130  0.18990  1.0000 -0.3295770531
N   N102      1.0  0.40870  0.08360  0.18990  1.0000 -0.3295770531
N   N103      1.0  0.67490  0.08360  0.31010  1.0000 -0.3295770531
N   N104      1.0  0.40870  0.32510  0.31010  1.0000 -0.3295770531
N   N105      1.0  0.91640  0.59130  0.31010  1.0000 -0.3295770531
N   N106      1.0  0.32510  0.91640  0.81010  1.0000 -0.3295770531
N   N107      1.0  0.59130  0.67490  0.81010  1.0000 -0.3295770531
N   N108      1.0  0.08360  0.40870  0.81010  1.0000 -0.3295770531
N   N109      1.0  0.83370  0.32580  0.25000  1.0000 0.4877162659
N   N110      1.0  0.67420  0.50790  0.25000  1.0000 0.4877162659
N   N111      1.0  0.49210  0.16630  0.25000  1.0000 0.4877162659
N   N112      1.0  0.16630  0.67420  0.75000  1.0000 0.4877162659
N   N113      1.0  0.32580  0.49210  0.75000  1.0000 0.4877162659
N   N114      1.0  0.50790  0.83370  0.75000  1.0000 0.4877162659
N   N115      1.0  0.32580  0.83370  0.75000  1.0000 0.4877162659
N   N116      1.0  0.50790  0.67420  0.75000  1.0000 0.4877162659
N   N117      1.0  0.16630  0.49210  0.75000  1.0000 0.4877162659
N   N118      1.0  0.67420  0.16630  0.25000  1.0000 0.4877162659
N   N119      1.0  0.49210  0.32580  0.25000  1.0000 0.4877162659
N   N120      1.0  0.83370  0.50790  0.25000  1.0000 0.4877162659
Cl  Cl1       1.0  0.85270  0.27890  0.57890  1.0000 -0.040877922
Cl  Cl2       1.0  0.72110  0.57380  0.57890  1.0000 -0.040877922
Cl  Cl3       1.0  0.42620  0.14730  0.57890  1.0000 -0.040877922
Cl  Cl4       1.0  0.14730  0.72110  0.07890  1.0000 -0.040877922
Cl  Cl5       1.0  0.27890  0.42620  0.07890  1.0000 -0.040877922
Cl  Cl6       1.0  0.57380  0.85270  0.07890  1.0000 -0.040877922
Cl  Cl7       1.0  0.27890  0.85270  0.42110  1.0000 -0.040877922
Cl  Cl8       1.0  0.57380  0.72110  0.42110  1.0000 -0.040877922
Cl  Cl9       1.0  0.14730  0.42620  0.42110  1.0000 -0.040877922
Cl  Cl10      1.0  0.72110  0.14730  0.92110  1.0000 -0.040877922
Cl  Cl11      1.0  0.42620  0.27890  0.92110  1.0000 -0.040877922
Cl  Cl12      1.0  0.85270  0.57380  0.92110  1.0000 -0.040877922
Cl  Cl13      1.0  0.14730  0.72110  0.42110  1.0000 -0.040877922
Cl  Cl14      1.0  0.27890  0.42620  0.42110  1.0000 -0.040877922
Cl  Cl15      1.0  0.57380  0.85270  0.42110  1.0000 -0.040877922
Cl  Cl16      1.0  0.85270  0.27890  0.92110  1.0000 -0.040877922
Cl  Cl17      1.0  0.72110  0.57380  0.92110  1.0000 -0.040877922
Cl  Cl18      1.0  0.42620  0.14730  0.92110  1.0000 -0.040877922
Cl  Cl19      1.0  0.72110  0.14730  0.57890  1.0000 -0.040877922
Cl  Cl20      1.0  0.42620  0.27890  0.57890  1.0000 -0.040877922
Cl  Cl21      1.0  0.85270  0.57380  0.57890  1.0000 -0.040877922
Cl  Cl22      1.0  0.27890  0.85270  0.07890  1.0000 -0.040877922
Cl  Cl23      1.0  0.57380  0.72110  0.07890  1.0000 -0.040877922
Cl  Cl24      1.0  0.14730  0.42620  0.07890  1.0000 -0.040877922
Cl  Cl25      1.0  0.94240  0.22800  0.44200  1.0000 -0.0325598632
Cl  Cl26      1.0  0.77200  0.71440  0.44200  1.0000 -0.0325598632
Cl  Cl27      1.0  0.28560  0.05760  0.44200  1.0000 -0.040877922
Cl  Cl28      1.0  0.05760  0.77200  0.94200  1.0000 -0.040877922
Cl  Cl29      1.0  0.22800  0.28560  0.94200  1.0000 -0.040877922
Cl  Cl30      1.0  0.71440  0.94240  0.94200  1.0000 -0.0325598632
Cl  Cl31      1.0  0.22800  0.94240  0.55800  1.0000 -0.040877922
Cl  Cl32      1.0  0.71440  0.77200  0.55800  1.0000 -0.0325598632
Cl  Cl33      1.0  0.05760  0.28560  0.55800  1.0000 -0.040877922
Cl  Cl34      1.0  0.77200  0.05760  0.05800  1.0000 -0.040877922
Cl  Cl35      1.0  0.28560  0.22800  0.05800  1.0000 -0.040877922
Cl  Cl36      1.0  0.94240  0.71440  0.05800  1.0000 -0.0325598632
Cl  Cl37      1.0  0.05760  0.77200  0.55800  1.0000 -0.040877922
Cl  Cl38      1.0  0.22800  0.28560  0.55800  1.0000 -0.040877922
Cl  Cl39      1.0  0.71440  0.94240  0.55800  1.0000 -0.0325598632
Cl  Cl40      1.0  0.94240  0.22800  0.05800  1.0000 -0.0325598632
Cl  Cl41      1.0  0.77200  0.71440  0.05800  1.0000 -0.0325598632
Cl  Cl42      1.0  0.28560  0.05760  0.05800  1.0000 -0.040877922
Cl  Cl43      1.0  0.77200  0.05760  0.44200  1.0000 -0.040877922
Cl  Cl44      1.0  0.28560  0.22800  0.44200  1.0000 -0.040877922
Cl  Cl45      1.0  0.94240  0.71440  0.44200  1.0000 -0.0325598632
Cl  Cl46      1.0  0.22800  0.94240  0.94200  1.0000 -0.040877922
Cl  Cl47      1.0  0.71440  0.77200  0.94200  1.0000 -0.0325598632
Cl  Cl48      1.0  0.05760  0.28560  0.94200  1.0000 -0.040877922
O   O1        1.0  0.98520  0.54020  0.36990  1.0000 -0.4473559128
O   O2        1.0  0.45980  0.44500  0.36990  1.0000 -0.4473559128
O   O3        1.0  0.55500  0.01480  0.36990  1.0000 -0.4473559128
O   O4        1.0  0.01480  0.45980  0.86990  1.0000 -0.4473559128
O   O5        1.0  0.54020  0.55500  0.86990  1.0000 -0.4473559128
O   O6        1.0  0.44500  0.98520  0.86990  1.0000 -0.4473559128
O   O7        1.0  0.54020  0.98520  0.63010  1.0000 -0.4473559128
O   O8        1.0  0.44500  0.45980  0.63010  1.0000 -0.4473559128
O   O9        1.0  0.01480  0.55500  0.63010  1.0000 -0.4473559128
O   O10       1.0  0.45980  0.01480  0.13010  1.0000 -0.4473559128
O   O11       1.0  0.55500  0.54020  0.13010  1.0000 -0.4473559128
O   O12       1.0  0.98520  0.44500  0.13010  1.0000 -0.4473559128
O   O13       1.0  0.01480  0.45980  0.63010  1.0000 -0.4375527642
O   O14       1.0  0.54020  0.55500  0.63010  1.0000 -0.4375527642
O   O15       1.0  0.44500  0.98520  0.63010  1.0000 -0.4375527642
O   O16       1.0  0.98520  0.54020  0.13010  1.0000 -0.4375527642
O   O17       1.0  0.45980  0.44500  0.13010  1.0000 -0.4375527642
O   O18       1.0  0.55500  0.01480  0.13010  1.0000 -0.4375527642
O   O19       1.0  0.45980  0.01480  0.36990  1.0000 -0.4375527642
O   O20       1.0  0.55500  0.54020  0.36990  1.0000 -0.4375527642
O   O21       1.0  0.98520  0.44500  0.36990  1.0000 -0.4375527642
O   O22       1.0  0.54020  0.98520  0.86990  1.0000 -0.4375527642
O   O23       1.0  0.44500  0.45980  0.86990  1.0000 -0.4375527642
O   O24       1.0  0.01480  0.55500  0.86990  1.0000 -0.4375527642
O   O25       1.0  0.81480  0.32630  0.30980  1.0000 -0.3558729407
O   O26       1.0  0.67370  0.48850  0.30980  1.0000 -0.3558729407
O   O27       1.0  0.51150  0.18520  0.30980  1.0000 -0.3558729407
O   O28       1.0  0.18520  0.67370  0.80980  1.0000 -0.3558729407
O   O29       1.0  0.32630  0.51150  0.80980  1.0000 -0.3558729407
O   O30       1.0  0.48850  0.81480  0.80980  1.0000 -0.3558729407
O   O31       1.0  0.32630  0.81480  0.69020  1.0000 -0.3558729407
O   O32       1.0  0.48850  0.67370  0.69020  1.0000 -0.3558729407
O   O33       1.0  0.18520  0.51150  0.69020  1.0000 -0.3558729407
O   O34       1.0  0.67370  0.18520  0.19020  1.0000 -0.3558729407
O   O35       1.0  0.51150  0.32630  0.19020  1.0000 -0.3558729407
O   O36       1.0  0.81480  0.48850  0.19020  1.0000 -0.3558729407
O   O37       1.0  0.18520  0.67370  0.69020  1.0000 -0.3558729407
O   O38       1.0  0.32630  0.51150  0.69020  1.0000 -0.3558729407
O   O39       1.0  0.48850  0.81480  0.69020  1.0000 -0.3558729407
O   O40       1.0  0.81480  0.32630  0.19020  1.0000 -0.3558729407
O   O41       1.0  0.67370  0.48850  0.19020  1.0000 -0.3558729407
O   O42       1.0  0.51150  0.18520  0.19020  1.0000 -0.3558729407
O   O43       1.0  0.67370  0.18520  0.30980  1.0000 -0.3558729407
O   O44       1.0  0.51150  0.32630  0.30980  1.0000 -0.3558729407
O   O45       1.0  0.81480  0.48850  0.30980  1.0000 -0.3558729407
O   O46       1.0  0.32630  0.81480  0.80980  1.0000 -0.3558729407
O   O47       1.0  0.48850  0.67370  0.80980  1.0000 -0.3558729407
O   O48       1.0  0.18520  0.51150  0.80980  1.0000 -0.3558729407
