# DDEC6 charges by PACMAN v1.1 (https://github.com/mtap-research/PACMAN-charge/)
data_2009[In][ctn]3[ASR]2
_chemical_formula_sum              "In6 H24 C72 O48"
_cell_length_a       17.7546
_cell_length_b       17.7546
_cell_length_c       17.7546
_cell_angle_alpha    110.326
_cell_angle_beta     110.326
_cell_angle_gamma    110.326

_symmetry_space_group_name_H-M    "P 1"
_symmetry_Int_Tables_number       1

loop_
  _symmetry_equiv_pos_as_xyz
  'x, y, z'

loop_
  _atom_site_type_symbol
  _atom_site_label
  _atom_site_symmetry_multiplicity
  _atom_site_fract_x
  _atom_site_fract_y
  _atom_site_fract_z
  _atom_site_occupancy
  _atom_site_charge
In  In1       1.0  0.69846  0.91749  0.54358  1.0000 1.3409797144
In  In2       1.0  0.91749  0.54358  0.69846  1.0000 1.3409797144
In  In3       1.0  0.54358  0.69846  0.91749  1.0000 1.3409797144
In  In4       1.0  0.19846  0.04358  0.41749  1.0000 1.3409797144
In  In5       1.0  0.41749  0.19846  0.04358  1.0000 1.3409797144
In  In6       1.0  0.04358  0.41749  0.19846  1.0000 1.3409797144
H   H1        1.0  0.16620  0.75410  0.35360  1.0000 0.1461930926
H   H2        1.0  0.75410  0.35360  0.16620  1.0000 0.1461930926
H   H3        1.0  0.35360  0.16620  0.75410  1.0000 0.1461930926
H   H4        1.0  0.66620  0.85360  0.25410  1.0000 0.1461930926
H   H5        1.0  0.25410  0.66620  0.85360  1.0000 0.1461930926
H   H6        1.0  0.85360  0.25410  0.66620  1.0000 0.1461930926
H   H7        1.0  0.43770  0.95020  0.46710  1.0000 0.1461930926
H   H8        1.0  0.95020  0.46710  0.43770  1.0000 0.1461930926
H   H9        1.0  0.46710  0.43770  0.95020  1.0000 0.1461930926
H   H10       1.0  0.93770  0.96710  0.45020  1.0000 0.1461930926
H   H11       1.0  0.45020  0.93770  0.96710  1.0000 0.1461930926
H   H12       1.0  0.96710  0.45020  0.93770  1.0000 0.1461930926
H   H13       1.0  0.35650  0.67840  0.37820  1.0000 0.1461930926
H   H14       1.0  0.67840  0.37820  0.35650  1.0000 0.1461930926
H   H15       1.0  0.37820  0.35650  0.67840  1.0000 0.1461930926
H   H16       1.0  0.85650  0.87820  0.17840  1.0000 0.1461930926
H   H17       1.0  0.17840  0.85650  0.87820  1.0000 0.1461930926
H   H18       1.0  0.87820  0.17840  0.85650  1.0000 0.1461930926
H   H19       1.0  0.61280  0.77110  0.70990  1.0000 0.1461930926
H   H20       1.0  0.77110  0.70990  0.61280  1.0000 0.1461930926
H   H21       1.0  0.70990  0.61280  0.77110  1.0000 0.1461930926
H   H22       1.0  0.11280  0.20990  0.27110  1.0000 0.1461930926
H   H23       1.0  0.27110  0.11280  0.20990  1.0000 0.1461930926
H   H24       1.0  0.20990  0.27110  0.11280  1.0000 0.1461930926
C   C1        1.0  0.41213  0.81783  0.42674  1.0000 0.0061644129
C   C2        1.0  0.81783  0.42674  0.41213  1.0000 0.0061644129
C   C3        1.0  0.42674  0.41213  0.81783  1.0000 0.0061644129
C   C4        1.0  0.91213  0.92674  0.31783  1.0000 0.0048619067
C   C5        1.0  0.31783  0.91213  0.92674  1.0000 0.0061644129
C   C6        1.0  0.92674  0.31783  0.91213  1.0000 0.0061644129
C   C7        1.0  0.22783  0.77010  0.37107  1.0000 -0.0702442615
C   C8        1.0  0.77010  0.37107  0.22783  1.0000 -0.0702442615
C   C9        1.0  0.37107  0.22783  0.77010  1.0000 -0.0702442615
C   C10       1.0  0.72783  0.87107  0.27010  1.0000 -0.0702442615
C   C11       1.0  0.27010  0.72783  0.87107  1.0000 -0.0702442615
C   C12       1.0  0.87107  0.27010  0.72783  1.0000 -0.0702442615
C   C13       1.0  0.68830  0.80896  0.61274  1.0000 0.5420047732
C   C14       1.0  0.80896  0.61274  0.68830  1.0000 0.5420047732
C   C15       1.0  0.61274  0.68830  0.80896  1.0000 0.5420047732
C   C16       1.0  0.18830  0.11274  0.30896  1.0000 0.5420047732
C   C17       1.0  0.30896  0.18830  0.11274  1.0000 0.5420047732
C   C18       1.0  0.11274  0.30896  0.18830  1.0000 0.5420047732
C   C19       1.0  0.39019  0.88775  0.43906  1.0000 -0.0702442615
C   C20       1.0  0.88775  0.43906  0.39019  1.0000 -0.0702442615
C   C21       1.0  0.43906  0.39019  0.88775  1.0000 -0.0702442615
C   C22       1.0  0.89019  0.93906  0.38775  1.0000 -0.0702442615
C   C23       1.0  0.38775  0.89019  0.93906  1.0000 -0.0702442615
C   C24       1.0  0.93906  0.38775  0.89019  1.0000 -0.0702442615
C   C25       1.0  0.29729  0.86414  0.40947  1.0000 -0.0084780695
C   C26       1.0  0.86414  0.40947  0.29729  1.0000 -0.0084780695
C   C27       1.0  0.40947  0.29729  0.86414  1.0000 -0.0084780695
C   C28       1.0  0.79729  0.90947  0.36414  1.0000 -0.0084780695
C   C29       1.0  0.36414  0.79729  0.90947  1.0000 -0.0084780695
C   C30       1.0  0.90947  0.36414  0.79729  1.0000 -0.0084780695
C   C31       1.0  0.34161  0.72486  0.38653  1.0000 -0.0789580725
C   C32       1.0  0.72486  0.38653  0.34161  1.0000 -0.0789580725
C   C33       1.0  0.38653  0.34161  0.72486  1.0000 -0.0789580725
C   C34       1.0  0.84161  0.88653  0.22486  1.0000 -0.0789580725
C   C35       1.0  0.22486  0.84161  0.88653  1.0000 -0.0789580725
C   C36       1.0  0.88653  0.22486  0.84161  1.0000 -0.0789580725
C   C37       1.0  0.69027  0.74824  0.65349  1.0000 0.0048619067
C   C38       1.0  0.74824  0.65349  0.69027  1.0000 0.0061644129
C   C39       1.0  0.65349  0.69027  0.74824  1.0000 0.0061644129
C   C40       1.0  0.19027  0.15349  0.24824  1.0000 0.0061644129
C   C41       1.0  0.24824  0.19027  0.15349  1.0000 0.0061644129
C   C42       1.0  0.15349  0.24824  0.19027  1.0000 0.0061644129
C   C43       1.0  0.17096  0.59984  0.30750  1.0000 0.5457167817
C   C44       1.0  0.59984  0.30750  0.17096  1.0000 0.5457167817
C   C45       1.0  0.30750  0.17096  0.59984  1.0000 0.5457167817
C   C46       1.0  0.67096  0.80750  0.09984  1.0000 0.5457167817
C   C47       1.0  0.09984  0.67096  0.80750  1.0000 0.5457167817
C   C48       1.0  0.80750  0.09984  0.67096  1.0000 0.5457167817
C   C49       1.0  0.51250  0.84417  0.45873  1.0000 0.5420047732
C   C50       1.0  0.84417  0.45873  0.51250  1.0000 0.5420047732
C   C51       1.0  0.45873  0.51250  0.84417  1.0000 0.5420047732
C   C52       1.0  0.01250  0.95873  0.34417  1.0000 0.5420047732
C   C53       1.0  0.34417  0.01250  0.95873  1.0000 0.5420047732
C   C54       1.0  0.95873  0.34417  0.01250  1.0000 0.5420047732
C   C55       1.0  0.27088  0.93576  0.41586  1.0000 0.5457167817
C   C56       1.0  0.93576  0.41586  0.27088  1.0000 0.5457167817
C   C57       1.0  0.41586  0.27088  0.93576  1.0000 0.5457167817
C   C58       1.0  0.77088  0.91586  0.43576  1.0000 0.5457167817
C   C59       1.0  0.43576  0.77088  0.91586  1.0000 0.5457167817
C   C60       1.0  0.91586  0.43576  0.77088  1.0000 0.5457167817
C   C61       1.0  0.24945  0.70102  0.35883  1.0000 -0.0034342087
C   C62       1.0  0.70102  0.35883  0.24945  1.0000 -0.0034342087
C   C63       1.0  0.35883  0.24945  0.70102  1.0000 -0.0034342087
C   C64       1.0  0.74945  0.85883  0.20102  1.0000 -0.0034342087
C   C65       1.0  0.20102  0.74945  0.85883  1.0000 -0.0034342087
C   C66       1.0  0.85883  0.20102  0.74945  1.0000 -0.0034342087
C   C67       1.0  0.64644  0.74159  0.70487  1.0000 -0.0789580725
C   C68       1.0  0.74159  0.70487  0.64644  1.0000 -0.0789580725
C   C69       1.0  0.70487  0.64644  0.74159  1.0000 -0.0789580725
C   C70       1.0  0.14644  0.20487  0.24159  1.0000 -0.0789580725
C   C71       1.0  0.24159  0.14644  0.20487  1.0000 -0.0789580725
C   C72       1.0  0.20487  0.24159  0.14644  1.0000 -0.0789580725
O   O1        1.0  0.57734  0.93286  0.51313  1.0000 -0.4965353731
O   O2        1.0  0.93286  0.51313  0.57734  1.0000 -0.4965353731
O   O3        1.0  0.51313  0.57734  0.93286  1.0000 -0.4965353731
O   O4        1.0  0.07734  0.01313  0.43286  1.0000 -0.4965353731
O   O5        1.0  0.43286  0.07734  0.01313  1.0000 -0.4965353731
O   O6        1.0  0.01313  0.43286  0.07734  1.0000 -0.4965353731
O   O7        1.0  0.72477  0.81237  0.56296  1.0000 -0.4965353731
O   O8        1.0  0.81237  0.56296  0.72477  1.0000 -0.4965353731
O   O9        1.0  0.56296  0.72477  0.81237  1.0000 -0.4965353731
O   O10       1.0  0.22477  0.06296  0.31237  1.0000 -0.4965353731
O   O11       1.0  0.31237  0.22477  0.06296  1.0000 -0.4965353731
O   O12       1.0  0.06296  0.31237  0.22477  1.0000 -0.4965353731
O   O13       1.0  0.08685  0.57730  0.26709  1.0000 -0.4605733729
O   O14       1.0  0.57730  0.26709  0.08685  1.0000 -0.4605733729
O   O15       1.0  0.26709  0.08685  0.57730  1.0000 -0.4605733729
O   O16       1.0  0.58685  0.76709  0.07730  1.0000 -0.4605733729
O   O17       1.0  0.07730  0.58685  0.76709  1.0000 -0.4605733729
O   O18       1.0  0.76709  0.07730  0.58685  1.0000 -0.4605733729
O   O19       1.0  0.18378  0.90814  0.38448  1.0000 -0.4965353731
O   O20       1.0  0.90814  0.38448  0.18378  1.0000 -0.4965353731
O   O21       1.0  0.38448  0.18378  0.90814  1.0000 -0.4965353731
O   O22       1.0  0.68378  0.88448  0.40814  1.0000 -0.4965353731
O   O23       1.0  0.40814  0.68378  0.88448  1.0000 -0.4965353731
O   O24       1.0  0.88448  0.40814  0.68378  1.0000 -0.4965353731
O   O25       1.0  0.65303  0.85792  0.63076  1.0000 -0.4605733729
O   O26       1.0  0.85792  0.63076  0.65303  1.0000 -0.4605733729
O   O27       1.0  0.63076  0.65303  0.85792  1.0000 -0.4605733729
O   O28       1.0  0.15303  0.13076  0.35792  1.0000 -0.4605733729
O   O29       1.0  0.35792  0.15303  0.13076  1.0000 -0.4605733729
O   O30       1.0  0.13076  0.35792  0.15303  1.0000 -0.4605733729
O   O31       1.0  0.53088  0.78182  0.43253  1.0000 -0.4413823393
O   O32       1.0  0.78182  0.43253  0.53088  1.0000 -0.4413823393
O   O33       1.0  0.43253  0.53088  0.78182  1.0000 -0.4413823393
O   O34       1.0  0.03088  0.93253  0.28182  1.0000 -0.4413823393
O   O35       1.0  0.28182  0.03088  0.93253  1.0000 -0.4413823393
O   O36       1.0  0.93253  0.28182  0.03088  1.0000 -0.4413823393
O   O37       1.0  0.19163  0.53734  0.30223  1.0000 -0.4921004482
O   O38       1.0  0.53734  0.30223  0.19163  1.0000 -0.4921004482
O   O39       1.0  0.30223  0.19163  0.53734  1.0000 -0.4921004482
O   O40       1.0  0.69163  0.80223  0.03734  1.0000 -0.4921004482
O   O41       1.0  0.03734  0.69163  0.80223  1.0000 -0.4921004482
O   O42       1.0  0.80223  0.03734  0.69163  1.0000 -0.4921004482
O   O43       1.0  0.33151  0.01928  0.44736  1.0000 -0.4544650125
O   O44       1.0  0.01928  0.44736  0.33151  1.0000 -0.4605733729
O   O45       1.0  0.44736  0.33151  0.01928  1.0000 -0.4544650125
O   O46       1.0  0.83151  0.94736  0.51928  1.0000 -0.4605733729
O   O47       1.0  0.51928  0.83151  0.94736  1.0000 -0.4605733729
O   O48       1.0  0.94736  0.51928  0.83151  1.0000 -0.4605733729
