# DDEC6 charges by PACMAN v1.1 (https://github.com/mtap-research/PACMAN-charge/)
data_2009[CuW][nan]3[ASR]1
_chemical_formula_sum              "Cu36 H192 W6 C240 S24 Br24 N96"
_cell_length_a       26.3215
_cell_length_b       26.3215
_cell_length_c       26.3215
_cell_angle_alpha    109.471
_cell_angle_beta     109.471
_cell_angle_gamma    109.471

_symmetry_space_group_name_H-M    "P 1"
_symmetry_Int_Tables_number       1

loop_
  _symmetry_equiv_pos_as_xyz
  'x, y, z'

loop_
  _atom_site_type_symbol
  _atom_site_label
  _atom_site_symmetry_multiplicity
  _atom_site_fract_x
  _atom_site_fract_y
  _atom_site_fract_z
  _atom_site_occupancy
  _atom_site_charge
Cu  Cu1       1.0  0.73857  0.93800  0.06105  1.0000 0.3684974783
Cu  Cu2       1.0  0.37695  0.67752  0.43895  1.0000 0.3684974783
Cu  Cu3       1.0  0.12305  0.56200  0.30057  1.0000 0.3684974783
Cu  Cu4       1.0  0.76143  0.82248  0.19943  1.0000 0.3684974783
Cu  Cu5       1.0  0.06105  0.73857  0.93800  1.0000 0.3684974783
Cu  Cu6       1.0  0.43895  0.37695  0.67752  1.0000 0.3684974783
Cu  Cu7       1.0  0.30057  0.12305  0.56200  1.0000 0.3684974783
Cu  Cu8       1.0  0.19943  0.76143  0.82248  1.0000 0.3684974783
Cu  Cu9       1.0  0.93800  0.06105  0.73857  1.0000 0.3684974783
Cu  Cu10      1.0  0.67752  0.43895  0.37695  1.0000 0.3684974783
Cu  Cu11      1.0  0.56200  0.30057  0.12305  1.0000 0.3684974783
Cu  Cu12      1.0  0.82248  0.19943  0.76143  1.0000 0.3684974783
Cu  Cu13      1.0  0.43800  0.23857  0.56105  1.0000 0.3684974783
Cu  Cu14      1.0  0.17752  0.87695  0.93895  1.0000 0.3684974783
Cu  Cu15      1.0  0.06200  0.62305  0.80057  1.0000 0.3684974783
Cu  Cu16      1.0  0.32248  0.26143  0.69943  1.0000 0.3684974783
Cu  Cu17      1.0  0.23857  0.56105  0.43800  1.0000 0.3684974783
Cu  Cu18      1.0  0.87695  0.93895  0.17752  1.0000 0.3684974783
Cu  Cu19      1.0  0.62305  0.80057  0.06200  1.0000 0.3684974783
Cu  Cu20      1.0  0.26143  0.69943  0.32248  1.0000 0.3684974783
Cu  Cu21      1.0  0.56105  0.43800  0.23857  1.0000 0.3684974783
Cu  Cu22      1.0  0.93895  0.17752  0.87695  1.0000 0.3684974783
Cu  Cu23      1.0  0.80057  0.06200  0.62305  1.0000 0.3684974783
Cu  Cu24      1.0  0.69943  0.32248  0.26143  1.0000 0.3684974783
Cu  Cu25      1.0  0.75000  0.78739  0.03739  1.0000 0.3006309667
Cu  Cu26      1.0  0.25000  0.71261  0.46261  1.0000 0.3006309667
Cu  Cu27      1.0  0.03739  0.75000  0.78739  1.0000 0.3006309667
Cu  Cu28      1.0  0.46261  0.25000  0.71261  1.0000 0.3006309667
Cu  Cu29      1.0  0.78739  0.03739  0.75000  1.0000 0.3006309667
Cu  Cu30      1.0  0.71261  0.46261  0.25000  1.0000 0.3006309667
Cu  Cu31      1.0  0.28739  0.25000  0.53739  1.0000 0.3006309667
Cu  Cu32      1.0  0.21261  0.75000  0.96261  1.0000 0.3006309667
Cu  Cu33      1.0  0.25000  0.53739  0.28739  1.0000 0.3006309667
Cu  Cu34      1.0  0.75000  0.96261  0.21261  1.0000 0.3006309667
Cu  Cu35      1.0  0.53739  0.28739  0.25000  1.0000 0.3006309667
Cu  Cu36      1.0  0.96261  0.21261  0.75000  1.0000 0.3006309667
H   H1        1.0  0.60200  0.92610  0.02230  1.0000 0.1089516355
H   H2        1.0  0.40380  0.57970  0.47770  1.0000 0.1089516355
H   H3        1.0  0.09620  0.57390  0.17590  1.0000 0.1089516355
H   H4        1.0  0.89800  0.92030  0.32410  1.0000 0.1089516355
H   H5        1.0  0.02230  0.60200  0.92610  1.0000 0.1089516355
H   H6        1.0  0.47770  0.40380  0.57970  1.0000 0.1089516355
H   H7        1.0  0.17590  0.09620  0.57390  1.0000 0.1089516355
H   H8        1.0  0.32410  0.89800  0.92030  1.0000 0.1089516355
H   H9        1.0  0.92610  0.02230  0.60200  1.0000 0.1089516355
H   H10       1.0  0.57970  0.47770  0.40380  1.0000 0.1089516355
H   H11       1.0  0.57390  0.17590  0.09620  1.0000 0.1089516355
H   H12       1.0  0.92030  0.32410  0.89800  1.0000 0.1089516355
H   H13       1.0  0.42610  0.10200  0.52230  1.0000 0.1089516355
H   H14       1.0  0.07970  0.90380  0.97770  1.0000 0.1089516355
H   H15       1.0  0.07390  0.59620  0.67590  1.0000 0.1089516355
H   H16       1.0  0.42030  0.39800  0.82410  1.0000 0.1089516355
H   H17       1.0  0.10200  0.52230  0.42610  1.0000 0.1089516355
H   H18       1.0  0.90380  0.97770  0.07970  1.0000 0.1089516355
H   H19       1.0  0.59620  0.67590  0.07390  1.0000 0.1089516355
H   H20       1.0  0.39800  0.82410  0.42030  1.0000 0.1089516355
H   H21       1.0  0.52230  0.42610  0.10200  1.0000 0.1089516355
H   H22       1.0  0.97770  0.07970  0.90380  1.0000 0.1089516355
H   H23       1.0  0.67590  0.07390  0.59620  1.0000 0.1089516355
H   H24       1.0  0.82410  0.42030  0.39800  1.0000 0.1089516355
H   H25       1.0  0.75050  0.06580  0.06630  1.0000 0.1311312815
H   H26       1.0  0.49950  0.68420  0.43370  1.0000 0.1311312815
H   H27       1.0  0.00050  0.43420  0.18470  1.0000 0.1311312815
H   H28       1.0  0.74950  0.81580  0.31530  1.0000 0.1311312815
H   H29       1.0  0.06630  0.75050  0.06580  1.0000 0.1311312815
H   H30       1.0  0.43370  0.49950  0.68420  1.0000 0.1311312815
H   H31       1.0  0.18470  0.00050  0.43420  1.0000 0.1311312815
H   H32       1.0  0.31530  0.74950  0.81580  1.0000 0.1311312815
H   H33       1.0  0.06580  0.06630  0.75050  1.0000 0.1311312815
H   H34       1.0  0.68420  0.43370  0.49950  1.0000 0.1311312815
H   H35       1.0  0.43420  0.18470  0.00050  1.0000 0.1311312815
H   H36       1.0  0.81580  0.31530  0.74950  1.0000 0.1311312815
H   H37       1.0  0.56580  0.25050  0.56630  1.0000 0.1311312815
H   H38       1.0  0.18420  0.99950  0.93370  1.0000 0.1311312815
H   H39       1.0  0.93420  0.50050  0.68470  1.0000 0.1311312815
H   H40       1.0  0.31580  0.24950  0.81530  1.0000 0.1311312815
H   H41       1.0  0.25050  0.56630  0.56580  1.0000 0.1311312815
H   H42       1.0  0.99950  0.93370  0.18420  1.0000 0.1311312815
H   H43       1.0  0.50050  0.68470  0.93420  1.0000 0.1311312815
H   H44       1.0  0.24950  0.81530  0.31580  1.0000 0.1311312815
H   H45       1.0  0.56630  0.56580  0.25050  1.0000 0.1311312815
H   H46       1.0  0.93370  0.18420  0.99950  1.0000 0.1311312815
H   H47       1.0  0.68470  0.93420  0.50050  1.0000 0.1311312815
H   H48       1.0  0.81530  0.31580  0.24950  1.0000 0.1311312815
H   H49       1.0  0.67540  0.09940  0.06040  1.0000 0.1311312815
H   H50       1.0  0.53900  0.61500  0.43960  1.0000 0.1311312815
H   H51       1.0  0.96100  0.40060  0.07600  1.0000 0.1385796958
H   H52       1.0  0.82460  0.88500  0.42400  1.0000 0.1311312815
H   H53       1.0  0.06040  0.67540  0.09940  1.0000 0.1311312815
H   H54       1.0  0.43960  0.53900  0.61500  1.0000 0.1311312815
H   H55       1.0  0.07600  0.96100  0.40060  1.0000 0.1311312815
H   H56       1.0  0.42400  0.82460  0.88500  1.0000 0.1311312815
H   H57       1.0  0.09940  0.06040  0.67540  1.0000 0.1311312815
H   H58       1.0  0.61500  0.43960  0.53900  1.0000 0.1311312815
H   H59       1.0  0.40060  0.07600  0.96100  1.0000 0.1311312815
H   H60       1.0  0.88500  0.42400  0.82460  1.0000 0.1311312815
H   H61       1.0  0.59940  0.17540  0.56040  1.0000 0.1311312815
H   H62       1.0  0.11500  0.03900  0.93960  1.0000 0.1311312815
H   H63       1.0  0.90060  0.46100  0.57600  1.0000 0.1311312815
H   H64       1.0  0.38500  0.32460  0.92400  1.0000 0.1311312815
H   H65       1.0  0.17540  0.56040  0.59940  1.0000 0.1311312815
H   H66       1.0  0.03900  0.93960  0.11500  1.0000 0.1385796958
H   H67       1.0  0.46100  0.57600  0.90060  1.0000 0.1311312815
H   H68       1.0  0.32460  0.92400  0.38500  1.0000 0.1311312815
H   H69       1.0  0.56040  0.59940  0.17540  1.0000 0.1311312815
H   H70       1.0  0.93960  0.11500  0.03900  1.0000 0.1311312815
H   H71       1.0  0.57600  0.90060  0.46100  1.0000 0.1311312815
H   H72       1.0  0.92400  0.38500  0.32460  1.0000 0.1311312815
H   H73       1.0  0.50810  0.91040  0.97090  1.0000 0.1385796958
H   H74       1.0  0.43950  0.53720  0.52910  1.0000 0.1385796958
H   H75       1.0  0.06050  0.58960  0.09770  1.0000 0.1385796958
H   H76       1.0  0.99190  0.96280  0.40230  1.0000 0.1385796958
H   H77       1.0  0.97090  0.50810  0.91040  1.0000 0.1385796958
H   H78       1.0  0.52910  0.43950  0.53720  1.0000 0.1385796958
H   H79       1.0  0.09770  0.06050  0.58960  1.0000 0.1385796958
H   H80       1.0  0.40230  0.99190  0.96280  1.0000 0.1385796958
H   H81       1.0  0.91040  0.97090  0.50810  1.0000 0.1385796958
H   H82       1.0  0.53720  0.52910  0.43950  1.0000 0.1385796958
H   H83       1.0  0.58960  0.09770  0.06050  1.0000 0.1385796958
H   H84       1.0  0.96280  0.40230  0.99190  1.0000 0.1385796958
H   H85       1.0  0.41040  0.00810  0.47090  1.0000 0.1385796958
H   H86       1.0  0.03720  0.93950  0.02910  1.0000 0.1385796958
H   H87       1.0  0.08960  0.56050  0.59770  1.0000 0.1385796958
H   H88       1.0  0.46280  0.49190  0.90230  1.0000 0.1385796958
H   H89       1.0  0.00810  0.47090  0.41040  1.0000 0.1385796958
H   H90       1.0  0.93950  0.02910  0.03720  1.0000 0.1385796958
H   H91       1.0  0.56050  0.59770  0.08960  1.0000 0.1385796958
H   H92       1.0  0.49190  0.90230  0.46280  1.0000 0.1385796958
H   H93       1.0  0.47090  0.41040  0.00810  1.0000 0.1385796958
H   H94       1.0  0.02910  0.03720  0.93950  1.0000 0.1385796958
H   H95       1.0  0.59770  0.08960  0.56050  1.0000 0.1385796958
H   H96       1.0  0.90230  0.46280  0.49190  1.0000 0.1385796958
H   H97       1.0  0.70730  0.67720  0.06770  1.0000 0.1089516355
H   H98       1.0  0.10950  0.63960  0.43230  1.0000 0.1089516355
H   H99       1.0  0.39050  0.82280  0.53010  1.0000 0.1089516355
H   H100      1.0  0.79270  0.86040  0.96990  1.0000 0.1089516355
H   H101      1.0  0.06770  0.70730  0.67720  1.0000 0.1089516355
H   H102      1.0  0.43230  0.10950  0.63960  1.0000 0.1089516355
H   H103      1.0  0.53010  0.39050  0.82280  1.0000 0.1089516355
H   H104      1.0  0.96990  0.79270  0.86040  1.0000 0.1089516355
H   H105      1.0  0.67720  0.06770  0.70730  1.0000 0.1089516355
H   H106      1.0  0.63960  0.43230  0.10950  1.0000 0.1089516355
H   H107      1.0  0.82280  0.53010  0.39050  1.0000 0.1089516355
H   H108      1.0  0.86040  0.96990  0.79270  1.0000 0.1089516355
H   H109      1.0  0.17720  0.20730  0.56770  1.0000 0.1089516355
H   H110      1.0  0.13960  0.60950  0.93230  1.0000 0.1089516355
H   H111      1.0  0.32280  0.89050  0.03010  1.0000 0.1089516355
H   H112      1.0  0.36040  0.29270  0.46990  1.0000 0.1089516355
H   H113      1.0  0.20730  0.56770  0.17720  1.0000 0.1089516355
H   H114      1.0  0.60950  0.93230  0.13960  1.0000 0.1089516355
H   H115      1.0  0.89050  0.03010  0.32280  1.0000 0.1089516355
H   H116      1.0  0.29270  0.46990  0.36040  1.0000 0.1089516355
H   H117      1.0  0.56770  0.17720  0.20730  1.0000 0.1089516355
H   H118      1.0  0.93230  0.13960  0.60950  1.0000 0.1089516355
H   H119      1.0  0.03010  0.32280  0.89050  1.0000 0.1089516355
H   H120      1.0  0.46990  0.36040  0.29270  1.0000 0.1089516355
H   H121      1.0  0.68060  0.67100  0.90980  1.0000 0.1199024486
H   H122      1.0  0.26120  0.77080  0.59020  1.0000 0.1199024486
H   H123      1.0  0.23880  0.82900  0.50960  1.0000 0.1199024486
H   H124      1.0  0.81940  0.72920  0.99040  1.0000 0.1199024486
H   H125      1.0  0.90980  0.68060  0.67100  1.0000 0.1199024486
H   H126      1.0  0.59020  0.26120  0.77080  1.0000 0.1199024486
H   H127      1.0  0.50960  0.23880  0.82900  1.0000 0.1199024486
H   H128      1.0  0.99040  0.81940  0.72920  1.0000 0.1199024486
H   H129      1.0  0.67100  0.90980  0.68060  1.0000 0.1199024486
H   H130      1.0  0.77080  0.59020  0.26120  1.0000 0.1199024486
H   H131      1.0  0.82900  0.50960  0.23880  1.0000 0.1199024486
H   H132      1.0  0.72920  0.99040  0.81940  1.0000 0.1199024486
H   H133      1.0  0.17100  0.18060  0.40980  1.0000 0.1199024486
H   H134      1.0  0.27080  0.76120  0.09020  1.0000 0.1199024486
H   H135      1.0  0.32900  0.73880  0.00960  1.0000 0.1199024486
H   H136      1.0  0.22920  0.31940  0.49040  1.0000 0.1199024486
H   H137      1.0  0.18060  0.40980  0.17100  1.0000 0.1199024486
H   H138      1.0  0.76120  0.09020  0.27080  1.0000 0.1199024486
H   H139      1.0  0.73880  0.00960  0.32900  1.0000 0.1199024486
H   H140      1.0  0.31940  0.49040  0.22920  1.0000 0.1199024486
H   H141      1.0  0.40980  0.17100  0.18060  1.0000 0.1199024486
H   H142      1.0  0.09020  0.27080  0.76120  1.0000 0.1199024486
H   H143      1.0  0.00960  0.32900  0.73880  1.0000 0.1199024486
H   H144      1.0  0.49040  0.22920  0.31940  1.0000 0.1199024486
H   H145      1.0  0.64840  0.56490  0.89370  1.0000 0.1385796958
H   H146      1.0  0.17120  0.75470  0.60630  1.0000 0.1385796958
H   H147      1.0  0.32880  0.93510  0.58350  1.0000 0.1385796958
H   H148      1.0  0.85160  0.74530  0.91650  1.0000 0.1385796958
H   H149      1.0  0.89370  0.64840  0.56490  1.0000 0.1385796958
H   H150      1.0  0.60630  0.17120  0.75470  1.0000 0.1385796958
H   H151      1.0  0.58350  0.32880  0.93510  1.0000 0.1385796958
H   H152      1.0  0.91650  0.85160  0.74530  1.0000 0.1385796958
H   H153      1.0  0.56490  0.89370  0.64840  1.0000 0.1385796958
H   H154      1.0  0.75470  0.60630  0.17120  1.0000 0.1385796958
H   H155      1.0  0.93510  0.58350  0.32880  1.0000 0.1385796958
H   H156      1.0  0.74530  0.91650  0.85160  1.0000 0.1385796958
H   H157      1.0  0.06490  0.14840  0.39370  1.0000 0.1385796958
H   H158      1.0  0.25470  0.67120  0.10630  1.0000 0.1385796958
H   H159      1.0  0.43510  0.82880  0.08350  1.0000 0.1385796958
H   H160      1.0  0.24530  0.35160  0.41650  1.0000 0.1385796958
H   H161      1.0  0.14840  0.39370  0.06490  1.0000 0.1385796958
H   H162      1.0  0.67120  0.10630  0.25470  1.0000 0.1385796958
H   H163      1.0  0.82880  0.08350  0.43510  1.0000 0.1385796958
H   H164      1.0  0.35160  0.41650  0.24530  1.0000 0.1385796958
H   H165      1.0  0.39370  0.06490  0.14840  1.0000 0.1385796958
H   H166      1.0  0.10630  0.25470  0.67120  1.0000 0.1385796958
H   H167      1.0  0.08350  0.43510  0.82880  1.0000 0.1385796958
H   H168      1.0  0.41650  0.24530  0.35160  1.0000 0.1385796958
H   H169      1.0  0.68230  0.59990  0.08160  1.0000 0.1385796958
H   H170      1.0  0.01830  0.60070  0.41840  1.0000 0.1385796958
H   H171      1.0  0.48170  0.90010  0.58240  1.0000 0.1385796958
H   H172      1.0  0.81770  0.89930  0.91760  1.0000 0.1385796958
H   H173      1.0  0.08160  0.68230  0.59990  1.0000 0.1385796958
H   H174      1.0  0.41840  0.01830  0.60070  1.0000 0.1385796958
H   H175      1.0  0.58240  0.48170  0.90010  1.0000 0.1385796958
H   H176      1.0  0.91760  0.81770  0.89930  1.0000 0.1385796958
H   H177      1.0  0.59990  0.08160  0.68230  1.0000 0.1385796958
H   H178      1.0  0.60070  0.41840  0.01830  1.0000 0.1385796958
H   H179      1.0  0.90010  0.58240  0.48170  1.0000 0.1385796958
H   H180      1.0  0.89930  0.91760  0.81770  1.0000 0.1385796958
H   H181      1.0  0.09990  0.18230  0.58160  1.0000 0.1385796958
H   H182      1.0  0.10070  0.51830  0.91840  1.0000 0.1385796958
H   H183      1.0  0.40010  0.98170  0.08240  1.0000 0.1385796958
H   H184      1.0  0.39930  0.31770  0.41760  1.0000 0.1385796958
H   H185      1.0  0.18230  0.58160  0.09990  1.0000 0.1385796958
H   H186      1.0  0.51830  0.91840  0.10070  1.0000 0.1385796958
H   H187      1.0  0.98170  0.08240  0.40010  1.0000 0.1385796958
H   H188      1.0  0.31770  0.41760  0.39930  1.0000 0.1385796958
H   H189      1.0  0.58160  0.09990  0.18230  1.0000 0.1385796958
H   H190      1.0  0.91840  0.10070  0.51830  1.0000 0.1385796958
H   H191      1.0  0.08240  0.40010  0.98170  1.0000 0.1385796958
H   H192      1.0  0.41760  0.39930  0.31770  1.0000 0.1385796958
W   W1        1.0  0.75000  0.87500  0.12500  1.0000 0.6383175699
W   W2        1.0  0.25000  0.62500  0.37500  1.0000 0.6349410711
W   W3        1.0  0.12500  0.75000  0.87500  1.0000 0.6383175699
W   W4        1.0  0.37500  0.25000  0.62500  1.0000 0.6349410711
W   W5        1.0  0.87500  0.12500  0.75000  1.0000 0.6383175699
W   W6        1.0  0.62500  0.37500  0.25000  1.0000 0.6383175699
C   C1        1.0  0.63070  0.96630  0.03480  1.0000 0.1199024486
C   C2        1.0  0.43150  0.59590  0.46520  1.0000 0.1199024486
C   C3        1.0  0.06850  0.53370  0.16440  1.0000 0.1199024486
C   C4        1.0  0.86930  0.90410  0.33560  1.0000 0.1199024486
C   C5        1.0  0.03480  0.63070  0.96630  1.0000 0.1199024486
C   C6        1.0  0.46520  0.43150  0.59590  1.0000 0.1199024486
C   C7        1.0  0.16440  0.06850  0.53370  1.0000 0.1199024486
C   C8        1.0  0.33560  0.86930  0.90410  1.0000 0.1199024486
C   C9        1.0  0.96630  0.03480  0.63070  1.0000 0.1199024486
C   C10       1.0  0.59590  0.46520  0.43150  1.0000 0.1199024486
C   C11       1.0  0.53370  0.16440  0.06850  1.0000 0.1199024486
C   C12       1.0  0.90410  0.33560  0.86930  1.0000 0.1199024486
C   C13       1.0  0.46630  0.13070  0.53480  1.0000 0.1199024486
C   C14       1.0  0.09590  0.93150  0.96520  1.0000 0.1199024486
C   C15       1.0  0.03370  0.56850  0.66440  1.0000 0.1199024486
C   C16       1.0  0.40410  0.36930  0.83560  1.0000 0.1199024486
C   C17       1.0  0.13070  0.53480  0.46630  1.0000 0.1199024486
C   C18       1.0  0.93150  0.96520  0.09590  1.0000 0.1199024486
C   C19       1.0  0.56850  0.66440  0.03370  1.0000 0.1199024486
C   C20       1.0  0.36930  0.83560  0.40410  1.0000 0.1199024486
C   C21       1.0  0.53480  0.46630  0.13070  1.0000 0.1199024486
C   C22       1.0  0.96520  0.09590  0.93150  1.0000 0.1199024486
C   C23       1.0  0.66440  0.03370  0.56850  1.0000 0.1199024486
C   C24       1.0  0.83560  0.40410  0.36930  1.0000 0.1199024486
C   C25       1.0  0.71120  0.04210  0.05930  1.0000 -0.0082720561
C   C26       1.0  0.48280  0.65190  0.44070  1.0000 -0.0082720561
C   C27       1.0  0.01720  0.45790  0.16910  1.0000 -0.0082720561
C   C28       1.0  0.78880  0.84810  0.33090  1.0000 -0.0082720561
C   C29       1.0  0.05930  0.71120  0.04210  1.0000 -0.0082720561
C   C30       1.0  0.44070  0.48280  0.65190  1.0000 -0.0082720561
C   C31       1.0  0.16910  0.01720  0.45790  1.0000 -0.0082720561
C   C32       1.0  0.33090  0.78880  0.84810  1.0000 -0.0082720561
C   C33       1.0  0.04210  0.05930  0.71120  1.0000 -0.0082720561
C   C34       1.0  0.65190  0.44070  0.48280  1.0000 -0.0082720561
C   C35       1.0  0.45790  0.16910  0.01720  1.0000 -0.0082720561
C   C36       1.0  0.84810  0.33090  0.78880  1.0000 -0.0082720561
C   C37       1.0  0.54210  0.21120  0.55930  1.0000 -0.0082720561
C   C38       1.0  0.15190  0.98280  0.94070  1.0000 -0.0082720561
C   C39       1.0  0.95790  0.51720  0.66910  1.0000 -0.0082720561
C   C40       1.0  0.34810  0.28880  0.83090  1.0000 -0.0082720561
C   C41       1.0  0.21120  0.55930  0.54210  1.0000 -0.0082720561
C   C42       1.0  0.98280  0.94070  0.15190  1.0000 -0.0082720561
C   C43       1.0  0.51720  0.66910  0.95790  1.0000 -0.0082720561
C   C44       1.0  0.28880  0.83090  0.34810  1.0000 -0.0082720561
C   C45       1.0  0.55930  0.54210  0.21120  1.0000 -0.0082720561
C   C46       1.0  0.94070  0.15190  0.98280  1.0000 -0.0082720561
C   C47       1.0  0.66910  0.95790  0.51720  1.0000 -0.0082720561
C   C48       1.0  0.83090  0.34810  0.28880  1.0000 -0.0082720561
C   C49       1.0  0.67010  0.06050  0.05360  1.0000 -0.1499397502
C   C50       1.0  0.50690  0.61650  0.44640  1.0000 -0.1499397502
C   C51       1.0  0.99310  0.43950  0.10960  1.0000 -0.1499397502
C   C52       1.0  0.82990  0.88350  0.39040  1.0000 -0.1499397502
C   C53       1.0  0.05360  0.67010  0.06050  1.0000 -0.1499397502
C   C54       1.0  0.44640  0.50690  0.61650  1.0000 -0.1499397502
C   C55       1.0  0.10960  0.99310  0.43950  1.0000 -0.1499397502
C   C56       1.0  0.39040  0.82990  0.88350  1.0000 -0.1499397502
C   C57       1.0  0.06050  0.05360  0.67010  1.0000 -0.1499397502
C   C58       1.0  0.61650  0.44640  0.50690  1.0000 -0.1499397502
C   C59       1.0  0.43950  0.10960  0.99310  1.0000 -0.1499397502
C   C60       1.0  0.88350  0.39040  0.82990  1.0000 -0.1499397502
C   C61       1.0  0.56050  0.17010  0.55360  1.0000 -0.1499397502
C   C62       1.0  0.11650  0.00690  0.94640  1.0000 -0.1499397502
C   C63       1.0  0.93950  0.49310  0.60960  1.0000 -0.1499397502
C   C64       1.0  0.38350  0.32990  0.89040  1.0000 -0.1499397502
C   C65       1.0  0.17010  0.55360  0.56050  1.0000 -0.1499397502
C   C66       1.0  0.00690  0.94640  0.11650  1.0000 -0.1499397502
C   C67       1.0  0.49310  0.60960  0.93950  1.0000 -0.1499397502
C   C68       1.0  0.32990  0.89040  0.38350  1.0000 -0.1499397502
C   C69       1.0  0.55360  0.56050  0.17010  1.0000 -0.1499397502
C   C70       1.0  0.94640  0.11650  0.00690  1.0000 -0.1499397502
C   C71       1.0  0.60960  0.93950  0.49310  1.0000 -0.1499397502
C   C72       1.0  0.89040  0.38350  0.32990  1.0000 -0.1499397502
C   C73       1.0  0.55780  0.00470  0.02130  1.0000 0.2019543387
C   C74       1.0  0.48340  0.53650  0.47870  1.0000 0.2019543387
C   C75       1.0  0.01660  0.49530  0.05310  1.0000 0.2019543387
C   C76       1.0  0.94220  0.96350  0.44690  1.0000 0.2019543387
C   C77       1.0  0.02130  0.55780  0.00470  1.0000 0.2019543387
C   C78       1.0  0.47870  0.48340  0.53650  1.0000 0.2054568825
C   C79       1.0  0.05310  0.01660  0.49530  1.0000 0.2019543387
C   C80       1.0  0.44690  0.94220  0.96350  1.0000 0.2019543387
C   C81       1.0  0.00470  0.02130  0.55780  1.0000 0.2019543387
C   C82       1.0  0.53650  0.47870  0.48340  1.0000 0.2019543387
C   C83       1.0  0.49530  0.05310  0.01660  1.0000 0.2019543387
C   C84       1.0  0.96350  0.44690  0.94220  1.0000 0.2019543387
C   C85       1.0  0.50470  0.05780  0.52130  1.0000 0.2019543387
C   C86       1.0  0.03650  0.98340  0.97870  1.0000 0.2019543387
C   C87       1.0  0.99530  0.51660  0.55310  1.0000 0.2019543387
C   C88       1.0  0.46350  0.44220  0.94690  1.0000 0.2019543387
C   C89       1.0  0.05780  0.52130  0.50470  1.0000 0.2019543387
C   C90       1.0  0.98340  0.97870  0.03650  1.0000 0.2019543387
C   C91       1.0  0.51660  0.55310  0.99530  1.0000 0.2019543387
C   C92       1.0  0.44220  0.94690  0.46350  1.0000 0.2019543387
C   C93       1.0  0.52130  0.50470  0.05780  1.0000 0.2054568825
C   C94       1.0  0.97870  0.03650  0.98340  1.0000 0.2019543387
C   C95       1.0  0.55310  0.99530  0.51660  1.0000 0.2019543387
C   C96       1.0  0.94690  0.46350  0.44220  1.0000 0.2019543387
C   C97       1.0  0.50490  0.94620  0.98310  1.0000 -0.2770627416
C   C98       1.0  0.46310  0.52180  0.51690  1.0000 -0.2770627416
C   C99       1.0  0.03690  0.55380  0.05870  1.0000 -0.2770627416
C   C100      1.0  0.99510  0.97820  0.44130  1.0000 -0.2770627416
C   C101      1.0  0.98310  0.50490  0.94620  1.0000 -0.2770627416
C   C102      1.0  0.51690  0.46310  0.52180  1.0000 -0.2770627416
C   C103      1.0  0.05870  0.03690  0.55380  1.0000 -0.2770627416
C   C104      1.0  0.44130  0.99510  0.97820  1.0000 -0.2770627416
C   C105      1.0  0.94620  0.98310  0.50490  1.0000 -0.2770627416
C   C106      1.0  0.52180  0.51690  0.46310  1.0000 -0.2770627416
C   C107      1.0  0.55380  0.05870  0.03690  1.0000 -0.2770627416
C   C108      1.0  0.97820  0.44130  0.99510  1.0000 -0.2770627416
C   C109      1.0  0.44620  0.00490  0.48310  1.0000 -0.2770627416
C   C110      1.0  0.02180  0.96310  0.01690  1.0000 -0.2770627416
C   C111      1.0  0.05380  0.53690  0.55870  1.0000 -0.2770627416
C   C112      1.0  0.47820  0.49510  0.94130  1.0000 -0.2770627416
C   C113      1.0  0.00490  0.48310  0.44620  1.0000 -0.2770627416
C   C114      1.0  0.96310  0.01690  0.02180  1.0000 -0.2770627416
C   C115      1.0  0.53690  0.55870  0.05380  1.0000 -0.2770627416
C   C116      1.0  0.49510  0.94130  0.47820  1.0000 -0.2770627416
C   C117      1.0  0.48310  0.44620  0.00490  1.0000 -0.2770627416
C   C118      1.0  0.01690  0.02180  0.96310  1.0000 -0.2770627416
C   C119      1.0  0.55870  0.05380  0.53690  1.0000 -0.2770627416
C   C120      1.0  0.94130  0.47820  0.49510  1.0000 -0.2770627416
C   C121      1.0  0.69870  0.66210  0.02680  1.0000 0.0923662675
C   C122      1.0  0.13530  0.67190  0.47320  1.0000 0.0923662675
C   C123      1.0  0.36470  0.83790  0.53660  1.0000 0.0923662675
C   C124      1.0  0.80130  0.82810  0.96340  1.0000 0.0923662675
C   C125      1.0  0.02680  0.69870  0.66210  1.0000 0.0923662675
C   C126      1.0  0.47320  0.13530  0.67190  1.0000 0.0923662675
C   C127      1.0  0.53660  0.36470  0.83790  1.0000 0.0923662675
C   C128      1.0  0.96340  0.80130  0.82810  1.0000 0.0923662675
C   C129      1.0  0.66210  0.02680  0.69870  1.0000 0.0923662675
C   C130      1.0  0.67190  0.47320  0.13530  1.0000 0.0923662675
C   C131      1.0  0.83790  0.53660  0.36470  1.0000 0.0923662675
C   C132      1.0  0.82810  0.96340  0.80130  1.0000 0.0923662675
C   C133      1.0  0.16210  0.19870  0.52680  1.0000 0.0923662675
C   C134      1.0  0.17190  0.63530  0.97320  1.0000 0.0923662675
C   C135      1.0  0.33790  0.86470  0.03660  1.0000 0.0923662675
C   C136      1.0  0.32810  0.30130  0.46340  1.0000 0.0923662675
C   C137      1.0  0.19870  0.52680  0.16210  1.0000 0.0923662675
C   C138      1.0  0.63530  0.97320  0.17190  1.0000 0.0923662675
C   C139      1.0  0.86470  0.03660  0.33790  1.0000 0.0923662675
C   C140      1.0  0.30130  0.46340  0.32810  1.0000 0.0923662675
C   C141      1.0  0.52680  0.16210  0.19870  1.0000 0.0923662675
C   C142      1.0  0.97320  0.17190  0.63530  1.0000 0.0923662675
C   C143      1.0  0.03660  0.33790  0.86470  1.0000 0.0923662675
C   C144      1.0  0.46340  0.32810  0.30130  1.0000 0.0923662675
C   C145      1.0  0.68450  0.65910  0.93980  1.0000 -0.0237563375
C   C146      1.0  0.21930  0.74470  0.56020  1.0000 -0.0237563375
C   C147      1.0  0.28070  0.84090  0.52540  1.0000 -0.0237563375
C   C148      1.0  0.81550  0.75530  0.97460  1.0000 -0.0237563375
C   C149      1.0  0.93980  0.68450  0.65910  1.0000 -0.0237563375
C   C150      1.0  0.56020  0.21930  0.74470  1.0000 -0.0237563375
C   C151      1.0  0.52540  0.28070  0.84090  1.0000 -0.0237563375
C   C152      1.0  0.97460  0.81550  0.75530  1.0000 -0.0237563375
C   C153      1.0  0.65910  0.93980  0.68450  1.0000 -0.0237563375
C   C154      1.0  0.74470  0.56020  0.21930  1.0000 -0.0237563375
C   C155      1.0  0.84090  0.52540  0.28070  1.0000 -0.0237563375
C   C156      1.0  0.75530  0.97460  0.81550  1.0000 -0.0237563375
C   C157      1.0  0.15910  0.18450  0.43980  1.0000 -0.0237563375
C   C158      1.0  0.24470  0.71930  0.06020  1.0000 -0.0237563375
C   C159      1.0  0.34090  0.78070  0.02540  1.0000 -0.0237563375
C   C160      1.0  0.25530  0.31550  0.47460  1.0000 -0.0237563375
C   C161      1.0  0.18450  0.43980  0.15910  1.0000 -0.0237563375
C   C162      1.0  0.71930  0.06020  0.24470  1.0000 -0.0237563375
C   C163      1.0  0.78070  0.02540  0.34090  1.0000 -0.0237563375
C   C164      1.0  0.31550  0.47460  0.25530  1.0000 -0.0237563375
C   C165      1.0  0.43980  0.15910  0.18450  1.0000 -0.0237563375
C   C166      1.0  0.06020  0.24470  0.71930  1.0000 -0.0237563375
C   C167      1.0  0.02540  0.34090  0.78070  1.0000 -0.0237563375
C   C168      1.0  0.47460  0.25530  0.31550  1.0000 -0.0237563375
C   C169      1.0  0.66480  0.60090  0.93070  1.0000 -0.1133490576
C   C170      1.0  0.17020  0.73410  0.56930  1.0000 -0.1133490576
C   C171      1.0  0.32980  0.89910  0.56390  1.0000 -0.1133490576
C   C172      1.0  0.83520  0.76590  0.93610  1.0000 -0.1133490576
C   C173      1.0  0.93070  0.66480  0.60090  1.0000 -0.1133490576
C   C174      1.0  0.56930  0.17020  0.73410  1.0000 -0.1133490576
C   C175      1.0  0.56390  0.32980  0.89910  1.0000 -0.1133490576
C   C176      1.0  0.93610  0.83520  0.76590  1.0000 -0.1133490576
C   C177      1.0  0.60090  0.93070  0.66480  1.0000 -0.1133490576
C   C178      1.0  0.73410  0.56930  0.17020  1.0000 -0.1133490576
C   C179      1.0  0.89910  0.56390  0.32980  1.0000 -0.1133490576
C   C180      1.0  0.76590  0.93610  0.83520  1.0000 -0.1133490576
C   C181      1.0  0.10090  0.16480  0.43070  1.0000 -0.1133490576
C   C182      1.0  0.23410  0.67020  0.06930  1.0000 -0.1133490576
C   C183      1.0  0.39910  0.82980  0.06390  1.0000 -0.1133490576
C   C184      1.0  0.26590  0.33520  0.43610  1.0000 -0.1133490576
C   C185      1.0  0.16480  0.43070  0.10090  1.0000 -0.1133490576
C   C186      1.0  0.67020  0.06930  0.23410  1.0000 -0.1133490576
C   C187      1.0  0.82980  0.06390  0.39910  1.0000 -0.1133490576
C   C188      1.0  0.33520  0.43610  0.26590  1.0000 -0.1133490576
C   C189      1.0  0.43070  0.10090  0.16480  1.0000 -0.1133490576
C   C190      1.0  0.06930  0.23410  0.67020  1.0000 -0.1133490576
C   C191      1.0  0.06390  0.39910  0.82980  1.0000 -0.1133490576
C   C192      1.0  0.43610  0.26590  0.33520  1.0000 -0.1133490576
C   C193      1.0  0.65140  0.55000  0.98940  1.0000 0.2019543387
C   C194      1.0  0.06060  0.66200  0.51060  1.0000 0.2019543387
C   C195      1.0  0.43940  0.95000  0.60140  1.0000 0.2019543387
C   C196      1.0  0.84860  0.83800  0.89860  1.0000 0.2019543387
C   C197      1.0  0.98940  0.65140  0.55000  1.0000 0.2019543387
C   C198      1.0  0.51060  0.06060  0.66200  1.0000 0.2019543387
C   C199      1.0  0.60140  0.43940  0.95000  1.0000 0.2019543387
C   C200      1.0  0.89860  0.84860  0.83800  1.0000 0.2019543387
C   C201      1.0  0.55000  0.98940  0.65140  1.0000 0.2019543387
C   C202      1.0  0.66200  0.51060  0.06060  1.0000 0.2019543387
C   C203      1.0  0.95000  0.60140  0.43940  1.0000 0.2019543387
C   C204      1.0  0.83800  0.89860  0.84860  1.0000 0.2019543387
C   C205      1.0  0.05000  0.15140  0.48940  1.0000 0.2019543387
C   C206      1.0  0.16200  0.56060  0.01060  1.0000 0.2019543387
C   C207      1.0  0.45000  0.93940  0.10140  1.0000 0.2019543387
C   C208      1.0  0.33800  0.34860  0.39860  1.0000 0.2019543387
C   C209      1.0  0.15140  0.48940  0.05000  1.0000 0.2019543387
C   C210      1.0  0.56060  0.01060  0.16200  1.0000 0.2019543387
C   C211      1.0  0.93940  0.10140  0.45000  1.0000 0.2019543387
C   C212      1.0  0.34860  0.39860  0.33800  1.0000 0.2019543387
C   C213      1.0  0.48940  0.05000  0.15140  1.0000 0.2019543387
C   C214      1.0  0.01060  0.16200  0.56060  1.0000 0.2019543387
C   C215      1.0  0.10140  0.45000  0.93940  1.0000 0.2019543387
C   C216      1.0  0.39860  0.33800  0.34860  1.0000 0.2019543387
C   C217      1.0  0.66780  0.56070  0.04950  1.0000 -0.303502148
C   C218      1.0  0.01120  0.61830  0.45050  1.0000 -0.3050493898
C   C219      1.0  0.48880  0.93930  0.60710  1.0000 -0.303502148
C   C220      1.0  0.83220  0.88170  0.89290  1.0000 -0.303502148
C   C221      1.0  0.04950  0.66780  0.56070  1.0000 -0.303502148
C   C222      1.0  0.45050  0.01120  0.61830  1.0000 -0.303502148
C   C223      1.0  0.60710  0.48880  0.93930  1.0000 -0.303502148
C   C224      1.0  0.89290  0.83220  0.88170  1.0000 -0.303502148
C   C225      1.0  0.56070  0.04950  0.66780  1.0000 -0.303502148
C   C226      1.0  0.61830  0.45050  0.01120  1.0000 -0.303502148
C   C227      1.0  0.93930  0.60710  0.48880  1.0000 -0.303502148
C   C228      1.0  0.88170  0.89290  0.83220  1.0000 -0.303502148
C   C229      1.0  0.06070  0.16780  0.54950  1.0000 -0.303502148
C   C230      1.0  0.11830  0.51120  0.95050  1.0000 -0.303502148
C   C231      1.0  0.43930  0.98880  0.10710  1.0000 -0.303502148
C   C232      1.0  0.38170  0.33220  0.39290  1.0000 -0.303502148
C   C233      1.0  0.16780  0.54950  0.06070  1.0000 -0.3050493898
C   C234      1.0  0.51120  0.95050  0.11830  1.0000 -0.303502148
C   C235      1.0  0.98880  0.10710  0.43930  1.0000 -0.303502148
C   C236      1.0  0.33220  0.39290  0.38170  1.0000 -0.303502148
C   C237      1.0  0.54950  0.06070  0.16780  1.0000 -0.303502148
C   C238      1.0  0.95050  0.11830  0.51120  1.0000 -0.303502148
C   C239      1.0  0.10710  0.43930  0.98880  1.0000 -0.303502148
C   C240      1.0  0.39290  0.38170  0.33220  1.0000 -0.303502148
S   S1        1.0  0.68892  0.83144  0.02354  1.0000 -0.4850631656
S   S2        1.0  0.30790  0.66538  0.47646  1.0000 -0.4842125454
S   S3        1.0  0.19210  0.66856  0.35748  1.0000 -0.4842125454
S   S4        1.0  0.81108  0.83462  0.14252  1.0000 -0.4850631656
S   S5        1.0  0.02354  0.68892  0.83144  1.0000 -0.4842125454
S   S6        1.0  0.47646  0.30790  0.66538  1.0000 -0.4842125454
S   S7        1.0  0.35748  0.19210  0.66856  1.0000 -0.4842125454
S   S8        1.0  0.14252  0.81108  0.83462  1.0000 -0.4842125454
S   S9        1.0  0.83144  0.02354  0.68892  1.0000 -0.4850631656
S   S10       1.0  0.66538  0.47646  0.30790  1.0000 -0.4850631656
S   S11       1.0  0.66856  0.35748  0.19210  1.0000 -0.4850631656
S   S12       1.0  0.83462  0.14252  0.81108  1.0000 -0.4842125454
S   S13       1.0  0.33144  0.18892  0.52354  1.0000 -0.4842125454
S   S14       1.0  0.16538  0.80790  0.97646  1.0000 -0.4842125454
S   S15       1.0  0.16856  0.69210  0.85748  1.0000 -0.4842125454
S   S16       1.0  0.33462  0.31108  0.64252  1.0000 -0.4842125454
S   S17       1.0  0.18892  0.52354  0.33144  1.0000 -0.4850631656
S   S18       1.0  0.80790  0.97646  0.16538  1.0000 -0.4850631656
S   S19       1.0  0.69210  0.85748  0.16856  1.0000 -0.4850631656
S   S20       1.0  0.31108  0.64252  0.33462  1.0000 -0.4842125454
S   S21       1.0  0.52354  0.33144  0.18892  1.0000 -0.4850631656
S   S22       1.0  0.97646  0.16538  0.80790  1.0000 -0.4842125454
S   S23       1.0  0.85748  0.16856  0.69210  1.0000 -0.4850631656
S   S24       1.0  0.64252  0.33462  0.31108  1.0000 -0.4850631656
Br  Br1       1.0  0.79388  0.96774  0.00828  1.0000 -0.5351099738
Br  Br2       1.0  0.45946  0.78560  0.49172  1.0000 -0.5351099738
Br  Br3       1.0  0.04054  0.53226  0.32614  1.0000 -0.5335030757
Br  Br4       1.0  0.70612  0.71440  0.17386  1.0000 -0.5335030757
Br  Br5       1.0  0.00828  0.79388  0.96774  1.0000 -0.5335030757
Br  Br6       1.0  0.49172  0.45946  0.78560  1.0000 -0.5351099738
Br  Br7       1.0  0.32614  0.04054  0.53226  1.0000 -0.5351099738
Br  Br8       1.0  0.17386  0.70612  0.71440  1.0000 -0.5351099738
Br  Br9       1.0  0.96774  0.00828  0.79388  1.0000 -0.5351099738
Br  Br10      1.0  0.78560  0.49172  0.45946  1.0000 -0.5351099738
Br  Br11      1.0  0.53226  0.32614  0.04054  1.0000 -0.5351099738
Br  Br12      1.0  0.71440  0.17386  0.70612  1.0000 -0.5351099738
Br  Br13      1.0  0.46774  0.29388  0.50828  1.0000 -0.5351099738
Br  Br14      1.0  0.28560  0.95946  0.99172  1.0000 -0.5351099738
Br  Br15      1.0  0.03226  0.54054  0.82614  1.0000 -0.5351099738
Br  Br16      1.0  0.21440  0.20612  0.67386  1.0000 -0.5351099738
Br  Br17      1.0  0.29388  0.50828  0.46774  1.0000 -0.5351099738
Br  Br18      1.0  0.95946  0.99172  0.28560  1.0000 -0.5335030757
Br  Br19      1.0  0.54054  0.82614  0.03226  1.0000 -0.5335030757
Br  Br20      1.0  0.20612  0.67386  0.21440  1.0000 -0.5335030757
Br  Br21      1.0  0.50828  0.46774  0.29388  1.0000 -0.5351099738
Br  Br22      1.0  0.99172  0.28560  0.95946  1.0000 -0.5351099738
Br  Br23      1.0  0.82614  0.03226  0.54054  1.0000 -0.5351099738
Br  Br24      1.0  0.67386  0.21440  0.20612  1.0000 -0.5351099738
N   N1        1.0  0.69011  0.98405  0.05394  1.0000 -0.2444898526
N   N2        1.0  0.43011  0.63617  0.44606  1.0000 -0.2444898526
N   N3        1.0  0.06989  0.51595  0.20606  1.0000 -0.2444898526
N   N4        1.0  0.80989  0.86383  0.29394  1.0000 -0.2444898526
N   N5        1.0  0.05394  0.69011  0.98405  1.0000 -0.2444898526
N   N6        1.0  0.44606  0.43011  0.63617  1.0000 -0.2444898526
N   N7        1.0  0.20606  0.06989  0.51595  1.0000 -0.2444898526
N   N8        1.0  0.29394  0.80989  0.86383  1.0000 -0.2444898526
N   N9        1.0  0.98405  0.05394  0.69011  1.0000 -0.2444898526
N   N10       1.0  0.63617  0.44606  0.43011  1.0000 -0.2444898526
N   N11       1.0  0.51595  0.20606  0.06989  1.0000 -0.2444898526
N   N12       1.0  0.86383  0.29394  0.80989  1.0000 -0.2444898526
N   N13       1.0  0.48405  0.19011  0.55394  1.0000 -0.2444898526
N   N14       1.0  0.13617  0.93011  0.94606  1.0000 -0.2444898526
N   N15       1.0  0.01595  0.56989  0.70606  1.0000 -0.2444898526
N   N16       1.0  0.36383  0.30989  0.79394  1.0000 -0.2444898526
N   N17       1.0  0.19011  0.55394  0.48405  1.0000 -0.2444898526
N   N18       1.0  0.93011  0.94606  0.13617  1.0000 -0.2444898526
N   N19       1.0  0.56989  0.70606  0.01595  1.0000 -0.2444898526
N   N20       1.0  0.30989  0.79394  0.36383  1.0000 -0.2444898526
N   N21       1.0  0.55394  0.48405  0.19011  1.0000 -0.2444898526
N   N22       1.0  0.94606  0.13617  0.93011  1.0000 -0.2444898526
N   N23       1.0  0.70606  0.01595  0.56989  1.0000 -0.2444898526
N   N24       1.0  0.79394  0.36383  0.30989  1.0000 -0.2444898526
N   N25       1.0  0.61485  0.00634  0.03451  1.0000 0.0018456992
N   N26       1.0  0.47183  0.58034  0.46549  1.0000 0.0018456992
N   N27       1.0  0.02817  0.49366  0.10851  1.0000 0.0018456992
N   N28       1.0  0.88515  0.91966  0.39149  1.0000 0.0018456992
N   N29       1.0  0.03451  0.61485  0.00634  1.0000 0.0018456992
N   N30       1.0  0.46549  0.47183  0.58034  1.0000 0.0018456992
N   N31       1.0  0.10851  0.02817  0.49366  1.0000 0.0018456992
N   N32       1.0  0.39149  0.88515  0.91966  1.0000 0.0018456992
N   N33       1.0  0.00634  0.03451  0.61485  1.0000 0.0018456992
N   N34       1.0  0.58034  0.46549  0.47183  1.0000 0.0018456992
N   N35       1.0  0.49366  0.10851  0.02817  1.0000 0.0018456992
N   N36       1.0  0.91966  0.39149  0.88515  1.0000 0.0018456992
N   N37       1.0  0.50634  0.11485  0.53451  1.0000 0.0018456992
N   N38       1.0  0.08034  0.97183  0.96549  1.0000 0.0018456992
N   N39       1.0  0.99366  0.52817  0.60851  1.0000 0.0018456992
N   N40       1.0  0.41966  0.38515  0.89149  1.0000 0.0018456992
N   N41       1.0  0.11485  0.53451  0.50634  1.0000 0.0018456992
N   N42       1.0  0.97183  0.96549  0.08034  1.0000 0.0018456992
N   N43       1.0  0.52817  0.60851  0.99366  1.0000 0.0018456992
N   N44       1.0  0.38515  0.89149  0.41966  1.0000 0.0018456992
N   N45       1.0  0.53451  0.50634  0.11485  1.0000 0.0018456992
N   N46       1.0  0.96549  0.08034  0.97183  1.0000 0.0018456992
N   N47       1.0  0.60851  0.99366  0.52817  1.0000 0.0018456992
N   N48       1.0  0.89149  0.41966  0.38515  1.0000 0.0018456992
N   N49       1.0  0.71022  0.69553  0.00003  1.0000 -0.2027683837
N   N50       1.0  0.19550  0.71019  0.49997  1.0000 -0.2027683837
N   N51       1.0  0.30450  0.80447  0.51469  1.0000 -0.2027683837
N   N52       1.0  0.78978  0.78981  0.98531  1.0000 -0.2027683837
N   N53       1.0  0.00003  0.71022  0.69553  1.0000 -0.2027683837
N   N54       1.0  0.49997  0.19550  0.71019  1.0000 -0.2027683837
N   N55       1.0  0.51469  0.30450  0.80447  1.0000 -0.2027683837
N   N56       1.0  0.98531  0.78978  0.78981  1.0000 -0.2027683837
N   N57       1.0  0.69553  0.00003  0.71022  1.0000 -0.2027683837
N   N58       1.0  0.71019  0.49997  0.19550  1.0000 -0.2027683837
N   N59       1.0  0.80447  0.51469  0.30450  1.0000 -0.2027683837
N   N60       1.0  0.78981  0.98531  0.78978  1.0000 -0.2027683837
N   N61       1.0  0.19553  0.21022  0.50003  1.0000 -0.2027683837
N   N62       1.0  0.21019  0.69550  0.99997  1.0000 -0.2027683837
N   N63       1.0  0.30447  0.80450  0.01469  1.0000 -0.2027683837
N   N64       1.0  0.28981  0.28978  0.48531  1.0000 -0.2027683837
N   N65       1.0  0.21022  0.50003  0.19553  1.0000 -0.2027683837
N   N66       1.0  0.69550  0.99997  0.21019  1.0000 -0.2027683837
N   N67       1.0  0.80450  0.01469  0.30447  1.0000 -0.2027683837
N   N68       1.0  0.28978  0.48531  0.28981  1.0000 -0.2027683837
N   N69       1.0  0.50003  0.19553  0.21022  1.0000 -0.2027683837
N   N70       1.0  0.99997  0.21019  0.69550  1.0000 -0.2027683837
N   N71       1.0  0.01469  0.30447  0.80450  1.0000 -0.2027683837
N   N72       1.0  0.48531  0.28981  0.28978  1.0000 -0.2027683837
N   N73       1.0  0.67362  0.60525  0.98609  1.0000 0.0297259049
N   N74       1.0  0.11916  0.68753  0.51391  1.0000 0.0297259049
N   N75       1.0  0.38084  0.89475  0.56837  1.0000 0.0297259049
N   N76       1.0  0.82638  0.81247  0.93163  1.0000 0.0297259049
N   N77       1.0  0.98609  0.67362  0.60525  1.0000 0.0297259049
N   N78       1.0  0.51391  0.11916  0.68753  1.0000 0.0297259049
N   N79       1.0  0.56837  0.38084  0.89475  1.0000 0.0297259049
N   N80       1.0  0.93163  0.82638  0.81247  1.0000 0.0297259049
N   N81       1.0  0.60525  0.98609  0.67362  1.0000 0.0297259049
N   N82       1.0  0.68753  0.51391  0.11916  1.0000 0.0297259049
N   N83       1.0  0.89475  0.56837  0.38084  1.0000 0.0297259049
N   N84       1.0  0.81247  0.93163  0.82638  1.0000 0.0297259049
N   N85       1.0  0.10525  0.17362  0.48609  1.0000 0.0297259049
N   N86       1.0  0.18753  0.61916  0.01391  1.0000 0.0297259049
N   N87       1.0  0.39475  0.88084  0.06837  1.0000 0.0297259049
N   N88       1.0  0.31247  0.32638  0.43163  1.0000 0.0297259049
N   N89       1.0  0.17362  0.48609  0.10525  1.0000 0.0297259049
N   N90       1.0  0.61916  0.01391  0.18753  1.0000 0.0297259049
N   N91       1.0  0.88084  0.06837  0.39475  1.0000 0.0297259049
N   N92       1.0  0.32638  0.43163  0.31247  1.0000 0.0297259049
N   N93       1.0  0.48609  0.10525  0.17362  1.0000 0.0297259049
N   N94       1.0  0.01391  0.18753  0.61916  1.0000 0.0297259049
N   N95       1.0  0.06837  0.39475  0.88084  1.0000 0.0297259049
N   N96       1.0  0.43163  0.31247  0.32638  1.0000 0.0297259049
