# DDEC6 charges by PACMAN v1.1 (https://github.com/mtap-research/PACMAN-charge/)
data_2009[ErAg][nan]3[ASR]1
_chemical_formula_sum              "Er4 Ag4 H52 C56 N8 O28"
_cell_length_a       16.1952
_cell_length_b       14.8673
_cell_length_c       7.8938
_cell_angle_alpha    90
_cell_angle_beta     91.783
_cell_angle_gamma    90

_symmetry_space_group_name_H-M    "P 1"
_symmetry_Int_Tables_number       1

loop_
  _symmetry_equiv_pos_as_xyz
  'x, y, z'

loop_
  _atom_site_type_symbol
  _atom_site_label
  _atom_site_symmetry_multiplicity
  _atom_site_fract_x
  _atom_site_fract_y
  _atom_site_fract_z
  _atom_site_occupancy
  _atom_site_charge
Er  Er1       1.0  0.95473  0.88338  0.05027  1.0000 2.1263863741
Er  Er2       1.0  0.04527  0.11662  0.94973  1.0000 2.1263863741
Er  Er3       1.0  0.04527  0.38338  0.44973  1.0000 2.1263863741
Er  Er4       1.0  0.95473  0.61662  0.55027  1.0000 2.1263863741
Ag  Ag1       1.0  0.47397  0.73772  0.09966  1.0000 0.2218372076
Ag  Ag2       1.0  0.52603  0.26228  0.90034  1.0000 0.2218372076
Ag  Ag3       1.0  0.52603  0.23772  0.40034  1.0000 0.2218372076
Ag  Ag4       1.0  0.47397  0.76228  0.59966  1.0000 0.2218372076
H   H1        1.0  0.28080  0.49903  0.33247  1.0000 0.1097180304
H   H2        1.0  0.71920  0.50097  0.66753  1.0000 0.1097180304
H   H3        1.0  0.71920  0.99903  0.16753  1.0000 0.1097180304
H   H4        1.0  0.28080  0.00097  0.83247  1.0000 0.1097180304
H   H5        1.0  0.41117  0.56871  0.23781  1.0000 0.0612759227
H   H6        1.0  0.58883  0.43129  0.76219  1.0000 0.0612759227
H   H7        1.0  0.58883  0.06871  0.26219  1.0000 0.0612759227
H   H8        1.0  0.41117  0.93129  0.73781  1.0000 0.0612759227
H   H9        1.0  0.29281  0.81994  0.16828  1.0000 0.0723158567
H   H10       1.0  0.70719  0.18006  0.83172  1.0000 0.0723158567
H   H11       1.0  0.70719  0.31994  0.33172  1.0000 0.0723158567
H   H12       1.0  0.29281  0.68006  0.66828  1.0000 0.0723158567
H   H13       1.0  0.15924  0.75683  0.26299  1.0000 0.1298622972
H   H14       1.0  0.84076  0.24317  0.73701  1.0000 0.1298622972
H   H15       1.0  0.84076  0.25683  0.23701  1.0000 0.1298622972
H   H16       1.0  0.15924  0.74317  0.76299  1.0000 0.1298622972
H   H17       1.0  0.60095  0.60641  0.98235  1.0000 0.0612759227
H   H18       1.0  0.39905  0.39359  0.01765  1.0000 0.0612759227
H   H19       1.0  0.39905  0.10641  0.51765  1.0000 0.0612759227
H   H20       1.0  0.60095  0.89359  0.48235  1.0000 0.0612759227
H   H21       1.0  0.74143  0.60540  0.86386  1.0000 0.1150158196
H   H22       1.0  0.25857  0.39460  0.13614  1.0000 0.1097180304
H   H23       1.0  0.25857  0.10540  0.63614  1.0000 0.1150158196
H   H24       1.0  0.74143  0.89460  0.36386  1.0000 0.1150158196
H   H25       1.0  0.74365  0.89666  0.89796  1.0000 0.1097180304
H   H26       1.0  0.25635  0.10334  0.10204  1.0000 0.1097180304
H   H27       1.0  0.25635  0.39666  0.60204  1.0000 0.1097180304
H   H28       1.0  0.74365  0.60334  0.39796  1.0000 0.1097180304
H   H29       1.0  0.60210  0.89028  0.00957  1.0000 0.0612759227
H   H30       1.0  0.39790  0.10972  0.99043  1.0000 0.0612759227
H   H31       1.0  0.39790  0.39028  0.49043  1.0000 0.0612759227
H   H32       1.0  0.60210  0.60972  0.50957  1.0000 0.0723158567
H   H33       1.0  0.02100  0.69774  0.98367  1.0000 0.4245224892
H   H34       1.0  0.97900  0.30226  0.01633  1.0000 0.4245224892
H   H35       1.0  0.97900  0.19774  0.51633  1.0000 0.4245224892
H   H36       1.0  0.02100  0.80226  0.48367  1.0000 0.4245224892
H   H37       1.0  0.97281  0.69512  0.15841  1.0000 0.4079003109
H   H38       1.0  0.02719  0.30488  0.84159  1.0000 0.4079003109
H   H39       1.0  0.02719  0.19512  0.34159  1.0000 0.4079003109
H   H40       1.0  0.97281  0.80488  0.65841  1.0000 0.4079003109
H   H41       1.0  0.17641  0.04047  0.33041  1.0000 0.1488313376
H   H42       1.0  0.82359  0.95953  0.66959  1.0000 0.1488313376
H   H43       1.0  0.82359  0.54047  0.16959  1.0000 0.1488313376
H   H44       1.0  0.17641  0.45953  0.83041  1.0000 0.1488313376
H   H45       1.0  0.18304  0.92729  0.41787  1.0000 0.1488313376
H   H46       1.0  0.81696  0.07271  0.58213  1.0000 0.1488313376
H   H47       1.0  0.81696  0.42729  0.08213  1.0000 0.1488313376
H   H48       1.0  0.18304  0.57271  0.91787  1.0000 0.1488313376
H   H49       1.0  0.12237  0.01082  0.51747  1.0000 0.1696243881
H   H50       1.0  0.87763  0.98918  0.48253  1.0000 0.1696243881
H   H51       1.0  0.87763  0.51082  0.98253  1.0000 0.1696243881
H   H52       1.0  0.12237  0.48918  0.01747  1.0000 0.1696243881
C   C1        1.0  0.13193  0.58097  0.36220  1.0000 0.6310090123
C   C2        1.0  0.86807  0.41903  0.63780  1.0000 0.6310090123
C   C3        1.0  0.86807  0.08097  0.13780  1.0000 0.6310090123
C   C4        1.0  0.13193  0.91903  0.86220  1.0000 0.6310090123
C   C5        1.0  0.20929  0.62246  0.30537  1.0000 -0.0204541051
C   C6        1.0  0.79071  0.37754  0.69463  1.0000 -0.0204541051
C   C7        1.0  0.79071  0.12246  0.19463  1.0000 -0.0204541051
C   C8        1.0  0.20929  0.87754  0.80537  1.0000 -0.0204541051
C   C9        1.0  0.28208  0.57035  0.29657  1.0000 -0.1467466951
C   C10       1.0  0.71792  0.42965  0.70343  1.0000 -0.1467466951
C   C11       1.0  0.71792  0.07035  0.20343  1.0000 -0.1467466951
C   C12       1.0  0.28208  0.92965  0.79657  1.0000 -0.1467466951
C   C13       1.0  0.35433  0.60902  0.24398  1.0000 0.0384914175
C   C14       1.0  0.64567  0.39098  0.75602  1.0000 0.0384914175
C   C15       1.0  0.64567  0.10902  0.25602  1.0000 0.0384914175
C   C16       1.0  0.35433  0.89098  0.74398  1.0000 0.0384914175
C   C17       1.0  0.28860  0.74889  0.20593  1.0000 0.0612759227
C   C18       1.0  0.71140  0.25111  0.79407  1.0000 0.0612759227
C   C19       1.0  0.71140  0.24889  0.29407  1.0000 0.0612759227
C   C20       1.0  0.28860  0.75111  0.70593  1.0000 0.0612759227
C   C21       1.0  0.21446  0.71413  0.25969  1.0000 -0.1240080242
C   C22       1.0  0.78554  0.28587  0.74031  1.0000 -0.1240080242
C   C23       1.0  0.78554  0.21413  0.24031  1.0000 -0.1240080242
C   C24       1.0  0.21446  0.78587  0.75969  1.0000 -0.1240080242
C   C25       1.0  0.63356  0.67000  0.95996  1.0000 0.0384914175
C   C26       1.0  0.36644  0.33000  0.04004  1.0000 0.0384914175
C   C27       1.0  0.36644  0.17000  0.54004  1.0000 0.0384914175
C   C28       1.0  0.63356  0.83000  0.45996  1.0000 0.0384914175
C   C29       1.0  0.71161  0.66926  0.89472  1.0000 -0.129203966
C   C30       1.0  0.28839  0.33074  0.10528  1.0000 -0.129203966
C   C31       1.0  0.28839  0.16926  0.60528  1.0000 -0.129203966
C   C32       1.0  0.71161  0.83074  0.39472  1.0000 -0.129203966
C   C33       1.0  0.75458  0.75108  0.87167  1.0000 -0.0204541051
C   C34       1.0  0.24542  0.24892  0.12833  1.0000 -0.0204541051
C   C35       1.0  0.24542  0.25108  0.62833  1.0000 -0.0204541051
C   C36       1.0  0.75458  0.74892  0.37167  1.0000 -0.0204541051
C   C37       1.0  0.83815  0.75123  0.80203  1.0000 0.6412381231
C   C38       1.0  0.16185  0.24877  0.19797  1.0000 0.6412381231
C   C39       1.0  0.16185  0.25123  0.69797  1.0000 0.6412381231
C   C40       1.0  0.83815  0.74877  0.30203  1.0000 0.6412381231
C   C41       1.0  0.71338  0.83132  0.91425  1.0000 -0.129203966
C   C42       1.0  0.28662  0.16868  0.08575  1.0000 -0.129203966
C   C43       1.0  0.28662  0.33132  0.58575  1.0000 -0.129203966
C   C44       1.0  0.71338  0.66868  0.41425  1.0000 -0.129203966
C   C45       1.0  0.63441  0.82808  0.97579  1.0000 0.0486073605
C   C46       1.0  0.36559  0.17192  0.02421  1.0000 0.0486073605
C   C47       1.0  0.36559  0.32808  0.52421  1.0000 0.0486073605
C   C48       1.0  0.63441  0.67192  0.47579  1.0000 0.0486073605
C   C49       1.0  0.07015  0.95669  0.28538  1.0000 0.7333144693
C   C50       1.0  0.92985  0.04331  0.71462  1.0000 0.7333144693
C   C51       1.0  0.92985  0.45669  0.21462  1.0000 0.7333144693
C   C52       1.0  0.07015  0.54331  0.78538  1.0000 0.7333144693
C   C53       1.0  0.14282  0.98613  0.39325  1.0000 -0.5083074124
C   C54       1.0  0.85718  0.01387  0.60675  1.0000 -0.5083074124
C   C55       1.0  0.85718  0.48613  0.10675  1.0000 -0.5083074124
C   C56       1.0  0.14282  0.51387  0.89325  1.0000 -0.5083074124
N   N1        1.0  0.36017  0.69866  0.19629  1.0000 -0.2289364879
N   N2        1.0  0.63983  0.30134  0.80371  1.0000 -0.2289364879
N   N3        1.0  0.63983  0.19866  0.30371  1.0000 -0.2289364879
N   N4        1.0  0.36017  0.80134  0.69629  1.0000 -0.2289364879
N   N5        1.0  0.59205  0.74848  0.00022  1.0000 -0.2289364879
N   N6        1.0  0.40795  0.25152  0.99978  1.0000 -0.2289364879
N   N7        1.0  0.40795  0.24848  0.49978  1.0000 -0.2289364879
N   N8        1.0  0.59205  0.75152  0.50022  1.0000 -0.2289364879
O   O1        1.0  0.07377  0.63334  0.40849  1.0000 -0.6605450214
O   O2        1.0  0.92623  0.36666  0.59151  1.0000 -0.6605450214
O   O3        1.0  0.92623  0.13334  0.09151  1.0000 -0.6605450214
O   O4        1.0  0.07377  0.86666  0.90849  1.0000 -0.6605450214
O   O5        1.0  0.12962  0.49452  0.36237  1.0000 -0.6895606221
O   O6        1.0  0.87038  0.50548  0.63763  1.0000 -0.6895606221
O   O7        1.0  0.87038  0.99452  0.13763  1.0000 -0.6895606221
O   O8        1.0  0.12962  0.00548  0.86237  1.0000 -0.6895606221
O   O9        1.0  0.86024  0.68243  0.71830  1.0000 -0.6678377093
O   O10       1.0  0.13976  0.31757  0.28170  1.0000 -0.6678377093
O   O11       1.0  0.13976  0.18243  0.78170  1.0000 -0.6678377093
O   O12       1.0  0.86024  0.81757  0.21830  1.0000 -0.6678377093
O   O13       1.0  0.88479  0.82112  0.82787  1.0000 -0.7120752634
O   O14       1.0  0.11521  0.17888  0.17213  1.0000 -0.7120752634
O   O15       1.0  0.11521  0.32112  0.67213  1.0000 -0.7120752634
O   O16       1.0  0.88479  0.67888  0.32787  1.0000 -0.7120752634
O   O17       1.0  0.00094  0.73408  0.07839  1.0000 -0.8564365657
O   O18       1.0  0.99906  0.26592  0.92161  1.0000 -0.8564365657
O   O19       1.0  0.99906  0.23408  0.42161  1.0000 -0.8564365657
O   O20       1.0  0.00094  0.76592  0.57839  1.0000 -0.8564365657
O   O21       1.0  0.03157  0.88316  0.31596  1.0000 -0.6605450214
O   O22       1.0  0.96843  0.11684  0.68404  1.0000 -0.6605450214
O   O23       1.0  0.96843  0.38316  0.18404  1.0000 -0.6605450214
O   O24       1.0  0.03157  0.61684  0.81596  1.0000 -0.6605450214
O   O25       1.0  0.04606  0.00330  0.15555  1.0000 -0.779003054
O   O26       1.0  0.95394  0.99670  0.84445  1.0000 -0.779003054
O   O27       1.0  0.95394  0.50330  0.34445  1.0000 -0.779003054
O   O28       1.0  0.04606  0.49670  0.65555  1.0000 -0.779003054
