# DDEC6 charges by PACMAN v1.1 (https://github.com/mtap-research/PACMAN-charge/)
data_2009[Gd][rtl]3[ASR]1
_chemical_formula_sum              "Gd4 P4 H44 C28 N4 O20"
_cell_length_a       5.515
_cell_length_b       13.393
_cell_length_c       20.8105
_cell_angle_alpha    90
_cell_angle_beta     95.382
_cell_angle_gamma    90

_symmetry_space_group_name_H-M    "P 1"
_symmetry_Int_Tables_number       1

loop_
  _symmetry_equiv_pos_as_xyz
  'x, y, z'

loop_
  _atom_site_type_symbol
  _atom_site_label
  _atom_site_symmetry_multiplicity
  _atom_site_fract_x
  _atom_site_fract_y
  _atom_site_fract_z
  _atom_site_occupancy
  _atom_site_charge
Gd  Gd1       1.0  0.87244  0.63255  0.52777  1.0000 2.0618925279
Gd  Gd2       1.0  0.12756  0.13255  0.97223  1.0000 2.0618925279
Gd  Gd3       1.0  0.12756  0.36745  0.47223  1.0000 2.0618925279
Gd  Gd4       1.0  0.87244  0.86745  0.02777  1.0000 2.0618925279
P   P1        1.0  0.59070  0.52121  0.41416  1.0000 1.3439471906
P   P2        1.0  0.40930  0.02121  0.08584  1.0000 1.3439471906
P   P3        1.0  0.40930  0.47879  0.58584  1.0000 1.3439471906
P   P4        1.0  0.59070  0.97879  0.91416  1.0000 1.3439471906
H   H1        1.0  0.83240  0.58220  0.33670  1.0000 0.1298174893
H   H2        1.0  0.16760  0.08220  0.16330  1.0000 0.1298174893
H   H3        1.0  0.16760  0.41780  0.66330  1.0000 0.1298174893
H   H4        1.0  0.83240  0.91780  0.83670  1.0000 0.1298174893
H   H5        1.0  0.74350  0.47450  0.31770  1.0000 0.1450975871
H   H6        1.0  0.25650  0.97450  0.18230  1.0000 0.1450975871
H   H7        1.0  0.25650  0.52550  0.68230  1.0000 0.1450975871
H   H8        1.0  0.74350  0.02550  0.81770  1.0000 0.1450975871
H   H9        1.0  0.62120  0.72770  0.29920  1.0000 0.0898910916
H   H10       1.0  0.37880  0.22770  0.20080  1.0000 0.0898910916
H   H11       1.0  0.37880  0.27230  0.70080  1.0000 0.0898910916
H   H12       1.0  0.62120  0.77230  0.79920  1.0000 0.0898910916
H   H13       1.0  0.40950  0.69700  0.34090  1.0000 0.1106601417
H   H14       1.0  0.59050  0.19700  0.15910  1.0000 0.1106601417
H   H15       1.0  0.59050  0.30300  0.65910  1.0000 0.1106601417
H   H16       1.0  0.40950  0.80300  0.84090  1.0000 0.1106601417
H   H17       1.0  0.25550  0.80510  0.25590  1.0000 0.0988626143
H   H18       1.0  0.74450  0.30510  0.24410  1.0000 0.0988626143
H   H19       1.0  0.74450  0.19490  0.74410  1.0000 0.0988626143
H   H20       1.0  0.25550  0.69490  0.75590  1.0000 0.0988626143
H   H21       1.0  0.12650  0.70080  0.24850  1.0000 0.0898910916
H   H22       1.0  0.87350  0.20080  0.25150  1.0000 0.0898910916
H   H23       1.0  0.87350  0.29920  0.75150  1.0000 0.0898910916
H   H24       1.0  0.12650  0.79920  0.74850  1.0000 0.0898910916
H   H25       1.0  0.51840  0.76000  0.17500  1.0000 0.1106601417
H   H26       1.0  0.48160  0.26000  0.32500  1.0000 0.1106601417
H   H27       1.0  0.48160  0.24000  0.82500  1.0000 0.1106601417
H   H28       1.0  0.51840  0.74000  0.67500  1.0000 0.1106601417
H   H29       1.0  0.24730  0.57390  0.16790  1.0000 0.0898910916
H   H30       1.0  0.75270  0.07390  0.33210  1.0000 0.0898910916
H   H31       1.0  0.75270  0.42610  0.83210  1.0000 0.0898910916
H   H32       1.0  0.24730  0.92610  0.66790  1.0000 0.0898910916
H   H33       1.0  0.45130  0.59850  0.12240  1.0000 0.1106601417
H   H34       1.0  0.54870  0.09850  0.37760  1.0000 0.1106601417
H   H35       1.0  0.54870  0.40150  0.87760  1.0000 0.1106601417
H   H36       1.0  0.45130  0.90150  0.62240  1.0000 0.1106601417
H   H37       1.0  0.62530  0.49690  0.20950  1.0000 0.0898910916
H   H38       1.0  0.37470  0.99690  0.29050  1.0000 0.0898910916
H   H39       1.0  0.37470  0.50310  0.79050  1.0000 0.0898910916
H   H40       1.0  0.62530  0.00310  0.70950  1.0000 0.0898910916
H   H41       1.0  0.75000  0.60260  0.21490  1.0000 0.0898910916
H   H42       1.0  0.25000  0.10260  0.28510  1.0000 0.0898910916
H   H43       1.0  0.25000  0.39740  0.78510  1.0000 0.0898910916
H   H44       1.0  0.75000  0.89740  0.71490  1.0000 0.0898910916
C   C1        1.0  0.69110  0.53880  0.33290  1.0000 -0.422134679
C   C2        1.0  0.30890  0.03880  0.16710  1.0000 -0.422134679
C   C3        1.0  0.30890  0.46120  0.66710  1.0000 -0.422134679
C   C4        1.0  0.69110  0.96120  0.83290  1.0000 -0.422134679
C   C5        1.0  0.46890  0.69130  0.29870  1.0000 -0.1187460592
C   C6        1.0  0.53110  0.19130  0.20130  1.0000 -0.1187460592
C   C7        1.0  0.53110  0.30870  0.70130  1.0000 -0.1187460592
C   C8        1.0  0.46890  0.80870  0.79870  1.0000 -0.1187460592
C   C9        1.0  0.28070  0.73510  0.24670  1.0000 -0.2147746088
C   C10       1.0  0.71930  0.23510  0.25330  1.0000 -0.2147746088
C   C11       1.0  0.71930  0.26490  0.75330  1.0000 -0.2147746088
C   C12       1.0  0.28070  0.76490  0.74670  1.0000 -0.2147746088
C   C13       1.0  0.36400  0.72470  0.17760  1.0000 -0.1011080707
C   C14       1.0  0.63600  0.22470  0.32240  1.0000 -0.1011080707
C   C15       1.0  0.63600  0.27530  0.82240  1.0000 -0.1011080707
C   C16       1.0  0.36400  0.77530  0.67760  1.0000 -0.1011080707
C   C17       1.0  0.40000  0.60890  0.16520  1.0000 -0.1964232588
C   C18       1.0  0.60000  0.10890  0.33480  1.0000 -0.1964232588
C   C19       1.0  0.60000  0.39110  0.83480  1.0000 -0.1964232588
C   C20       1.0  0.40000  0.89110  0.66520  1.0000 -0.1964232588
C   C21       1.0  0.59760  0.56720  0.21720  1.0000 -0.1187460592
C   C22       1.0  0.40240  0.06720  0.28280  1.0000 -0.1187460592
C   C23       1.0  0.40240  0.43280  0.78280  1.0000 -0.1187460592
C   C24       1.0  0.59760  0.93280  0.71720  1.0000 -0.1187460592
C   C25       1.0  0.17130  0.76390  0.12500  1.0000 0.5557333415
C   C26       1.0  0.82870  0.26390  0.37500  1.0000 0.5557333415
C   C27       1.0  0.82870  0.23610  0.87500  1.0000 0.5557333415
C   C28       1.0  0.17130  0.73610  0.62500  1.0000 0.5557333415
N   N1        1.0  0.50880  0.58130  0.28250  1.0000 -0.0092925716
N   N2        1.0  0.49120  0.08130  0.21750  1.0000 -0.0092925716
N   N3        1.0  0.49120  0.41870  0.71750  1.0000 -0.0092925716
N   N4        1.0  0.50880  0.91870  0.78250  1.0000 -0.0092925716
O   O1        1.0  0.54070  0.62270  0.44440  1.0000 -0.8766041809
O   O2        1.0  0.45930  0.12270  0.05560  1.0000 -0.8766041809
O   O3        1.0  0.45930  0.37730  0.55560  1.0000 -0.8766041809
O   O4        1.0  0.54070  0.87730  0.94440  1.0000 -0.8766041809
O   O5        1.0  0.82140  0.48080  0.45480  1.0000 -0.9838704878
O   O6        1.0  0.17860  0.98080  0.04520  1.0000 -0.9838704878
O   O7        1.0  0.17860  0.51920  0.54520  1.0000 -0.9838704878
O   O8        1.0  0.82140  0.01920  0.95480  1.0000 -0.9838704878
O   O9        1.0  0.37460  0.45030  0.40878  1.0000 -0.8478016669
O   O10       1.0  0.62540  0.95030  0.09122  1.0000 -0.8478016669
O   O11       1.0  0.62540  0.54970  0.59122  1.0000 -0.8478016669
O   O12       1.0  0.37460  0.04970  0.90878  1.0000 -0.8478016669
O   O13       1.0  0.00190  0.81910  0.14080  1.0000 -0.625531044
O   O14       1.0  0.99810  0.31910  0.35920  1.0000 -0.625531044
O   O15       1.0  0.99810  0.18090  0.85920  1.0000 -0.625531044
O   O16       1.0  0.00190  0.68090  0.64080  1.0000 -0.625531044
O   O17       1.0  0.19890  0.74890  0.06770  1.0000 -0.6017539466
O   O18       1.0  0.80110  0.24890  0.43230  1.0000 -0.6017539466
O   O19       1.0  0.80110  0.25110  0.93230  1.0000 -0.6017539466
O   O20       1.0  0.19890  0.75110  0.56770  1.0000 -0.6017539466
