# DDEC6 charges by PACMAN v1.1 (https://github.com/mtap-research/PACMAN-charge/)
data_2009[CuMo][nan]3[ASR]1
_chemical_formula_sum              "Cu8 Mo8 H32 C44 N8 O28"
_cell_length_a       10.7367
_cell_length_b       5.8821
_cell_length_c       27.792
_cell_angle_alpha    90
_cell_angle_beta     97.811
_cell_angle_gamma    90

_symmetry_space_group_name_H-M    "P 1"
_symmetry_Int_Tables_number       1

loop_
  _symmetry_equiv_pos_as_xyz
  'x, y, z'

loop_
  _atom_site_type_symbol
  _atom_site_label
  _atom_site_symmetry_multiplicity
  _atom_site_fract_x
  _atom_site_fract_y
  _atom_site_fract_z
  _atom_site_occupancy
  _atom_site_charge
Cu  Cu1       1.0  0.70816  0.62419  0.29391  1.0000 0.9382644881
Cu  Cu2       1.0  0.29184  0.62419  0.20609  1.0000 0.9382644881
Cu  Cu3       1.0  0.29184  0.37581  0.70609  1.0000 0.9382644881
Cu  Cu4       1.0  0.70816  0.37581  0.79391  1.0000 0.9382644881
Cu  Cu5       1.0  0.80296  0.39501  0.21020  1.0000 0.9478958537
Cu  Cu6       1.0  0.19704  0.39501  0.28980  1.0000 0.9478958537
Cu  Cu7       1.0  0.19704  0.60499  0.78980  1.0000 0.9478958537
Cu  Cu8       1.0  0.80296  0.60499  0.71020  1.0000 0.9478958537
Mo  Mo1       1.0  0.57913  0.86317  0.19713  1.0000 1.7803662905
Mo  Mo2       1.0  0.42087  0.86317  0.30287  1.0000 1.7956441928
Mo  Mo3       1.0  0.42087  0.13683  0.80287  1.0000 1.7803662905
Mo  Mo4       1.0  0.57913  0.13683  0.69713  1.0000 1.7803662905
Mo  Mo5       1.0  0.07635  0.15473  0.18369  1.0000 1.806692927
Mo  Mo6       1.0  0.92365  0.15473  0.31631  1.0000 1.8288255025
Mo  Mo7       1.0  0.92365  0.84527  0.81631  1.0000 1.8288255025
Mo  Mo8       1.0  0.07635  0.84527  0.68369  1.0000 1.806692927
H   H1        1.0  0.89380  0.24400  0.65360  1.0000 0.089307779
H   H2        1.0  0.10620  0.24400  0.84640  1.0000 0.089307779
H   H3        1.0  0.10620  0.75600  0.34640  1.0000 0.089307779
H   H4        1.0  0.89380  0.75600  0.15360  1.0000 0.089307779
H   H5        1.0  0.85470  0.08880  0.57620  1.0000 0.1151780178
H   H6        1.0  0.14530  0.08880  0.92380  1.0000 0.1151780178
H   H7        1.0  0.14530  0.91120  0.42380  1.0000 0.1134742828
H   H8        1.0  0.85470  0.91120  0.07620  1.0000 0.1134742828
H   H9        1.0  0.63740  0.63780  0.53460  1.0000 0.1134742828
H   H10       1.0  0.36260  0.63780  0.96540  1.0000 0.1134742828
H   H11       1.0  0.36260  0.36220  0.46540  1.0000 0.1134742828
H   H12       1.0  0.63740  0.36220  0.03460  1.0000 0.1134742828
H   H13       1.0  0.68040  0.77590  0.61370  1.0000 0.083621866
H   H14       1.0  0.31960  0.77590  0.88630  1.0000 0.083621866
H   H15       1.0  0.31960  0.22410  0.38630  1.0000 0.083621866
H   H16       1.0  0.68040  0.22410  0.11370  1.0000 0.083621866
H   H17       1.0  0.78820  0.78410  0.39660  1.0000 0.089307779
H   H18       1.0  0.21180  0.78410  0.10340  1.0000 0.089307779
H   H19       1.0  0.21180  0.21590  0.60340  1.0000 0.089307779
H   H20       1.0  0.78820  0.21590  0.89660  1.0000 0.089307779
H   H21       1.0  0.78510  0.63940  0.47460  1.0000 0.1134742828
H   H22       1.0  0.21490  0.63940  0.02540  1.0000 0.1134742828
H   H23       1.0  0.21490  0.36060  0.52540  1.0000 0.1134742828
H   H24       1.0  0.78510  0.36060  0.97460  1.0000 0.1134742828
H   H25       1.0  0.58750  0.09810  0.41440  1.0000 0.1134742828
H   H26       1.0  0.41250  0.09810  0.08560  1.0000 0.1134742828
H   H27       1.0  0.41250  0.90190  0.58560  1.0000 0.1134742828
H   H28       1.0  0.58750  0.90190  0.91440  1.0000 0.1134742828
H   H29       1.0  0.59610  0.25650  0.33850  1.0000 0.089307779
H   H30       1.0  0.40390  0.25650  0.16150  1.0000 0.089307779
H   H31       1.0  0.40390  0.74350  0.66150  1.0000 0.089307779
H   H32       1.0  0.59610  0.74350  0.83850  1.0000 0.089307779
C   C1        1.0  0.83970  0.32210  0.62920  1.0000 0.0183963206
C   C2        1.0  0.16030  0.32210  0.87080  1.0000 0.0183963206
C   C3        1.0  0.16030  0.67790  0.37080  1.0000 0.0183963206
C   C4        1.0  0.83970  0.67790  0.12920  1.0000 0.0183963206
C   C5        1.0  0.81690  0.22870  0.58333  1.0000 -0.1816494227
C   C6        1.0  0.18310  0.22870  0.91667  1.0000 -0.1816494227
C   C7        1.0  0.18310  0.77130  0.41667  1.0000 -0.1816494227
C   C8        1.0  0.81690  0.77130  0.08333  1.0000 -0.1816494227
C   C9        1.0  0.73740  0.34380  0.54757  1.0000 0.0403545246
C   C10       1.0  0.26260  0.34380  0.95243  1.0000 0.0403545246
C   C11       1.0  0.26260  0.65620  0.45243  1.0000 0.0403545246
C   C12       1.0  0.73740  0.65620  0.04757  1.0000 0.0403545246
C   C13       1.0  0.68840  0.55240  0.55880  1.0000 -0.1852741848
C   C14       1.0  0.31160  0.55240  0.94120  1.0000 -0.1852741848
C   C15       1.0  0.31160  0.44760  0.44120  1.0000 -0.1852741848
C   C16       1.0  0.68840  0.44760  0.05880  1.0000 -0.1852741848
C   C17       1.0  0.71500  0.63420  0.60583  1.0000 0.0706740347
C   C18       1.0  0.28500  0.63420  0.89417  1.0000 0.0706740347
C   C19       1.0  0.28500  0.36580  0.39417  1.0000 0.0706740347
C   C20       1.0  0.71500  0.36580  0.10583  1.0000 0.0706740347
C   C21       1.0  0.74830  0.64240  0.40049  1.0000 0.0706740347
C   C22       1.0  0.25170  0.64240  0.09951  1.0000 0.0706740347
C   C23       1.0  0.25170  0.35760  0.59951  1.0000 0.0706740347
C   C24       1.0  0.74830  0.35760  0.90049  1.0000 0.0706740347
C   C25       1.0  0.74720  0.55700  0.44703  1.0000 -0.1816494227
C   C26       1.0  0.25280  0.55700  0.05297  1.0000 -0.1816494227
C   C27       1.0  0.25280  0.44300  0.55297  1.0000 -0.1816494227
C   C28       1.0  0.74720  0.44300  0.94703  1.0000 -0.1816494227
C   C29       1.0  0.68970  0.34870  0.45250  1.0000 0.0403545246
C   C30       1.0  0.31030  0.34870  0.04750  1.0000 0.0403545246
C   C31       1.0  0.31030  0.65130  0.54750  1.0000 0.0403545246
C   C32       1.0  0.68970  0.65130  0.95250  1.0000 0.0403545246
C   C33       1.0  0.63060  0.23740  0.41150  1.0000 -0.1816494227
C   C34       1.0  0.36940  0.23740  0.08850  1.0000 -0.1816494227
C   C35       1.0  0.36940  0.76260  0.58850  1.0000 -0.1816494227
C   C36       1.0  0.63060  0.76260  0.91150  1.0000 -0.1816494227
C   C37       1.0  0.63570  0.33310  0.36658  1.0000 0.0183963206
C   C38       1.0  0.36430  0.33310  0.13342  1.0000 0.0183963206
C   C39       1.0  0.36430  0.66690  0.63342  1.0000 0.0183963206
C   C40       1.0  0.63570  0.66690  0.86658  1.0000 0.0183963206
C   C41       1.0  0.69820  0.22470  0.50012  1.0000 0.2986992587
C   C42       1.0  0.30180  0.22470  0.99988  1.0000 0.2986992587
C   C43       1.0  0.30180  0.77530  0.49988  1.0000 0.2986992587
C   C44       1.0  0.69820  0.77530  0.00012  1.0000 0.2986992587
N   N1        1.0  0.78811  0.51940  0.64058  1.0000 -0.2941047336
N   N2        1.0  0.21189  0.51940  0.85942  1.0000 -0.2941047336
N   N3        1.0  0.21189  0.48060  0.35942  1.0000 -0.2941047336
N   N4        1.0  0.78811  0.48060  0.14058  1.0000 -0.2941047336
N   N5        1.0  0.69480  0.53110  0.36106  1.0000 -0.3009483452
N   N6        1.0  0.30520  0.53110  0.13894  1.0000 -0.3009483452
N   N7        1.0  0.30520  0.46890  0.63894  1.0000 -0.3009483452
N   N8        1.0  0.69480  0.46890  0.86106  1.0000 -0.3009483452
O   O1        1.0  0.70154  0.65930  0.22403  1.0000 -0.8811635832
O   O2        1.0  0.29846  0.65930  0.27597  1.0000 -0.8811635832
O   O3        1.0  0.29846  0.34070  0.77597  1.0000 -0.8811635832
O   O4        1.0  0.70154  0.34070  0.72403  1.0000 -0.8811635832
O   O5        1.0  0.63717  0.14010  0.20025  1.0000 -0.7559989105
O   O6        1.0  0.36283  0.14010  0.29975  1.0000 -0.7559989105
O   O7        1.0  0.36283  0.85990  0.79975  1.0000 -0.7559989105
O   O8        1.0  0.63717  0.85990  0.70025  1.0000 -0.7559989105
O   O9        1.0  0.41760  0.86670  0.21062  1.0000 -0.9193917672
O   O10       1.0  0.58240  0.86670  0.28938  1.0000 -0.9193917672
O   O11       1.0  0.58240  0.13330  0.78938  1.0000 -0.9193917672
O   O12       1.0  0.41760  0.13330  0.71062  1.0000 -0.9193917672
O   O13       1.0  0.92511  0.15720  0.20274  1.0000 -0.8692752208
O   O14       1.0  0.07489  0.15720  0.29726  1.0000 -0.8692752208
O   O15       1.0  0.07489  0.84280  0.79726  1.0000 -0.8692752208
O   O16       1.0  0.92511  0.84280  0.70274  1.0000 -0.8692752208
O   O17       1.0  0.86810  0.87500  0.31121  1.0000 -0.7857769043
O   O18       1.0  0.13190  0.87500  0.18879  1.0000 -0.7857769043
O   O19       1.0  0.13190  0.12500  0.68879  1.0000 -0.784151585
O   O20       1.0  0.86810  0.12500  0.81121  1.0000 -0.7857769043
O   O21       1.0  0.81240  0.35210  0.28215  1.0000 -0.8692752208
O   O22       1.0  0.18760  0.35210  0.21785  1.0000 -0.8692752208
O   O23       1.0  0.18760  0.64790  0.71785  1.0000 -0.8692752208
O   O24       1.0  0.81240  0.64790  0.78215  1.0000 -0.8692752208
O   O25       1.0  0.67450  0.02330  0.50052  1.0000 -0.4461977343
O   O26       1.0  0.32550  0.02330  0.99948  1.0000 -0.4461977343
O   O27       1.0  0.32550  0.97670  0.49948  1.0000 -0.4461977343
O   O28       1.0  0.67450  0.97670  0.00052  1.0000 -0.4461977343
