# DDEC6 charges by PACMAN v1.1 (https://github.com/mtap-research/PACMAN-charge/)
data_2009[Cd][nan]3[ASR]5
_chemical_formula_sum              "Cd7 H48 C64 N16 O26"
_cell_length_a       7.509
_cell_length_b       11.881
_cell_length_c       20.942
_cell_angle_alpha    96.623
_cell_angle_beta     92.474
_cell_angle_gamma    102.015

_symmetry_space_group_name_H-M    "P 1"
_symmetry_Int_Tables_number       1

loop_
  _symmetry_equiv_pos_as_xyz
  'x, y, z'

loop_
  _atom_site_type_symbol
  _atom_site_label
  _atom_site_symmetry_multiplicity
  _atom_site_fract_x
  _atom_site_fract_y
  _atom_site_fract_z
  _atom_site_occupancy
  _atom_site_charge
Cd  Cd1       1.0  0.00000  0.00000  0.00000  1.0000 1.0319217252
Cd  Cd2       1.0  0.34831  0.14636  0.90422  1.0000 0.9794163513
Cd  Cd3       1.0  0.65169  0.85364  0.09578  1.0000 0.9794163513
Cd  Cd4       1.0  0.25120  0.98020  0.52188  1.0000 0.9334372091
Cd  Cd5       1.0  0.74880  0.01980  0.47812  1.0000 0.9334372091
Cd  Cd6       1.0  0.60627  0.82819  0.91535  1.0000 1.0094216871
Cd  Cd7       1.0  0.39373  0.17181  0.08465  1.0000 1.0094216871
H   H1        1.0  0.94540  0.20620  0.85790  1.0000 0.1196403095
H   H2        1.0  0.05460  0.79380  0.14210  1.0000 0.1196403095
H   H3        1.0  0.40070  0.43850  0.87200  1.0000 0.130903982
H   H4        1.0  0.59930  0.56150  0.12800  1.0000 0.130903982
H   H5        1.0  0.15960  0.53080  0.83700  1.0000 0.130903982
H   H6        1.0  0.84040  0.46920  0.16300  1.0000 0.130903982
H   H7        1.0  0.77520  0.45160  0.84140  1.0000 0.1113308859
H   H8        1.0  0.22480  0.54840  0.15860  1.0000 0.1113308859
H   H9        1.0  0.71470  0.31640  0.83440  1.0000 0.130903982
H   H10       1.0  0.28530  0.68360  0.16560  1.0000 0.130903982
H   H11       1.0  0.01180  0.34060  0.72730  1.0000 0.1113308859
H   H12       1.0  0.98820  0.65940  0.27270  1.0000 0.1113308859
H   H13       1.0  0.86160  0.22840  0.72860  1.0000 0.130903982
H   H14       1.0  0.13840  0.77160  0.27140  1.0000 0.130903982
H   H15       1.0  0.03150  0.42760  0.60950  1.0000 0.130903982
H   H16       1.0  0.96850  0.57240  0.39050  1.0000 0.130903982
H   H17       1.0  0.96970  0.31530  0.50400  1.0000 0.130903982
H   H18       1.0  0.03030  0.68470  0.49600  1.0000 0.130903982
H   H19       1.0  0.73230  0.11790  0.62470  1.0000 0.1113308859
H   H20       1.0  0.26770  0.88210  0.37530  1.0000 0.1113308859
H   H21       1.0  0.93150  0.53520  0.73840  1.0000 0.1196403095
H   H22       1.0  0.06850  0.46480  0.26160  1.0000 0.1196403095
H   H23       1.0  0.78900  0.49420  0.67920  1.0000 0.1196403095
H   H24       1.0  0.21100  0.50580  0.32080  1.0000 0.1196403095
H   H25       1.0  0.47330  0.56140  0.68760  1.0000 0.130903982
H   H26       1.0  0.52670  0.43860  0.31240  1.0000 0.130903982
H   H27       1.0  0.82540  0.64890  0.83920  1.0000 0.1196403095
H   H28       1.0  0.17460  0.35110  0.16080  1.0000 0.1196403095
H   H29       1.0  0.36400  0.69660  0.76560  1.0000 0.130903982
H   H30       1.0  0.63600  0.30340  0.23440  1.0000 0.130903982
H   H31       1.0  0.37310  0.10840  0.67440  1.0000 0.1196403095
H   H32       1.0  0.62690  0.89160  0.32560  1.0000 0.1196403095
H   H33       1.0  0.35560  0.27720  0.52600  1.0000 0.130903982
H   H34       1.0  0.64440  0.72280  0.47400  1.0000 0.130903982
H   H35       1.0  0.52690  0.41360  0.61270  1.0000 0.1196403095
H   H36       1.0  0.47310  0.58640  0.38730  1.0000 0.1196403095
H   H37       1.0  0.53170  0.25440  0.75840  1.0000 0.130903982
H   H38       1.0  0.46830  0.74560  0.24160  1.0000 0.130903982
H   H39       1.0  0.48770  0.37530  0.75160  1.0000 0.1113308859
H   H40       1.0  0.51230  0.62470  0.24840  1.0000 0.1113308859
H   H41       1.0  0.06350  0.94040  0.73050  1.0000 0.130903982
H   H42       1.0  0.93650  0.05960  0.26950  1.0000 0.130903982
H   H43       1.0  0.44890  0.92960  0.70230  1.0000 0.130903982
H   H44       1.0  0.55110  0.07040  0.29770  1.0000 0.130903982
H   H45       1.0  0.70510  0.51870  0.97980  1.0000 0.130903982
H   H46       1.0  0.29490  0.48130  0.02020  1.0000 0.130903982
H   H47       1.0  0.33900  0.98800  0.98100  1.0000 0.3671561437
H   H48       1.0  0.66100  0.01200  0.01900  1.0000 0.3671561437
C   C1        1.0  0.03000  0.27540  0.85714  1.0000 0.0910532159
C   C2        1.0  0.97000  0.72460  0.14286  1.0000 0.0910532159
C   C3        1.0  0.27810  0.40220  0.86460  1.0000 -0.0296715894
C   C4        1.0  0.72190  0.59780  0.13540  1.0000 -0.0296715894
C   C5        1.0  0.14550  0.45440  0.84550  1.0000 -0.1195795168
C   C6        1.0  0.85450  0.54560  0.15450  1.0000 -0.1195795168
C   C7        1.0  0.79990  0.38010  0.82002  1.0000 -0.206490804
C   C8        1.0  0.20010  0.61990  0.17998  1.0000 -0.206490804
C   C9        1.0  0.76120  0.37680  0.74577  1.0000 0.1369624394
C   C10       1.0  0.23880  0.62320  0.25423  1.0000 0.1369624394
C   C11       1.0  0.88670  0.30330  0.71280  1.0000 -0.1938939584
C   C12       1.0  0.11330  0.69670  0.28720  1.0000 -0.1999522415
C   C13       1.0  0.96330  0.35210  0.60000  1.0000 -0.1355501903
C   C14       1.0  0.03670  0.64790  0.40000  1.0000 -0.1355501903
C   C15       1.0  0.92960  0.28930  0.54220  1.0000 -0.0109619498
C   C16       1.0  0.07040  0.71070  0.45780  1.0000 -0.0109619498
C   C17       1.0  0.79910  0.18130  0.60780  1.0000 0.1019456978
C   C18       1.0  0.20090  0.81870  0.39220  1.0000 0.1019456978
C   C19       1.0  0.80440  0.50030  0.72580  1.0000 -0.1999522415
C   C20       1.0  0.19560  0.49970  0.27420  1.0000 -0.1999522415
C   C21       1.0  0.53080  0.59490  0.72750  1.0000 -0.1132531357
C   C22       1.0  0.46920  0.40510  0.27250  1.0000 -0.1132531357
C   C23       1.0  0.72350  0.64390  0.81130  1.0000 0.0910532159
C   C24       1.0  0.27650  0.35610  0.18870  1.0000 0.0910532159
C   C25       1.0  0.47100  0.66980  0.77070  1.0000 -0.0382243567
C   C26       1.0  0.52900  0.33020  0.22930  1.0000 -0.0382243567
C   C27       1.0  0.39010  0.16710  0.64800  1.0000 0.0910532159
C   C28       1.0  0.60990  0.83290  0.35200  1.0000 0.0910532159
C   C29       1.0  0.38170  0.26010  0.56710  1.0000 -0.0177753014
C   C30       1.0  0.61830  0.73990  0.43290  1.0000 -0.0177753014
C   C31       1.0  0.47500  0.33600  0.61470  1.0000 -0.1327498945
C   C32       1.0  0.52500  0.66400  0.38530  1.0000 -0.1327498945
C   C33       1.0  0.55580  0.31960  0.73371  1.0000 -0.1999522415
C   C34       1.0  0.44420  0.68040  0.26629  1.0000 -0.206490804
C   C35       1.0  0.56200  0.86860  0.59080  1.0000 0.5828817594
C   C36       1.0  0.43800  0.13140  0.40920  1.0000 0.5828817594
C   C37       1.0  0.66860  0.90720  0.65522  1.0000 -0.0109619498
C   C38       1.0  0.33140  0.09280  0.34478  1.0000 -0.0109619498
C   C39       1.0  0.85780  0.91670  0.66292  1.0000 -0.053768341
C   C40       1.0  0.14220  0.08330  0.33708  1.0000 -0.053768341
C   C41       1.0  0.93960  0.93950  0.72480  1.0000 -0.1195795168
C   C42       1.0  0.06040  0.06050  0.27520  1.0000 -0.1195795168
C   C43       1.0  0.84490  0.96100  0.77888  1.0000 -0.0768654314
C   C44       1.0  0.15510  0.03900  0.22112  1.0000 -0.0768654314
C   C45       1.0  0.65840  0.96350  0.77068  1.0000 -0.0296715894
C   C46       1.0  0.34160  0.03650  0.22932  1.0000 -0.0296715894
C   C47       1.0  0.57340  0.93280  0.70823  1.0000 -0.1680897293
C   C48       1.0  0.42660  0.06720  0.29177  1.0000 -0.1680897293
C   C49       1.0  0.55020  0.00810  0.82288  1.0000 0.5679156291
C   C50       1.0  0.44980  0.99190  0.17712  1.0000 0.5679156291
C   C51       1.0  0.95270  0.98440  0.84330  1.0000 0.5828817594
C   C52       1.0  0.04730  0.01560  0.15670  1.0000 0.5828817594
C   C53       1.0  0.97630  0.91430  0.60660  1.0000 0.5532894539
C   C54       1.0  0.02370  0.08570  0.39340  1.0000 0.5532894539
C   C55       1.0  0.68850  0.30510  0.99420  1.0000 0.6034482526
C   C56       1.0  0.31150  0.69490  0.00580  1.0000 0.6034482526
C   C57       1.0  0.85470  0.40320  0.99622  1.0000 -0.0296715894
C   C58       1.0  0.14530  0.59680  0.00378  1.0000 -0.0296715894
C   C59       1.0  0.03370  0.39080  0.00888  1.0000 -0.053768341
C   C60       1.0  0.96630  0.60920  0.99112  1.0000 -0.053768341
C   C61       1.0  0.82430  0.51090  0.98790  1.0000 -0.1327498945
C   C62       1.0  0.17570  0.48910  0.01210  1.0000 -0.1355501903
C   C63       1.0  0.08260  0.27630  0.01410  1.0000 0.5679156291
C   C64       1.0  0.91740  0.72370  0.98590  1.0000 0.5679156291
N   N1        1.0  0.20830  0.28830  0.87168  1.0000 -0.3177754772
N   N2        1.0  0.79170  0.71170  0.12832  1.0000 -0.3177754772
N   N3        1.0  0.98570  0.37260  0.84129  1.0000 0.0367291751
N   N4        1.0  0.01430  0.62740  0.15871  1.0000 0.0367291751
N   N5        1.0  0.69220  0.57780  0.75353  1.0000 0.0367291751
N   N6        1.0  0.30780  0.42220  0.24647  1.0000 0.0367291751
N   N7        1.0  0.59520  0.69970  0.82353  1.0000 -0.3013376189
N   N8        1.0  0.40480  0.30030  0.17647  1.0000 -0.3013376189
N   N9        1.0  0.32960  0.15310  0.58721  1.0000 -0.2906605793
N   N10       1.0  0.67040  0.84690  0.41279  1.0000 -0.2906605793
N   N11       1.0  0.48010  0.27750  0.66758  1.0000 0.0341791916
N   N12       1.0  0.51990  0.72250  0.33242  1.0000 0.0341791916
N   N13       1.0  0.82880  0.18230  0.54679  1.0000 -0.2733675433
N   N14       1.0  0.17120  0.81770  0.45321  1.0000 -0.2733675433
N   N15       1.0  0.87640  0.28260  0.64305  1.0000 0.0367291751
N   N16       1.0  0.12360  0.71740  0.35695  1.0000 0.0367291751
O   O1        1.0  0.91780  0.92750  0.55260  1.0000 -0.5523485375
O   O2        1.0  0.08220  0.07250  0.44740  1.0000 -0.5523485375
O   O3        1.0  0.13990  0.90440  0.61847  1.0000 -0.5523485375
O   O4        1.0  0.86010  0.09560  0.38153  1.0000 -0.5523485375
O   O5        1.0  0.50430  0.76300  0.57756  1.0000 -0.5402581287
O   O6        1.0  0.49570  0.23700  0.42244  1.0000 -0.5402581287
O   O7        1.0  0.53180  0.94690  0.55781  1.0000 -0.597718854
O   O8        1.0  0.46820  0.05310  0.44219  1.0000 -0.597718854
O   O9        1.0  0.11980  0.02060  0.84292  1.0000 -0.5284527135
O   O10       1.0  0.88020  0.97940  0.15708  1.0000 -0.5284527135
O   O11       1.0  0.86850  0.96540  0.89307  1.0000 -0.5874425513
O   O12       1.0  0.13150  0.03460  0.10693  1.0000 -0.5874425513
O   O13       1.0  0.53200  0.11050  0.82145  1.0000 -0.5402581287
O   O14       1.0  0.46800  0.88950  0.17855  1.0000 -0.5402581287
O   O15       1.0  0.47560  0.94720  0.86294  1.0000 -0.5554321003
O   O16       1.0  0.52440  0.05280  0.13706  1.0000 -0.5523485375
O   O17       1.0  0.59380  0.28180  0.94272  1.0000 -0.5402581287
O   O18       1.0  0.40620  0.71820  0.05728  1.0000 -0.5402581287
O   O19       1.0  0.65480  0.26120  0.04583  1.0000 -0.569307108
O   O20       1.0  0.34520  0.73880  0.95417  1.0000 -0.569307108
O   O21       1.0  0.23980  0.28270  0.03843  1.0000 -0.5874425513
O   O22       1.0  0.76020  0.71730  0.96157  1.0000 -0.5874425513
O   O23       1.0  0.97060  0.18520  0.99368  1.0000 -0.5284527135
O   O24       1.0  0.02940  0.81480  0.00632  1.0000 -0.5284527135
O   O25       1.0  0.30450  0.05260  0.98845  1.0000 -0.8428767812
O   O26       1.0  0.69550  0.94740  0.01155  1.0000 -0.8428767812
