# DDEC6 charges by PACMAN v1.1 (https://github.com/mtap-research/PACMAN-charge/)
data_2009[Ga][bpq]3[ASR]1
_chemical_formula_sum              "Ga4 H20 C32 O20"
_cell_length_a       17.437
_cell_length_b       6.7475
_cell_length_c       12.1541
_cell_angle_alpha    90
_cell_angle_beta     90
_cell_angle_gamma    90

_symmetry_space_group_name_H-M    "P 1"
_symmetry_Int_Tables_number       1

loop_
  _symmetry_equiv_pos_as_xyz
  'x, y, z'

loop_
  _atom_site_type_symbol
  _atom_site_label
  _atom_site_symmetry_multiplicity
  _atom_site_fract_x
  _atom_site_fract_y
  _atom_site_fract_z
  _atom_site_occupancy
  _atom_site_charge
Ga  Ga1       1.0  0.00000  0.00000  0.00000  1.0000 1.4284515463
Ga  Ga2       1.0  0.50000  0.00000  0.50000  1.0000 1.4284515463
Ga  Ga3       1.0  0.00000  0.50000  0.00000  1.0000 1.4284515463
Ga  Ga4       1.0  0.50000  0.50000  0.50000  1.0000 1.4284515463
H   H1        1.0  0.81190  0.56610  0.79890  1.0000 0.1136370905
H   H2        1.0  0.68810  0.43390  0.29890  1.0000 0.1136370905
H   H3        1.0  0.18810  0.06610  0.20110  1.0000 0.1136370905
H   H4        1.0  0.31190  0.93390  0.70110  1.0000 0.1136370905
H   H5        1.0  0.18810  0.43390  0.20110  1.0000 0.1136370905
H   H6        1.0  0.31190  0.56610  0.70110  1.0000 0.1136370905
H   H7        1.0  0.81190  0.93390  0.79890  1.0000 0.1136370905
H   H8        1.0  0.68810  0.06610  0.29890  1.0000 0.1136370905
H   H9        1.0  0.70210  0.56470  0.67040  1.0000 0.1136370905
H   H10       1.0  0.79790  0.43530  0.17040  1.0000 0.1136370905
H   H11       1.0  0.29790  0.06470  0.32960  1.0000 0.1136370905
H   H12       1.0  0.20210  0.93530  0.82960  1.0000 0.1136370905
H   H13       1.0  0.29790  0.43530  0.32960  1.0000 0.1136370905
H   H14       1.0  0.20210  0.56470  0.82960  1.0000 0.1136370905
H   H15       1.0  0.70210  0.93530  0.67040  1.0000 0.1136370905
H   H16       1.0  0.79790  0.06470  0.17040  1.0000 0.1136370905
H   H17       1.0  0.50640  0.75000  0.65568  1.0000 0.4206567191
H   H18       1.0  0.99360  0.25000  0.15568  1.0000 0.4206567191
H   H19       1.0  0.49360  0.25000  0.34432  1.0000 0.4206567191
H   H20       1.0  0.00640  0.75000  0.84432  1.0000 0.4206567191
C   C1        1.0  0.79127  0.42880  0.76510  1.0000 -0.0930235704
C   C2        1.0  0.70873  0.57120  0.26510  1.0000 -0.0930235704
C   C3        1.0  0.20873  0.92880  0.23490  1.0000 -0.0930235704
C   C4        1.0  0.29127  0.07120  0.73490  1.0000 -0.0930235704
C   C5        1.0  0.20873  0.57120  0.23490  1.0000 -0.0930235704
C   C6        1.0  0.29127  0.42880  0.73490  1.0000 -0.0930235704
C   C7        1.0  0.79127  0.07120  0.76510  1.0000 -0.0930235704
C   C8        1.0  0.70873  0.92880  0.26510  1.0000 -0.0930235704
C   C9        1.0  0.72605  0.42740  0.69950  1.0000 -0.0930235704
C   C10       1.0  0.77395  0.57260  0.19950  1.0000 -0.0930235704
C   C11       1.0  0.27395  0.92740  0.30050  1.0000 -0.0930235704
C   C12       1.0  0.22605  0.07260  0.80050  1.0000 -0.0930235704
C   C13       1.0  0.27395  0.57260  0.30050  1.0000 -0.0930235704
C   C14       1.0  0.22605  0.42740  0.80050  1.0000 -0.0930235704
C   C15       1.0  0.72605  0.07260  0.69950  1.0000 -0.0930235704
C   C16       1.0  0.77395  0.92740  0.19950  1.0000 -0.0930235704
C   C17       1.0  0.82814  0.25000  0.79140  1.0000 -0.0274821419
C   C18       1.0  0.67186  0.75000  0.29140  1.0000 -0.0274821419
C   C19       1.0  0.17186  0.75000  0.20860  1.0000 -0.0274821419
C   C20       1.0  0.32814  0.25000  0.70860  1.0000 -0.0274821419
C   C21       1.0  0.89907  0.25000  0.86000  1.0000 0.6105083309
C   C22       1.0  0.60093  0.75000  0.36000  1.0000 0.6105083309
C   C23       1.0  0.10093  0.75000  0.14000  1.0000 0.6105083309
C   C24       1.0  0.39907  0.25000  0.64000  1.0000 0.6105083309
C   C25       1.0  0.69218  0.25000  0.67120  1.0000 -0.0274821419
C   C26       1.0  0.80782  0.75000  0.17120  1.0000 -0.0274821419
C   C27       1.0  0.30782  0.75000  0.32880  1.0000 -0.0274821419
C   C28       1.0  0.19218  0.25000  0.82880  1.0000 -0.0274821419
C   C29       1.0  0.61762  0.25000  0.61080  1.0000 0.6105083309
C   C30       1.0  0.88238  0.75000  0.11080  1.0000 0.6105083309
C   C31       1.0  0.38238  0.75000  0.38920  1.0000 0.6105083309
C   C32       1.0  0.11762  0.25000  0.88920  1.0000 0.6105083309
O   O1        1.0  0.92632  0.08300  0.88584  1.0000 -0.553432516
O   O2        1.0  0.57368  0.91700  0.38584  1.0000 -0.553432516
O   O3        1.0  0.07368  0.58300  0.11416  1.0000 -0.553432516
O   O4        1.0  0.42632  0.41700  0.61416  1.0000 -0.553432516
O   O5        1.0  0.07368  0.91700  0.11416  1.0000 -0.553432516
O   O6        1.0  0.42632  0.08300  0.61416  1.0000 -0.553432516
O   O7        1.0  0.92632  0.41700  0.88584  1.0000 -0.553432516
O   O8        1.0  0.57368  0.58300  0.38584  1.0000 -0.553432516
O   O9        1.0  0.58949  0.08260  0.58860  1.0000 -0.553432516
O   O10       1.0  0.91051  0.91740  0.08860  1.0000 -0.553432516
O   O11       1.0  0.41051  0.58260  0.41140  1.0000 -0.553432516
O   O12       1.0  0.08949  0.41740  0.91140  1.0000 -0.553432516
O   O13       1.0  0.41051  0.91740  0.41140  1.0000 -0.553432516
O   O14       1.0  0.08949  0.08260  0.91140  1.0000 -0.553432516
O   O15       1.0  0.58949  0.41740  0.58860  1.0000 -0.553432516
O   O16       1.0  0.91051  0.58260  0.08860  1.0000 -0.553432516
O   O17       1.0  0.99360  0.25000  0.07340  1.0000 -0.8838846601
O   O18       1.0  0.50640  0.75000  0.57340  1.0000 -0.8838846601
O   O19       1.0  0.00640  0.75000  0.92660  1.0000 -0.8838846601
O   O20       1.0  0.49360  0.25000  0.42660  1.0000 -0.8838846601
