# DDEC6 charges by PACMAN v1.1 (https://github.com/mtap-research/PACMAN-charge/)
data_2009[Zn][nan]3[ASR]9
_chemical_formula_sum              "Zn10 P8 H18 C16 O48"
_cell_length_a       10.18
_cell_length_b       11.06
_cell_length_c       14.0137
_cell_angle_alpha    68.297
_cell_angle_beta     78.859
_cell_angle_gamma    72.3

_symmetry_space_group_name_H-M    "P 1"
_symmetry_Int_Tables_number       1

loop_
  _symmetry_equiv_pos_as_xyz
  'x, y, z'

loop_
  _atom_site_type_symbol
  _atom_site_label
  _atom_site_symmetry_multiplicity
  _atom_site_fract_x
  _atom_site_fract_y
  _atom_site_fract_z
  _atom_site_occupancy
  _atom_site_charge
Zn  Zn1       1.0  0.91685  0.14561  0.08114  1.0000 1.05476911
Zn  Zn2       1.0  0.91678  0.64694  0.08062  1.0000 1.059301328
Zn  Zn3       1.0  0.38788  0.98405  0.18512  1.0000 1.0741195194
Zn  Zn4       1.0  0.61018  0.52183  0.81958  1.0000 1.059301328
Zn  Zn5       1.0  0.02675  0.22129  0.49055  1.0000 1.0865929835
Zn  Zn6       1.0  0.08315  0.85439  0.91886  1.0000 1.05476911
Zn  Zn7       1.0  0.08322  0.35306  0.91938  1.0000 1.059301328
Zn  Zn8       1.0  0.61212  0.01595  0.81488  1.0000 1.0789505951
Zn  Zn9       1.0  0.38982  0.47817  0.18042  1.0000 1.059301328
Zn  Zn10      1.0  0.97325  0.77871  0.51335  1.0000 1.0789505951
P   P1        1.0  0.77292  0.46800  0.01691  1.0000 1.3193693074
P   P2        1.0  0.22556  0.03107  0.98606  1.0000 1.3193693074
P   P3        1.0  0.16040  0.98852  0.38713  1.0000 1.3193693074
P   P4        1.0  0.15608  0.47484  0.38134  1.0000 1.3028662317
P   P5        1.0  0.22708  0.53200  0.98309  1.0000 1.3193693074
P   P6        1.0  0.77444  0.96893  0.01394  1.0000 1.3193693074
P   P7        1.0  0.83960  0.01148  0.61287  1.0000 1.3193693074
P   P8        1.0  0.84392  0.52516  0.61866  1.0000 1.3028662317
H   H1        1.0  0.62097  0.59512  0.17007  1.0000 0.377130013
H   H2        1.0  0.38250  0.90196  0.83303  1.0000 0.377130013
H   H3        1.0  0.00351  0.24596  0.22524  1.0000 0.3698918931
H   H4        1.0  0.26224  0.61007  0.39398  1.0000 0.4312988631
H   H5        1.0  0.99985  0.74205  0.23099  1.0000 0.3698918931
H   H6        1.0  0.77083  0.39093  0.20409  1.0000 0.1395062618
H   H7        1.0  0.23382  0.10348  0.79890  1.0000 0.1395062618
H   H8        1.0  0.91715  0.09352  0.36327  1.0000 0.1322903149
H   H9        1.0  0.91346  0.58402  0.36539  1.0000 0.1395062618
H   H10       1.0  0.37903  0.40488  0.82993  1.0000 0.377130013
H   H11       1.0  0.61750  0.09804  0.16697  1.0000 0.377130013
H   H12       1.0  0.99649  0.75404  0.77476  1.0000 0.3698918931
H   H13       1.0  0.73776  0.38993  0.60602  1.0000 0.4312988631
H   H14       1.0  0.00015  0.25795  0.76901  1.0000 0.3698918931
H   H15       1.0  0.22917  0.60907  0.79591  1.0000 0.1395062618
H   H16       1.0  0.76618  0.89652  0.20110  1.0000 0.1395062618
H   H17       1.0  0.08285  0.90648  0.63673  1.0000 0.1322903149
H   H18       1.0  0.08654  0.41598  0.63461  1.0000 0.1395062618
C   C1        1.0  0.69135  0.41475  0.15132  1.0000 -0.2264185771
C   C2        1.0  0.63882  0.29092  0.17608  1.0000 0.6380670183
C   C3        1.0  0.31121  0.08117  0.85299  1.0000 -0.2264185771
C   C4        1.0  0.36474  0.20506  0.82572  1.0000 0.6380670183
C   C5        1.0  0.00280  0.05637  0.31035  1.0000 -0.200626839
C   C6        1.0  0.97201  0.94613  0.28529  1.0000 0.6193973236
C   C7        1.0  0.99921  0.55039  0.31109  1.0000 -0.214022655
C   C8        1.0  0.96487  0.44395  0.28266  1.0000 0.6193973236
C   C9        1.0  0.30865  0.58525  0.84868  1.0000 -0.2264185771
C   C10       1.0  0.36118  0.70908  0.82392  1.0000 0.6380670183
C   C11       1.0  0.68879  0.91883  0.14701  1.0000 -0.2264185771
C   C12       1.0  0.63526  0.79494  0.17428  1.0000 0.6380670183
C   C13       1.0  0.99720  0.94363  0.68965  1.0000 -0.200626839
C   C14       1.0  0.02799  0.05387  0.71471  1.0000 0.6193973236
C   C15       1.0  0.00079  0.44961  0.68891  1.0000 -0.214022655
C   C16       1.0  0.03513  0.55605  0.71734  1.0000 0.6193973236
O   O1        1.0  0.66290  0.48001  0.95212  1.0000 -0.7407360363
O   O2        1.0  0.81376  0.59698  0.99635  1.0000 -0.7113125709
O   O3        1.0  0.90167  0.34875  0.01423  1.0000 -0.7505429077
O   O4        1.0  0.57806  0.52469  0.16588  1.0000 -0.4501204557
O   O5        1.0  0.51205  0.29500  0.20332  1.0000 -0.4862710126
O   O6        1.0  0.72471  0.18005  0.17083  1.0000 -0.5592819638
O   O7        1.0  0.09756  0.15176  0.98658  1.0000 -0.7505429077
O   O8        1.0  0.18287  0.90352  0.00437  1.0000 -0.7113125709
O   O9        1.0  0.33205  0.01640  0.05448  1.0000 -0.7342794128
O   O10       1.0  0.42439  0.96902  0.84239  1.0000 -0.4501204557
O   O11       1.0  0.49161  0.20047  0.79579  1.0000 -0.5008379705
O   O12       1.0  0.27977  0.31591  0.83110  1.0000 -0.5527470596
O   O13       1.0  0.28680  0.95610  0.31414  1.0000 -0.7407360363
O   O14       1.0  0.16394  0.10282  0.42111  1.0000 -0.7225127108
O   O15       1.0  0.13593  0.86334  0.47593  1.0000 -0.7407360363
O   O16       1.0  0.02529  0.15764  0.21555  1.0000 -0.4349368401
O   O17       1.0  0.97184  0.95794  0.19068  1.0000 -0.5376333334
O   O18       1.0  0.94497  0.84342  0.35752  1.0000 -0.5376333334
O   O19       1.0  0.12904  0.35924  0.47573  1.0000 -0.7113125709
O   O20       1.0  0.17154  0.59068  0.41878  1.0000 -0.6203385479
O   O21       1.0  0.28212  0.44430  0.30905  1.0000 -0.7505429077
O   O22       1.0  0.01933  0.65670  0.21715  1.0000 -0.4399004616
O   O23       1.0  0.93316  0.34191  0.35282  1.0000 -0.5376333334
O   O24       1.0  0.96799  0.45917  0.18683  1.0000 -0.5376333334
O   O25       1.0  0.33710  0.51999  0.04788  1.0000 -0.7407360363
O   O26       1.0  0.18624  0.40302  0.00365  1.0000 -0.7113125709
O   O27       1.0  0.09833  0.65125  0.98577  1.0000 -0.7505429077
O   O28       1.0  0.42194  0.47531  0.83412  1.0000 -0.4501204557
O   O29       1.0  0.48795  0.70500  0.79668  1.0000 -0.4862710126
O   O30       1.0  0.27529  0.81995  0.82917  1.0000 -0.5592819638
O   O31       1.0  0.90244  0.84824  0.01342  1.0000 -0.7505429077
O   O32       1.0  0.81713  0.09648  0.99563  1.0000 -0.7113125709
O   O33       1.0  0.66795  0.98360  0.94552  1.0000 -0.7342794128
O   O34       1.0  0.57561  0.03098  0.15761  1.0000 -0.4501204557
O   O35       1.0  0.50839  0.79953  0.20421  1.0000 -0.5008379705
O   O36       1.0  0.72023  0.68409  0.16890  1.0000 -0.5527470596
O   O37       1.0  0.71320  0.04390  0.68586  1.0000 -0.7407360363
O   O38       1.0  0.83606  0.89718  0.57889  1.0000 -0.7225127108
O   O39       1.0  0.86407  0.13666  0.52407  1.0000 -0.7407360363
O   O40       1.0  0.97471  0.84236  0.78445  1.0000 -0.4399004616
O   O41       1.0  0.02816  0.04206  0.80932  1.0000 -0.5376333334
O   O42       1.0  0.05503  0.15658  0.64248  1.0000 -0.5376333334
O   O43       1.0  0.87096  0.64076  0.52427  1.0000 -0.7113125709
O   O44       1.0  0.82846  0.40932  0.58122  1.0000 -0.6203385479
O   O45       1.0  0.71788  0.55570  0.69095  1.0000 -0.7505429077
O   O46       1.0  0.98067  0.34330  0.78285  1.0000 -0.4501204557
O   O47       1.0  0.06684  0.65809  0.64718  1.0000 -0.5376333334
O   O48       1.0  0.03201  0.54083  0.81317  1.0000 -0.5376333334
