# DDEC6 charges by PACMAN v1.1 (https://github.com/mtap-research/PACMAN-charge/)
data_2009[Zn][nan]3[ASR]6
_chemical_formula_sum              "Zn40 H272 C416 N160 O64"
_cell_length_a       28.4727
_cell_length_b       28.4727
_cell_length_c       28.4727
_cell_angle_alpha    116.305
_cell_angle_beta     116.305
_cell_angle_gamma    96.5294

_symmetry_space_group_name_H-M    "P 1"
_symmetry_Int_Tables_number       1

loop_
  _symmetry_equiv_pos_as_xyz
  'x, y, z'

loop_
  _atom_site_type_symbol
  _atom_site_label
  _atom_site_symmetry_multiplicity
  _atom_site_fract_x
  _atom_site_fract_y
  _atom_site_fract_z
  _atom_site_occupancy
  _atom_site_charge
Zn  Zn1       1.0  0.69162  0.83612  0.52728  1.0000 0.439633794
Zn  Zn2       1.0  0.44116  0.08566  0.02728  1.0000 0.439633794
Zn  Zn3       1.0  0.65126  0.87348  0.63802  1.0000 0.6690081878
Zn  Zn4       1.0  0.51454  0.23676  0.13802  1.0000 0.6690081878
Zn  Zn5       1.0  0.65329  0.91486  0.45497  1.0000 0.6763334123
Zn  Zn6       1.0  0.29011  0.05168  0.95497  1.0000 0.6763334123
Zn  Zn7       1.0  0.84273  0.87728  0.61121  1.0000 0.6763334123
Zn  Zn8       1.0  0.48393  0.01848  0.11121  1.0000 0.6763334123
Zn  Zn9       1.0  0.61796  0.68344  0.40960  1.0000 0.6690081878
Zn  Zn10      1.0  0.47616  0.04164  0.90960  1.0000 0.6690081878
Zn  Zn11      1.0  0.30884  0.16434  0.47272  1.0000 0.439633794
Zn  Zn12      1.0  0.05838  0.41388  0.97272  1.0000 0.439633794
Zn  Zn13      1.0  0.23546  0.01324  0.36198  1.0000 0.6690081878
Zn  Zn14      1.0  0.09874  0.37652  0.86198  1.0000 0.6690081878
Zn  Zn15      1.0  0.45989  0.19832  0.54503  1.0000 0.6763334123
Zn  Zn16      1.0  0.09671  0.33514  0.04503  1.0000 0.6763334123
Zn  Zn17      1.0  0.26607  0.23152  0.38879  1.0000 0.6763334123
Zn  Zn18      1.0  0.90727  0.37272  0.88879  1.0000 0.6763334123
Zn  Zn19      1.0  0.27384  0.20836  0.59040  1.0000 0.6690081878
Zn  Zn20      1.0  0.13204  0.56656  0.09040  1.0000 0.6690081878
Zn  Zn21      1.0  0.91434  0.94162  0.35550  1.0000 0.439633794
Zn  Zn22      1.0  0.16388  0.69116  0.85550  1.0000 0.439633794
Zn  Zn23      1.0  0.76324  0.90126  0.27778  1.0000 0.6690081878
Zn  Zn24      1.0  0.12652  0.76454  0.77778  1.0000 0.6690081878
Zn  Zn25      1.0  0.94832  0.90329  0.23843  1.0000 0.6763334123
Zn  Zn26      1.0  0.08514  0.54011  0.73843  1.0000 0.6763334123
Zn  Zn27      1.0  0.98152  0.09273  0.46545  1.0000 0.6763334123
Zn  Zn28      1.0  0.12272  0.73393  0.96545  1.0000 0.6763334123
Zn  Zn29      1.0  0.95836  0.86796  0.43452  1.0000 0.6690081878
Zn  Zn30      1.0  0.31656  0.72616  0.93452  1.0000 0.6690081878
Zn  Zn31      1.0  0.58612  0.55884  0.64450  1.0000 0.439633794
Zn  Zn32      1.0  0.83566  0.30838  0.14450  1.0000 0.439633794
Zn  Zn33      1.0  0.62348  0.48546  0.72222  1.0000 0.6690081878
Zn  Zn34      1.0  0.98676  0.34874  0.22222  1.0000 0.6690081878
Zn  Zn35      1.0  0.66486  0.70989  0.76157  1.0000 0.6763334123
Zn  Zn36      1.0  0.80168  0.34671  0.26157  1.0000 0.6763334123
Zn  Zn37      1.0  0.62728  0.51607  0.53455  1.0000 0.6763334123
Zn  Zn38      1.0  0.76848  0.15727  0.03455  1.0000 0.6763334123
Zn  Zn39      1.0  0.43344  0.52384  0.56548  1.0000 0.6690081878
Zn  Zn40      1.0  0.79164  0.38204  0.06548  1.0000 0.6690081878
H   H1        1.0  0.49400  0.85820  0.66400  1.0000 0.1313719056
H   H2        1.0  0.55580  0.42000  0.16400  1.0000 0.1313719056
H   H3        1.0  0.64640  0.98300  0.80060  1.0000 0.1205923585
H   H4        1.0  0.56760  0.40420  0.30060  1.0000 0.1205923585
H   H5        1.0  0.61210  0.02190  0.86220  1.0000 0.1313719056
H   H6        1.0  0.59030  0.50010  0.36220  1.0000 0.1313719056
H   H7        1.0  0.46460  0.96810  0.23690  1.0000 0.1313719056
H   H8        1.0  0.01880  0.02230  0.73690  1.0000 0.1313719056
H   H9        1.0  0.61300  0.98680  0.25300  1.0000 0.1205923585
H   H10       1.0  0.01620  0.89000  0.75300  1.0000 0.1205923585
H   H11       1.0  0.64260  0.96340  0.32620  1.0000 0.1205923585
H   H12       1.0  0.11280  0.93360  0.82620  1.0000 0.1205923585
H   H13       1.0  0.88700  0.76870  0.57190  1.0000 0.1462814284
H   H14       1.0  0.55320  0.93490  0.07190  1.0000 0.1462814284
H   H15       1.0  0.88510  0.67930  0.51680  1.0000 0.1106088876
H   H16       1.0  0.58750  0.88170  0.01680  1.0000 0.1106088876
H   H17       1.0  0.79970  0.60440  0.43410  1.0000 0.1106088876
H   H18       1.0  0.57970  0.88440  0.93410  1.0000 0.1106088876
H   H19       1.0  0.71620  0.61900  0.40640  1.0000 0.137831345
H   H20       1.0  0.53740  0.94020  0.90640  1.0000 0.137831345
H   H21       1.0  0.59420  0.00440  0.50720  1.0000 0.1313719056
H   H22       1.0  0.25280  0.16300  0.00720  1.0000 0.1313719056
H   H23       1.0  0.55820  0.05250  0.56350  1.0000 0.1038638936
H   H24       1.0  0.26100  0.25530  0.06350  1.0000 0.1038638936
H   H25       1.0  0.55820  0.03680  0.63640  1.0000 0.1106088876
H   H26       1.0  0.34960  0.32820  0.13640  1.0000 0.1106088876
H   H27       1.0  0.59440  0.97310  0.65310  1.0000 0.1313719056
H   H28       1.0  0.43000  0.30870  0.15310  1.0000 0.1313719056
H   H29       1.0  0.75650  0.98120  0.45030  1.0000 0.1313719056
H   H30       1.0  0.21910  0.94380  0.95030  1.0000 0.1313719056
H   H31       1.0  0.84510  0.01660  0.46930  1.0000 0.1038638936
H   H32       1.0  0.20270  0.87420  0.96930  1.0000 0.1038638936
H   H33       1.0  0.92080  0.00160  0.53040  1.0000 0.1106088876
H   H34       1.0  0.27880  0.85960  0.03040  1.0000 0.1106088876
H   H35       1.0  0.90800  0.95140  0.57240  1.0000 0.1313719056
H   H36       1.0  0.37100  0.91440  0.07240  1.0000 0.1313719056
H   H37       1.0  0.57910  0.76260  0.62770  1.0000 0.1313719056
H   H38       1.0  0.61510  0.29860  0.12770  1.0000 0.1313719056
H   H39       1.0  0.52890  0.66990  0.58860  1.0000 0.1106088876
H   H40       1.0  0.66870  0.30970  0.08860  1.0000 0.1106088876
H   H41       1.0  0.51690  0.59500  0.49930  1.0000 0.1038638936
H   H42       1.0  0.65430  0.23240  0.99930  1.0000 0.1038638936
H   H43       1.0  0.55500  0.61290  0.44890  1.0000 0.1313719056
H   H44       1.0  0.58600  0.14390  0.94890  1.0000 0.1313719056
H   H45       1.0  0.56230  0.82460  0.28990  1.0000 0.137831345
H   H46       1.0  0.21530  0.97760  0.78990  1.0000 0.137831345
H   H47       1.0  0.51120  0.74480  0.19040  1.0000 0.1106088876
H   H48       1.0  0.19560  0.92920  0.69040  1.0000 0.1106088876
H   H49       1.0  0.50250  0.65790  0.17540  1.0000 0.1106088876
H   H50       1.0  0.26750  0.92290  0.67540  1.0000 0.1106088876
H   H51       1.0  0.54490  0.65080  0.25990  1.0000 0.137831345
H   H52       1.0  0.35910  0.96500  0.75990  1.0000 0.137831345
H   H53       1.0  0.76350  0.94050  0.79260  1.0000 0.137831345
H   H54       1.0  0.60210  0.27910  0.29260  1.0000 0.137831345
H   H55       1.0  0.85240  0.97580  0.87920  1.0000 0.1205923585
H   H56       1.0  0.65340  0.27680  0.37920  1.0000 0.1205923585
H   H57       1.0  0.92750  0.97440  0.86930  1.0000 0.1205923585
H   H58       1.0  0.64490  0.19180  0.36930  1.0000 0.1205923585
H   H59       1.0  0.91360  0.93760  0.77280  1.0000 0.137831345
H   H60       1.0  0.58520  0.10920  0.27280  1.0000 0.137831345
H   H61       1.0  0.43310  0.88910  0.73940  1.0000 0.3192495553
H   H62       1.0  0.60030  0.55630  0.23940  1.0000 0.3192495553
H   H63       1.0  0.42850  0.85160  0.67950  1.0000 0.2894783223
H   H64       1.0  0.57790  0.50100  0.17950  1.0000 0.2894783223
H   H65       1.0  0.49990  0.93850  0.34540  1.0000 0.3039178251
H   H66       1.0  0.15690  0.09550  0.84540  1.0000 0.3039178251
H   H67       1.0  0.45470  0.94600  0.29970  1.0000 0.2894783223
H   H68       1.0  0.10370  0.09500  0.79970  1.0000 0.2894783223
H   H69       1.0  0.19420  0.83000  0.33600  1.0000 0.1313719056
H   H70       1.0  0.25600  0.39180  0.83600  1.0000 0.1313719056
H   H71       1.0  0.18240  0.84580  0.19940  1.0000 0.1205923585
H   H72       1.0  0.10360  0.26700  0.69940  1.0000 0.1205923585
H   H73       1.0  0.15970  0.74990  0.13780  1.0000 0.1313719056
H   H74       1.0  0.13790  0.22810  0.63780  1.0000 0.1313719056
H   H75       1.0  0.73120  0.22770  0.76310  1.0000 0.1313719056
H   H76       1.0  0.28540  0.28190  0.26310  1.0000 0.1313719056
H   H77       1.0  0.73380  0.36000  0.74700  1.0000 0.1205923585
H   H78       1.0  0.13700  0.26320  0.24700  1.0000 0.1205923585
H   H79       1.0  0.63720  0.31640  0.67380  1.0000 0.1205923585
H   H80       1.0  0.10740  0.28660  0.17380  1.0000 0.1205923585
H   H81       1.0  0.19680  0.31510  0.42810  1.0000 0.1462814284
H   H82       1.0  0.86300  0.48130  0.92810  1.0000 0.1462814284
H   H83       1.0  0.16250  0.36830  0.48320  1.0000 0.1106088876
H   H84       1.0  0.86490  0.57070  0.98320  1.0000 0.1106088876
H   H85       1.0  0.17030  0.36560  0.56590  1.0000 0.1106088876
H   H86       1.0  0.95030  0.64560  0.06590  1.0000 0.1106088876
H   H87       1.0  0.21260  0.30980  0.59360  1.0000 0.137831345
H   H88       1.0  0.03380  0.63100  0.09360  1.0000 0.137831345
H   H89       1.0  0.49720  0.08700  0.49280  1.0000 0.1313719056
H   H90       1.0  0.15580  0.24560  0.99280  1.0000 0.1313719056
H   H91       1.0  0.48900  0.99470  0.43650  1.0000 0.1038638936
H   H92       1.0  0.19180  0.19750  0.93650  1.0000 0.1038638936
H   H93       1.0  0.40040  0.92180  0.36360  1.0000 0.1106088876
H   H94       1.0  0.19180  0.21320  0.86360  1.0000 0.1106088876
H   H95       1.0  0.32000  0.94130  0.34690  1.0000 0.1313719056
H   H96       1.0  0.15560  0.27690  0.84690  1.0000 0.1313719056
H   H97       1.0  0.53090  0.30620  0.54970  1.0000 0.1313719056
H   H98       1.0  0.99350  0.26880  0.04970  1.0000 0.1313719056
H   H99       1.0  0.54730  0.37580  0.53070  1.0000 0.1038638936
H   H100      1.0  0.90490  0.23340  0.03070  1.0000 0.1038638936
H   H101      1.0  0.47120  0.39040  0.46960  1.0000 0.1106088876
H   H102      1.0  0.82920  0.24840  0.96960  1.0000 0.1106088876
H   H103      1.0  0.37900  0.33560  0.42760  1.0000 0.1313719056
H   H104      1.0  0.84200  0.29860  0.92760  1.0000 0.1313719056
H   H105      1.0  0.13490  0.95140  0.37230  1.0000 0.1313719056
H   H106      1.0  0.17090  0.48740  0.87230  1.0000 0.1313719056
H   H107      1.0  0.08130  0.94030  0.41140  1.0000 0.1106088876
H   H108      1.0  0.22110  0.58010  0.91140  1.0000 0.1106088876
H   H109      1.0  0.09570  0.01760  0.50070  1.0000 0.1038638936
H   H110      1.0  0.23310  0.65500  0.00070  1.0000 0.1038638936
H   H111      1.0  0.16400  0.10610  0.55110  1.0000 0.1313719056
H   H112      1.0  0.19500  0.63710  0.05110  1.0000 0.1313719056
H   H113      1.0  0.53470  0.27240  0.71010  1.0000 0.137831345
H   H114      1.0  0.18770  0.42540  0.21010  1.0000 0.137831345
H   H115      1.0  0.55440  0.32080  0.80960  1.0000 0.1106088876
H   H116      1.0  0.23880  0.50520  0.30960  1.0000 0.1106088876
H   H117      1.0  0.48250  0.32710  0.82460  1.0000 0.1106088876
H   H118      1.0  0.24750  0.59210  0.32460  1.0000 0.1106088876
H   H119      1.0  0.39090  0.28500  0.74010  1.0000 0.137831345
H   H120      1.0  0.20510  0.59920  0.24010  1.0000 0.137831345
H   H121      1.0  0.14790  0.97090  0.20740  1.0000 0.137831345
H   H122      1.0  0.98650  0.30950  0.70740  1.0000 0.137831345
H   H123      1.0  0.09660  0.97320  0.12080  1.0000 0.1205923585
H   H124      1.0  0.89760  0.27420  0.62080  1.0000 0.1205923585
H   H125      1.0  0.10510  0.05820  0.13070  1.0000 0.1205923585
H   H126      1.0  0.82250  0.27560  0.63070  1.0000 0.1205923585
H   H127      1.0  0.16480  0.14080  0.22720  1.0000 0.137831345
H   H128      1.0  0.83640  0.31240  0.72720  1.0000 0.137831345
H   H129      1.0  0.14970  0.69370  0.26060  1.0000 0.3192495553
H   H130      1.0  0.31690  0.36090  0.76060  1.0000 0.3192495553
H   H131      1.0  0.17210  0.74900  0.32050  1.0000 0.2894783223
H   H132      1.0  0.32150  0.39840  0.82050  1.0000 0.2894783223
H   H133      1.0  0.59310  0.15450  0.65460  1.0000 0.3039178251
H   H134      1.0  0.25010  0.31150  0.15460  1.0000 0.3039178251
H   H135      1.0  0.64630  0.15500  0.70030  1.0000 0.2894783223
H   H136      1.0  0.29530  0.30400  0.20030  1.0000 0.2894783223
H   H137      1.0  0.58000  0.74400  0.13580  1.0000 0.1313719056
H   H138      1.0  0.14180  0.80580  0.63580  1.0000 0.1313719056
H   H139      1.0  0.59580  0.89640  0.16340  1.0000 0.1205923585
H   H140      1.0  0.01700  0.81760  0.66340  1.0000 0.1205923585
H   H141      1.0  0.49990  0.86210  0.09020  1.0000 0.1313719056
H   H142      1.0  0.97810  0.84030  0.59020  1.0000 0.1313719056
H   H143      1.0  0.97770  0.71460  0.99650  1.0000 0.1313719056
H   H144      1.0  0.03190  0.26880  0.49650  1.0000 0.1313719056
H   H145      1.0  0.11000  0.86300  0.12620  1.0000 0.1205923585
H   H146      1.0  0.01320  0.26620  0.62620  1.0000 0.1205923585
H   H147      1.0  0.06640  0.89260  0.17920  1.0000 0.1205923585
H   H148      1.0  0.03660  0.36280  0.67920  1.0000 0.1205923585
H   H149      1.0  0.06510  0.13700  0.61830  1.0000 0.1462814284
H   H150      1.0  0.23130  0.80320  0.11830  1.0000 0.1462814284
H   H151      1.0  0.11830  0.13510  0.70580  1.0000 0.1106088876
H   H152      1.0  0.32070  0.83750  0.20580  1.0000 0.1106088876
H   H153      1.0  0.11560  0.04970  0.69530  1.0000 0.1106088876
H   H154      1.0  0.39560  0.82970  0.19530  1.0000 0.1106088876
H   H155      1.0  0.05980  0.96620  0.59720  1.0000 0.137831345
H   H156      1.0  0.38100  0.78740  0.09720  1.0000 0.137831345
H   H157      1.0  0.83700  0.84420  0.08980  1.0000 0.1313719056
H   H158      1.0  0.99560  0.50280  0.58980  1.0000 0.1313719056
H   H159      1.0  0.74470  0.80820  0.00570  1.0000 0.1038638936
H   H160      1.0  0.94750  0.51100  0.50570  1.0000 0.1038638936
H   H161      1.0  0.67180  0.80820  0.02140  1.0000 0.1106088876
H   H162      1.0  0.96320  0.59960  0.52140  1.0000 0.1106088876
H   H163      1.0  0.69130  0.84440  0.12130  1.0000 0.1313719056
H   H164      1.0  0.02690  0.68000  0.62130  1.0000 0.1313719056
H   H165      1.0  0.05620  0.00650  0.27530  1.0000 0.1313719056
H   H166      1.0  0.01880  0.46910  0.77530  1.0000 0.1313719056
H   H167      1.0  0.12580  0.09510  0.32850  1.0000 0.1038638936
H   H168      1.0  0.98340  0.45270  0.82850  1.0000 0.1038638936
H   H169      1.0  0.14040  0.17080  0.41920  1.0000 0.1106088876
H   H170      1.0  0.99840  0.52880  0.91920  1.0000 0.1106088876
H   H171      1.0  0.08560  0.15800  0.45660  1.0000 0.1313719056
H   H172      1.0  0.04860  0.62100  0.95660  1.0000 0.1313719056
H   H173      1.0  0.70140  0.82910  0.31650  1.0000 0.1313719056
H   H174      1.0  0.23740  0.86510  0.81650  1.0000 0.1313719056
H   H175      1.0  0.69030  0.77890  0.35900  1.0000 0.1106088876
H   H176      1.0  0.33010  0.91870  0.85900  1.0000 0.1106088876
H   H177      1.0  0.76760  0.76690  0.42190  1.0000 0.1038638936
H   H178      1.0  0.40500  0.90430  0.92190  1.0000 0.1038638936
H   H179      1.0  0.85610  0.80500  0.44210  1.0000 0.1313719056
H   H180      1.0  0.38710  0.83600  0.94210  1.0000 0.1313719056
H   H181      1.0  0.02240  0.81230  0.23770  1.0000 0.137831345
H   H182      1.0  0.17540  0.46530  0.73770  1.0000 0.137831345
H   H183      1.0  0.07080  0.76120  0.26640  1.0000 0.1106088876
H   H184      1.0  0.25520  0.44560  0.76640  1.0000 0.1106088876
H   H185      1.0  0.07710  0.75250  0.34460  1.0000 0.1106088876
H   H186      1.0  0.34210  0.51750  0.84460  1.0000 0.1106088876
H   H187      1.0  0.03500  0.79490  0.39410  1.0000 0.137831345
H   H188      1.0  0.34920  0.60910  0.89410  1.0000 0.137831345
H   H189      1.0  0.72090  0.01350  0.32300  1.0000 0.137831345
H   H190      1.0  0.05950  0.85210  0.82300  1.0000 0.137831345
H   H191      1.0  0.72320  0.10240  0.37660  1.0000 0.1205923585
H   H192      1.0  0.02420  0.90340  0.87660  1.0000 0.1205923585
H   H193      1.0  0.80820  0.17750  0.45310  1.0000 0.1205923585
H   H194      1.0  0.02560  0.89490  0.95310  1.0000 0.1205923585
H   H195      1.0  0.89080  0.16360  0.47600  1.0000 0.137831345
H   H196      1.0  0.06240  0.83520  0.97600  1.0000 0.137831345
H   H197      1.0  0.44370  0.68310  0.04400  1.0000 0.3192495553
H   H198      1.0  0.11090  0.85030  0.54400  1.0000 0.3192495553
H   H199      1.0  0.49900  0.67850  0.07690  1.0000 0.2894783223
H   H200      1.0  0.14840  0.82790  0.57690  1.0000 0.2894783223
H   H201      1.0  0.90450  0.74990  0.06140  1.0000 0.3039178251
H   H202      1.0  0.06150  0.40690  0.56140  1.0000 0.3039178251
H   H203      1.0  0.90500  0.70470  0.00870  1.0000 0.2894783223
H   H204      1.0  0.05400  0.35370  0.50870  1.0000 0.2894783223
H   H205      1.0  0.60820  0.44420  0.86420  1.0000 0.1313719056
H   H206      1.0  0.17000  0.50600  0.36420  1.0000 0.1313719056
H   H207      1.0  0.73300  0.43240  0.83660  1.0000 0.1205923585
H   H208      1.0  0.15420  0.35360  0.33660  1.0000 0.1205923585
H   H209      1.0  0.77190  0.40970  0.90980  1.0000 0.1313719056
H   H210      1.0  0.25010  0.38790  0.40980  1.0000 0.1313719056
H   H211      1.0  0.71810  0.98120  0.00350  1.0000 0.1313719056
H   H212      1.0  0.77230  0.53540  0.50350  1.0000 0.1313719056
H   H213      1.0  0.73680  0.98380  0.87380  1.0000 0.1205923585
H   H214      1.0  0.64000  0.38700  0.37380  1.0000 0.1205923585
H   H215      1.0  0.71340  0.88720  0.82080  1.0000 0.1205923585
H   H216      1.0  0.68360  0.35740  0.32080  1.0000 0.1205923585
H   H217      1.0  0.51870  0.44680  0.38170  1.0000 0.1462814284
H   H218      1.0  0.68490  0.11300  0.88170  1.0000 0.1462814284
H   H219      1.0  0.42930  0.41250  0.29420  1.0000 0.1106088876
H   H220      1.0  0.63170  0.11490  0.79420  1.0000 0.1106088876
H   H221      1.0  0.35440  0.42030  0.30470  1.0000 0.1106088876
H   H222      1.0  0.63440  0.20030  0.80470  1.0000 0.1106088876
H   H223      1.0  0.36900  0.46260  0.40280  1.0000 0.137831345
H   H224      1.0  0.69020  0.28380  0.90280  1.0000 0.137831345
H   H225      1.0  0.75440  0.74720  0.91020  1.0000 0.1313719056
H   H226      1.0  0.91300  0.40580  0.41020  1.0000 0.1313719056
H   H227      1.0  0.80250  0.73900  0.99430  1.0000 0.1038638936
H   H228      1.0  0.00530  0.44180  0.49430  1.0000 0.1038638936
H   H229      1.0  0.78680  0.65040  0.97860  1.0000 0.1106088876
H   H230      1.0  0.07820  0.44180  0.47860  1.0000 0.1106088876
H   H231      1.0  0.72310  0.57000  0.87870  1.0000 0.1313719056
H   H232      1.0  0.05870  0.40560  0.37870  1.0000 0.1313719056
H   H233      1.0  0.73120  0.78090  0.72470  1.0000 0.1313719056
H   H234      1.0  0.69380  0.24350  0.22470  1.0000 0.1313719056
H   H235      1.0  0.76660  0.79730  0.67150  1.0000 0.1038638936
H   H236      1.0  0.62420  0.15490  0.17150  1.0000 0.1038638936
H   H237      1.0  0.75160  0.72120  0.58080  1.0000 0.1106088876
H   H238      1.0  0.60960  0.07920  0.08080  1.0000 0.1106088876
H   H239      1.0  0.70140  0.62900  0.54340  1.0000 0.1313719056
H   H240      1.0  0.66440  0.09200  0.04340  1.0000 0.1313719056
H   H241      1.0  0.51260  0.38490  0.68350  1.0000 0.1313719056
H   H242      1.0  0.04860  0.42090  0.18350  1.0000 0.1313719056
H   H243      1.0  0.41990  0.33130  0.64100  1.0000 0.1106088876
H   H244      1.0  0.05970  0.47110  0.14100  1.0000 0.1106088876
H   H245      1.0  0.34500  0.34570  0.57810  1.0000 0.1038638936
H   H246      1.0  0.98240  0.48310  0.07810  1.0000 0.1038638936
H   H247      1.0  0.36290  0.41400  0.55790  1.0000 0.1313719056
H   H248      1.0  0.89390  0.44500  0.05790  1.0000 0.1313719056
H   H249      1.0  0.57460  0.78470  0.76230  1.0000 0.137831345
H   H250      1.0  0.72760  0.43770  0.26230  1.0000 0.137831345
H   H251      1.0  0.49480  0.80440  0.73360  1.0000 0.1106088876
H   H252      1.0  0.67920  0.48880  0.23360  1.0000 0.1106088876
H   H253      1.0  0.40790  0.73250  0.65540  1.0000 0.1106088876
H   H254      1.0  0.67290  0.49750  0.15540  1.0000 0.1106088876
H   H255      1.0  0.40080  0.64090  0.60590  1.0000 0.137831345
H   H256      1.0  0.71500  0.45510  0.10590  1.0000 0.137831345
H   H257      1.0  0.69050  0.39790  0.67700  1.0000 0.137831345
H   H258      1.0  0.02910  0.23650  0.17700  1.0000 0.137831345
H   H259      1.0  0.72580  0.34660  0.62340  1.0000 0.1205923585
H   H260      1.0  0.02680  0.14760  0.12340  1.0000 0.1205923585
H   H261      1.0  0.72440  0.35510  0.54690  1.0000 0.1205923585
H   H262      1.0  0.94180  0.07250  0.04690  1.0000 0.1205923585
H   H263      1.0  0.68760  0.41480  0.52400  1.0000 0.137831345
H   H264      1.0  0.85920  0.08640  0.02400  1.0000 0.137831345
H   H265      1.0  0.63910  0.39970  0.95600  1.0000 0.3192495553
H   H266      1.0  0.30630  0.56690  0.45600  1.0000 0.3192495553
H   H267      1.0  0.60160  0.42210  0.92310  1.0000 0.2894783223
H   H268      1.0  0.25100  0.57150  0.42310  1.0000 0.2894783223
H   H269      1.0  0.68850  0.84310  0.93860  1.0000 0.3039178251
H   H270      1.0  0.84550  0.50010  0.43860  1.0000 0.3039178251
H   H271      1.0  0.69600  0.89630  0.99130  1.0000 0.2894783223
H   H272      1.0  0.84500  0.54530  0.49130  1.0000 0.2894783223
C   C1        1.0  0.53260  0.96320  0.79980  1.0000 -0.1191162456
C   C2        1.0  0.58660  0.51720  0.29980  1.0000 -0.1250390561
C   C3        1.0  0.49740  0.91450  0.74070  1.0000 0.2638929633
C   C4        1.0  0.57620  0.49330  0.24070  1.0000 0.2638929633
C   C5        1.0  0.51790  0.89130  0.70400  1.0000 -0.2648626121
C   C6        1.0  0.56270  0.43610  0.20400  1.0000 -0.2660640544
C   C7        1.0  0.57350  0.91690  0.72640  1.0000 -0.018328696
C   C8        1.0  0.55950  0.40290  0.22640  1.0000 -0.018328696
C   C9        1.0  0.60880  0.96570  0.78550  1.0000 -0.1191162456
C   C10       1.0  0.56980  0.42670  0.28550  1.0000 -0.1191162456
C   C11       1.0  0.58830  0.98890  0.82220  1.0000 -0.089131391
C   C12       1.0  0.58330  0.48390  0.32220  1.0000 -0.089131391
C   C13       1.0  0.59760  0.89410  0.68990  1.0000 0.5183675175
C   C14       1.0  0.54580  0.34230  0.18990  1.0000 0.5183675175
C   C15       1.0  0.50890  0.98980  0.84190  1.0000 0.5370456724
C   C16       1.0  0.60210  0.58300  0.34190  1.0000 0.5370456724
C   C17       1.0  0.57130  0.95180  0.32530  1.0000 -0.1598089131
C   C18       1.0  0.12350  0.00400  0.82530  1.0000 -0.1598089131
C   C19       1.0  0.51820  0.95320  0.29860  1.0000 0.2684879748
C   C20       1.0  0.09540  0.03040  0.79860  1.0000 0.2684879748
C   C21       1.0  0.50060  0.96720  0.25500  1.0000 -0.2660640544
C   C22       1.0  0.03780  0.00440  0.75500  1.0000 -0.2660640544
C   C23       1.0  0.53600  0.97970  0.23790  1.0000 -0.018328696
C   C24       1.0  0.00820  0.95190  0.73790  1.0000 -0.018328696
C   C25       1.0  0.58900  0.97830  0.26450  1.0000 -0.1099670922
C   C26       1.0  0.03620  0.92550  0.76450  1.0000 -0.1099670922
C   C27       1.0  0.60670  0.96430  0.30820  1.0000 -0.089131391
C   C28       1.0  0.09390  0.95150  0.80820  1.0000 -0.089131391
C   C29       1.0  0.59500  0.93860  0.37640  1.0000 0.5552577822
C   C30       1.0  0.18780  0.03140  0.87640  1.0000 0.5552577822
C   C31       1.0  0.50930  0.99010  0.18920  1.0000 0.5183675175
C   C32       1.0  0.94910  0.92990  0.68920  1.0000 0.5183675175
C   C33       1.0  0.75190  0.70260  0.47270  1.0000 0.0894208594
C   C34       1.0  0.52010  0.97080  0.97270  1.0000 0.0894208594
C   C35       1.0  0.80280  0.74720  0.52200  1.0000 0.1313719056
C   C36       1.0  0.52480  0.96920  0.02200  1.0000 0.1313719056
C   C37       1.0  0.85260  0.73850  0.53850  1.0000 -0.1598089131
C   C38       1.0  0.55000  0.93590  0.03850  1.0000 -0.1598089131
C   C39       1.0  0.85140  0.68520  0.50560  1.0000 -0.0998487584
C   C40       1.0  0.57040  0.90420  0.00560  1.0000 -0.0998487584
C   C41       1.0  0.80050  0.64060  0.45630  1.0000 -0.1191162456
C   C42       1.0  0.56570  0.90580  0.95630  1.0000 -0.1191162456
C   C43       1.0  0.75080  0.64930  0.43990  1.0000 -0.1509362844
C   C44       1.0  0.54060  0.93910  0.93990  1.0000 -0.1509362844
C   C45       1.0  0.61590  0.95070  0.59000  1.0000 0.1106088876
C   C46       1.0  0.38930  0.22410  0.09000  1.0000 0.1106088876
C   C47       1.0  0.61580  0.96010  0.54650  1.0000 0.1205923585
C   C48       1.0  0.33640  0.18070  0.04650  1.0000 0.1205923585
C   C49       1.0  0.59420  0.99810  0.53650  1.0000 -0.1598089131
C   C50       1.0  0.28840  0.19230  0.03650  1.0000 -0.1598089131
C   C51       1.0  0.57270  0.02680  0.57010  1.0000 -0.1191162456
C   C52       1.0  0.29330  0.24740  0.07010  1.0000 -0.1191162456
C   C53       1.0  0.57280  0.01750  0.61370  1.0000 -0.1191162456
C   C54       1.0  0.34620  0.29090  0.11370  1.0000 -0.1191162456
C   C55       1.0  0.59440  0.97950  0.62370  1.0000 -0.1509362844
C   C56       1.0  0.39420  0.27930  0.12370  1.0000 -0.1509362844
C   C57       1.0  0.82450  0.93610  0.53640  1.0000 0.1106088876
C   C58       1.0  0.35030  0.96190  0.03640  1.0000 0.1106088876
C   C59       1.0  0.77909  0.94509  0.49980  1.0000 0.1462814284
C   C60       1.0  0.30471  0.97071  0.99980  1.0000 0.1462814284
C   C61       1.0  0.78690  0.97530  0.47480  1.0000 -0.1743095668
C   C62       1.0  0.24950  0.93790  0.97480  1.0000 -0.1743095668
C   C63       1.0  0.83990  0.99640  0.48610  1.0000 -0.0998487584
C   C64       1.0  0.23970  0.89620  0.98610  1.0000 -0.0998487584
C   C65       1.0  0.88530  0.98750  0.52280  1.0000 -0.0998487584
C   C66       1.0  0.28530  0.88750  0.02280  1.0000 -0.0998487584
C   C67       1.0  0.87770  0.95740  0.54790  1.0000 -0.1509362844
C   C68       1.0  0.34050  0.92020  0.04790  1.0000 -0.1509362844
C   C69       1.0  0.58993  0.69853  0.50820  1.0000 0.1205923585
C   C70       1.0  0.55967  0.16827  0.00820  1.0000 0.1205923585
C   C71       1.0  0.59710  0.74340  0.56170  1.0000 0.137831345
C   C72       1.0  0.56830  0.21460  0.06170  1.0000 0.137831345
C   C73       1.0  0.57430  0.73260  0.59190  1.0000 -0.1598089131
C   C74       1.0  0.60930  0.26760  0.09190  1.0000 -0.1598089131
C   C75       1.0  0.54420  0.67699  0.56841  1.0000 -0.0998487584
C   C76       1.0  0.64142  0.27421  0.06841  1.0000 -0.0998487584
C   C77       1.0  0.53702  0.63212  0.51490  1.0000 -0.0998487584
C   C78       1.0  0.63278  0.22788  0.01490  1.0000 -0.0998487584
C   C79       1.0  0.55985  0.64290  0.48475  1.0000 -0.1598089131
C   C80       1.0  0.59185  0.17490  0.98475  1.0000 -0.1598089131
C   C81       1.0  0.57870  0.73350  0.32500  1.0000 0.1038638936
C   C82       1.0  0.34150  0.99630  0.82500  1.0000 0.1038638936
C   C83       1.0  0.58390  0.78500  0.33390  1.0000 0.0894208594
C   C84       1.0  0.29890  0.00000  0.83390  1.0000 0.1038638936
C   C85       1.0  0.55880  0.78920  0.28380  1.0000 -0.1509362844
C   C86       1.0  0.24460  0.97500  0.78380  1.0000 -0.1509362844
C   C87       1.0  0.52850  0.74190  0.22480  1.0000 -0.1191162456
C   C88       1.0  0.23290  0.94630  0.72480  1.0000 -0.1191162456
C   C89       1.0  0.52340  0.69040  0.21600  1.0000 -0.1191162456
C   C90       1.0  0.27560  0.94260  0.71600  1.0000 -0.1191162456
C   C91       1.0  0.54840  0.68620  0.26600  1.0000 -0.1509362844
C   C92       1.0  0.32980  0.96760  0.76600  1.0000 -0.1509362844
C   C93       1.0  0.83030  0.91730  0.72560  1.0000 0.1106088876
C   C94       1.0  0.55830  0.14530  0.22560  1.0000 0.1106088876
C   C95       1.0  0.78590  0.91820  0.73150  1.0000 0.0894208594
C   C96       1.0  0.56330  0.19560  0.23150  1.0000 0.0894208594
C   C97       1.0  0.79410  0.93990  0.78860  1.0000 -0.1509362844
C   C98       1.0  0.59870  0.24450  0.28860  1.0000 -0.1509362844
C   C99       1.0  0.84680  0.96080  0.83980  1.0000 -0.1099670922
C   C100      1.0  0.62900  0.24300  0.33980  1.0000 -0.1099670922
C   C101      1.0  0.89120  0.96000  0.83400  1.0000 -0.0998487584
C   C102      1.0  0.62400  0.19280  0.33400  1.0000 -0.0998487584
C   C103      1.0  0.88300  0.93820  0.77680  1.0000 -0.1509362844
C   C104      1.0  0.58860  0.14380  0.27680  1.0000 -0.1509362844
C   C105      1.0  0.16340  0.73280  0.20020  1.0000 -0.1191162456
C   C106      1.0  0.21740  0.28680  0.70020  1.0000 -0.1250390561
C   C107      1.0  0.17380  0.75670  0.25930  1.0000 0.2638929633
C   C108      1.0  0.25260  0.33550  0.75930  1.0000 0.2638929633
C   C109      1.0  0.18730  0.81390  0.29600  1.0000 -0.2660640544
C   C110      1.0  0.23210  0.35870  0.79600  1.0000 -0.2660640544
C   C111      1.0  0.19050  0.84710  0.27360  1.0000 -0.018328696
C   C112      1.0  0.17650  0.33310  0.77360  1.0000 -0.018328696
C   C113      1.0  0.18020  0.82330  0.21450  1.0000 -0.1191162456
C   C114      1.0  0.14120  0.28430  0.71450  1.0000 -0.1191162456
C   C115      1.0  0.16670  0.76610  0.17780  1.0000 -0.089131391
C   C116      1.0  0.16170  0.26110  0.67780  1.0000 -0.089131391
C   C117      1.0  0.20420  0.90770  0.31010  1.0000 0.5183675175
C   C118      1.0  0.15240  0.35590  0.81010  1.0000 0.5183675175
C   C119      1.0  0.14790  0.66700  0.15810  1.0000 0.5370456724
C   C120      1.0  0.24110  0.26020  0.65810  1.0000 0.5370456724
C   C121      1.0  0.62650  0.24600  0.67470  1.0000 -0.1598089131
C   C122      1.0  0.17870  0.29820  0.17470  1.0000 -0.1598089131
C   C123      1.0  0.65460  0.21960  0.70140  1.0000 0.2684879748
C   C124      1.0  0.23180  0.29680  0.20140  1.0000 0.2684879748
C   C125      1.0  0.71220  0.24560  0.74500  1.0000 -0.2660640544
C   C126      1.0  0.24940  0.28280  0.24500  1.0000 -0.2660640544
C   C127      1.0  0.74180  0.29810  0.76210  1.0000 -0.018328696
C   C128      1.0  0.21400  0.27030  0.26210  1.0000 -0.018328696
C   C129      1.0  0.71380  0.32450  0.73550  1.0000 -0.1099670922
C   C130      1.0  0.16100  0.27170  0.23550  1.0000 -0.1099670922
C   C131      1.0  0.65610  0.29850  0.69180  1.0000 -0.089131391
C   C132      1.0  0.14330  0.28570  0.19180  1.0000 -0.089131391
C   C133      1.0  0.56220  0.21860  0.62360  1.0000 0.5552577822
C   C134      1.0  0.15500  0.31140  0.12360  1.0000 0.5552577822
C   C135      1.0  0.80090  0.32010  0.81080  1.0000 0.5183675175
C   C136      1.0  0.24070  0.25990  0.31080  1.0000 0.5183675175
C   C137      1.0  0.22990  0.27920  0.52730  1.0000 0.0894208594
C   C138      1.0  0.99810  0.54740  0.02730  1.0000 0.0894208594
C   C139      1.0  0.22520  0.28080  0.47800  1.0000 0.1313719056
C   C140      1.0  0.94720  0.50280  0.97800  1.0000 0.1313719056
C   C141      1.0  0.20000  0.31410  0.46150  1.0000 -0.1598089131
C   C142      1.0  0.89740  0.51150  0.96150  1.0000 -0.1598089131
C   C143      1.0  0.17960  0.34580  0.49440  1.0000 -0.0998487584
C   C144      1.0  0.89860  0.56480  0.99440  1.0000 -0.0998487584
C   C145      1.0  0.18430  0.34420  0.54370  1.0000 -0.1191162456
C   C146      1.0  0.94950  0.60940  0.04370  1.0000 -0.1191162456
C   C147      1.0  0.20940  0.31090  0.56010  1.0000 -0.1509362844
C   C148      1.0  0.99920  0.60070  0.06010  1.0000 -0.1509362844
C   C149      1.0  0.36070  0.02590  0.41000  1.0000 0.1106088876
C   C150      1.0  0.13410  0.29930  0.91000  1.0000 0.1106088876
C   C151      1.0  0.41360  0.06930  0.45350  1.0000 0.1205923585
C   C152      1.0  0.13420  0.28990  0.95350  1.0000 0.1205923585
C   C153      1.0  0.46160  0.05770  0.46350  1.0000 -0.1598089131
C   C154      1.0  0.15580  0.25190  0.96350  1.0000 -0.1598089131
C   C155      1.0  0.45670  0.00260  0.42990  1.0000 -0.1191162456
C   C156      1.0  0.17730  0.22320  0.92990  1.0000 -0.1191162456
C   C157      1.0  0.40380  0.95910  0.38630  1.0000 -0.1191162456
C   C158      1.0  0.17720  0.23250  0.88630  1.0000 -0.1191162456
C   C159      1.0  0.35580  0.97070  0.37630  1.0000 -0.1509362844
C   C160      1.0  0.15560  0.27050  0.87630  1.0000 -0.1509362844
C   C161      1.0  0.39970  0.28810  0.46360  1.0000 0.1106088876
C   C162      1.0  0.92550  0.31390  0.96360  1.0000 0.1106088876
C   C163      1.0  0.44529  0.27929  0.50020  1.0000 0.1462814284
C   C164      1.0  0.97091  0.30491  0.00020  1.0000 0.1462814284
C   C165      1.0  0.50050  0.31210  0.52520  1.0000 -0.1743095668
C   C166      1.0  0.96310  0.27470  0.02520  1.0000 -0.1743095668
C   C167      1.0  0.51030  0.35380  0.51390  1.0000 -0.0998487584
C   C168      1.0  0.91010  0.25360  0.01390  1.0000 -0.0998487584
C   C169      1.0  0.46470  0.36250  0.47720  1.0000 -0.0998487584
C   C170      1.0  0.86470  0.26250  0.97720  1.0000 -0.0998487584
C   C171      1.0  0.40950  0.32980  0.45210  1.0000 -0.1509362844
C   C172      1.0  0.87230  0.29260  0.95210  1.0000 -0.1509362844
C   C173      1.0  0.19033  0.08173  0.49180  1.0000 0.1205923585
C   C174      1.0  0.16007  0.55147  0.99180  1.0000 0.1205923585
C   C175      1.0  0.18170  0.03540  0.43830  1.0000 0.137831345
C   C176      1.0  0.15290  0.50660  0.93830  1.0000 0.137831345
C   C177      1.0  0.14070  0.98240  0.40810  1.0000 -0.1598089131
C   C178      1.0  0.17570  0.51740  0.90810  1.0000 -0.1598089131
C   C179      1.0  0.10858  0.97579  0.43159  1.0000 -0.0998487584
C   C180      1.0  0.20580  0.57301  0.93159  1.0000 -0.0998487584
C   C181      1.0  0.11722  0.02212  0.48510  1.0000 -0.0998487584
C   C182      1.0  0.21298  0.61788  0.98510  1.0000 -0.0998487584
C   C183      1.0  0.15815  0.07510  0.51525  1.0000 -0.1598089131
C   C184      1.0  0.19015  0.60710  0.01525  1.0000 -0.1598089131
C   C185      1.0  0.40850  0.25370  0.67500  1.0000 0.1038638936
C   C186      1.0  0.17130  0.51650  0.17500  1.0000 0.1038638936
C   C187      1.0  0.45110  0.25000  0.66610  1.0000 0.0894208594
C   C188      1.0  0.16610  0.46500  0.16610  1.0000 0.0894208594
C   C189      1.0  0.50540  0.27500  0.71620  1.0000 -0.1509362844
C   C190      1.0  0.19120  0.46080  0.21620  1.0000 -0.1509362844
C   C191      1.0  0.51710  0.30370  0.77520  1.0000 -0.1191162456
C   C192      1.0  0.22150  0.50810  0.27520  1.0000 -0.1191162456
C   C193      1.0  0.47440  0.30740  0.78400  1.0000 -0.1191162456
C   C194      1.0  0.22660  0.55960  0.28400  1.0000 -0.1191162456
C   C195      1.0  0.42020  0.28240  0.73400  1.0000 -0.1509362844
C   C196      1.0  0.20160  0.56380  0.23400  1.0000 -0.1509362844
C   C197      1.0  0.19170  0.10470  0.27440  1.0000 0.1106088876
C   C198      1.0  0.91970  0.33270  0.77440  1.0000 0.1106088876
C   C199      1.0  0.18670  0.05440  0.26850  1.0000 0.0894208594
C   C200      1.0  0.96410  0.33180  0.76850  1.0000 0.0894208594
C   C201      1.0  0.15130  0.00550  0.21140  1.0000 -0.1509362844
C   C202      1.0  0.95590  0.31010  0.71140  1.0000 -0.1509362844
C   C203      1.0  0.12100  0.00700  0.16020  1.0000 -0.1099670922
C   C204      1.0  0.90320  0.28920  0.66020  1.0000 -0.1099670922
C   C205      1.0  0.12600  0.05720  0.16600  1.0000 -0.0998487584
C   C206      1.0  0.85880  0.29000  0.66600  1.0000 -0.0998487584
C   C207      1.0  0.16140  0.10620  0.22320  1.0000 -0.1509362844
C   C208      1.0  0.86700  0.31180  0.72320  1.0000 -0.1509362844
C   C209      1.0  0.48280  0.78260  0.06940  1.0000 -0.1191162456
C   C210      1.0  0.03680  0.83660  0.56940  1.0000 -0.1191162456
C   C211      1.0  0.50670  0.74740  0.08290  1.0000 0.2638929633
C   C212      1.0  0.08550  0.82620  0.58290  1.0000 0.2638929633
C   C213      1.0  0.56390  0.76790  0.12660  1.0000 -0.2660640544
C   C214      1.0  0.10870  0.81270  0.62660  1.0000 -0.2660640544
C   C215      1.0  0.59710  0.82350  0.15660  1.0000 -0.018328696
C   C216      1.0  0.08310  0.80950  0.65660  1.0000 -0.018328696
C   C217      1.0  0.57330  0.85880  0.14310  1.0000 -0.1191162456
C   C218      1.0  0.03430  0.81980  0.64310  1.0000 -0.1191162456
C   C219      1.0  0.51610  0.83830  0.09940  1.0000 -0.089131391
C   C220      1.0  0.01110  0.83330  0.59940  1.0000 -0.089131391
C   C221      1.0  0.65770  0.84760  0.20350  1.0000 0.5183675175
C   C222      1.0  0.10590  0.79580  0.70350  1.0000 0.5183675175
C   C223      1.0  0.41700  0.75890  0.01910  1.0000 0.5370456724
C   C224      1.0  0.01020  0.85210  0.51910  1.0000 0.5370456724
C   C225      1.0  0.99600  0.82130  0.11950  1.0000 -0.1598089131
C   C226      1.0  0.04820  0.37350  0.61950  1.0000 -0.1598089131
C   C227      1.0  0.96960  0.76820  0.06500  1.0000 0.2684879748
C   C228      1.0  0.04680  0.34540  0.56500  1.0000 0.2684879748
C   C229      1.0  0.99560  0.75060  0.03340  1.0000 -0.2660640544
C   C230      1.0  0.03280  0.28780  0.53340  1.0000 -0.2660640544
C   C231      1.0  0.04810  0.78600  0.05630  1.0000 -0.018328696
C   C232      1.0  0.02030  0.25820  0.55630  1.0000 -0.018328696
C   C233      1.0  0.07450  0.83900  0.11070  1.0000 -0.1099670922
C   C234      1.0  0.02170  0.28620  0.61070  1.0000 -0.1099670922
C   C235      1.0  0.04850  0.85670  0.14240  1.0000 -0.089131391
C   C236      1.0  0.03570  0.34390  0.64240  1.0000 -0.089131391
C   C237      1.0  0.96860  0.84500  0.15640  1.0000 0.5552577822
C   C238      1.0  0.06140  0.43780  0.65640  1.0000 0.5552577822
C   C239      1.0  0.07010  0.75930  0.01920  1.0000 0.5183675175
C   C240      1.0  0.00990  0.19910  0.51920  1.0000 0.5183675175
C   C241      1.0  0.02920  0.00190  0.54930  1.0000 0.0894208594
C   C242      1.0  0.29740  0.77010  0.04930  1.0000 0.0894208594
C   C243      1.0  0.03080  0.05280  0.55560  1.0000 0.1313719056
C   C244      1.0  0.25280  0.77480  0.05560  1.0000 0.1313719056
C   C245      1.0  0.06410  0.10260  0.61410  1.0000 -0.1598089131
C   C246      1.0  0.26150  0.80000  0.11410  1.0000 -0.1598089131
C   C247      1.0  0.09580  0.10140  0.66620  1.0000 -0.0998487584
C   C248      1.0  0.31480  0.82040  0.16620  1.0000 -0.0998487584
C   C249      1.0  0.09420  0.05050  0.65990  1.0000 -0.1191162456
C   C250      1.0  0.35940  0.81570  0.15990  1.0000 -0.1191162456
C   C251      1.0  0.06090  0.00080  0.60150  1.0000 -0.1509362844
C   C252      1.0  0.35070  0.79060  0.10150  1.0000 -0.1509362844
C   C253      1.0  0.77590  0.86590  0.16520  1.0000 0.1106088876
C   C254      1.0  0.04930  0.63930  0.66520  1.0000 0.1106088876
C   C255      1.0  0.81930  0.86580  0.15570  1.0000 0.1205923585
C   C256      1.0  0.03990  0.58640  0.65570  1.0000 0.1205923585
C   C257      1.0  0.80770  0.84420  0.09610  1.0000 -0.1598089131
C   C258      1.0  0.00190  0.53840  0.59610  1.0000 -0.1598089131
C   C259      1.0  0.75260  0.82270  0.04590  1.0000 -0.1191162456
C   C260      1.0  0.97320  0.54330  0.54590  1.0000 -0.1191162456
C   C261      1.0  0.70910  0.82280  0.05530  1.0000 -0.1191162456
C   C262      1.0  0.98250  0.59620  0.55530  1.0000 -0.1191162456
C   C263      1.0  0.72070  0.84440  0.11490  1.0000 -0.1509362844
C   C264      1.0  0.02050  0.64420  0.61490  1.0000 -0.1509362844
C   C265      1.0  0.03810  0.07450  0.38840  1.0000 0.1106088876
C   C266      1.0  0.06390  0.60030  0.88840  1.0000 0.1106088876
C   C267      1.0  0.02929  0.02909  0.33400  1.0000 0.1462814284
C   C268      1.0  0.05491  0.55471  0.83400  1.0000 0.1462814284
C   C269      1.0  0.06210  0.03690  0.31160  1.0000 -0.1743095668
C   C270      1.0  0.02470  0.49950  0.81160  1.0000 -0.1743095668
C   C271      1.0  0.10380  0.08990  0.34350  1.0000 -0.0998487584
C   C272      1.0  0.00360  0.48970  0.84350  1.0000 -0.089131391
C   C273      1.0  0.11250  0.13530  0.39780  1.0000 -0.0998487584
C   C274      1.0  0.01250  0.53530  0.89780  1.0000 -0.0998487584
C   C275      1.0  0.07980  0.12770  0.42030  1.0000 -0.1509362844
C   C276      1.0  0.04260  0.59050  0.92030  1.0000 -0.1509362844
C   C277      1.0  0.83173  0.83993  0.39140  1.0000 0.1205923585
C   C278      1.0  0.30147  0.80967  0.89140  1.0000 0.1205923585
C   C279      1.0  0.78540  0.84710  0.35370  1.0000 0.137831345
C   C280      1.0  0.25660  0.81830  0.85370  1.0000 0.137831345
C   C281      1.0  0.73240  0.82430  0.34170  1.0000 -0.1598089131
C   C282      1.0  0.26740  0.85930  0.84170  1.0000 -0.1598089131
C   C283      1.0  0.72579  0.79420  0.36721  1.0000 -0.0998487584
C   C284      1.0  0.32301  0.89142  0.86721  1.0000 -0.0998487584
C   C285      1.0  0.77212  0.78702  0.40490  1.0000 -0.0998487584
C   C286      1.0  0.36788  0.88278  0.90490  1.0000 -0.0998487584
C   C287      1.0  0.82510  0.80985  0.41695  1.0000 -0.1598089131
C   C288      1.0  0.35710  0.84185  0.91695  1.0000 -0.1598089131
C   C289      1.0  0.00370  0.82870  0.34520  1.0000 0.1038638936
C   C290      1.0  0.26650  0.59150  0.84520  1.0000 0.1038638936
C   C291      1.0  0.00000  0.83390  0.29890  1.0000 0.0894208594
C   C292      1.0  0.21500  0.54890  0.79890  1.0000 0.0894208594
C   C293      1.0  0.02500  0.80880  0.26960  1.0000 -0.1509362844
C   C294      1.0  0.21080  0.49460  0.76960  1.0000 -0.1509362844
C   C295      1.0  0.05370  0.77850  0.28660  1.0000 -0.1191162456
C   C296      1.0  0.25810  0.48290  0.78660  1.0000 -0.1191162456
C   C297      1.0  0.05740  0.77340  0.33300  1.0000 -0.1191162456
C   C298      1.0  0.30960  0.52560  0.83300  1.0000 -0.1191162456
C   C299      1.0  0.03240  0.79840  0.36220  1.0000 -0.1509362844
C   C300      1.0  0.31380  0.57980  0.86220  1.0000 -0.1509362844
C   C301      1.0  0.85470  0.08030  0.41300  1.0000 0.1106088876
C   C302      1.0  0.08270  0.80830  0.91300  1.0000 0.1106088876
C   C303      1.0  0.80440  0.03590  0.36770  1.0000 0.0894208594
C   C304      1.0  0.08180  0.81330  0.86770  1.0000 0.0894208594
C   C305      1.0  0.75550  0.04410  0.35420  1.0000 -0.1509362844
C   C306      1.0  0.06010  0.84870  0.85420  1.0000 -0.1509362844
C   C307      1.0  0.75700  0.09680  0.38600  1.0000 -0.1099670922
C   C308      1.0  0.03920  0.87900  0.88600  1.0000 -0.1099670922
C   C309      1.0  0.80720  0.14120  0.43120  1.0000 -0.0998487584
C   C310      1.0  0.04000  0.87400  0.93120  1.0000 -0.0998487584
C   C311      1.0  0.85620  0.13300  0.44480  1.0000 -0.1509362844
C   C312      1.0  0.06180  0.83860  0.94480  1.0000 -0.1509362844
C   C313      1.0  0.71320  0.41340  0.93060  1.0000 -0.1250390561
C   C314      1.0  0.26720  0.46740  0.43060  1.0000 -0.1250390561
C   C315      1.0  0.66450  0.42380  0.91710  1.0000 0.2638929633
C   C316      1.0  0.24330  0.50260  0.41710  1.0000 0.2638929633
C   C317      1.0  0.64130  0.43730  0.87340  1.0000 -0.2648626121
C   C318      1.0  0.18610  0.48210  0.37340  1.0000 -0.2660640544
C   C319      1.0  0.66690  0.44050  0.84340  1.0000 -0.018328696
C   C320      1.0  0.15290  0.42650  0.34340  1.0000 -0.018328696
C   C321      1.0  0.71570  0.43020  0.85690  1.0000 -0.1191162456
C   C322      1.0  0.17670  0.39120  0.35690  1.0000 -0.1191162456
C   C323      1.0  0.73890  0.41670  0.90060  1.0000 -0.089131391
C   C324      1.0  0.23390  0.41170  0.40060  1.0000 -0.089131391
C   C325      1.0  0.64410  0.45420  0.79650  1.0000 0.5183675175
C   C326      1.0  0.09230  0.40240  0.29650  1.0000 0.5183675175
C   C327      1.0  0.73980  0.39790  0.98090  1.0000 0.5370456724
C   C328      1.0  0.33300  0.49110  0.48090  1.0000 0.5370456724
C   C329      1.0  0.70180  0.87650  0.88050  1.0000 -0.1598089131
C   C330      1.0  0.75400  0.42870  0.38050  1.0000 -0.1598089131
C   C331      1.0  0.70320  0.90460  0.93500  1.0000 0.2684879748
C   C332      1.0  0.78040  0.48180  0.43500  1.0000 0.2684879748
C   C333      1.0  0.71720  0.96220  0.96660  1.0000 -0.2660640544
C   C334      1.0  0.75440  0.49940  0.46660  1.0000 -0.2660640544
C   C335      1.0  0.72970  0.99180  0.94370  1.0000 -0.018328696
C   C336      1.0  0.70190  0.46400  0.44370  1.0000 -0.018328696
C   C337      1.0  0.72830  0.96380  0.88930  1.0000 -0.1099670922
C   C338      1.0  0.67550  0.41100  0.38930  1.0000 -0.1099670922
C   C339      1.0  0.71430  0.90610  0.85760  1.0000 -0.089131391
C   C340      1.0  0.70150  0.39330  0.35760  1.0000 -0.089131391
C   C341      1.0  0.68860  0.81220  0.84360  1.0000 0.5552577822
C   C342      1.0  0.78140  0.40500  0.34360  1.0000 0.5552577822
C   C343      1.0  0.74010  0.05090  0.98080  1.0000 0.5183675175
C   C344      1.0  0.67990  0.49070  0.48080  1.0000 0.5183675175
C   C345      1.0  0.45260  0.47990  0.45070  1.0000 0.0894208594
C   C346      1.0  0.72080  0.24810  0.95070  1.0000 0.0894208594
C   C347      1.0  0.49720  0.47520  0.44440  1.0000 0.1313719056
C   C348      1.0  0.71920  0.19720  0.94440  1.0000 0.1313719056
C   C349      1.0  0.48850  0.45000  0.38590  1.0000 -0.1598089131
C   C350      1.0  0.68590  0.14740  0.88590  1.0000 -0.1598089131
C   C351      1.0  0.43520  0.42960  0.33380  1.0000 -0.0998487584
C   C352      1.0  0.65420  0.14860  0.83380  1.0000 -0.0998487584
C   C353      1.0  0.39060  0.43430  0.34010  1.0000 -0.1191162456
C   C354      1.0  0.65580  0.19950  0.84010  1.0000 -0.1191162456
C   C355      1.0  0.39930  0.45940  0.39850  1.0000 -0.1509362844
C   C356      1.0  0.68910  0.24920  0.89850  1.0000 -0.1509362844
C   C357      1.0  0.70070  0.61070  0.83480  1.0000 0.1106088876
C   C358      1.0  0.97410  0.38410  0.33480  1.0000 0.1106088876
C   C359      1.0  0.71010  0.66360  0.84430  1.0000 0.1205923585
C   C360      1.0  0.93070  0.38420  0.34430  1.0000 0.1205923585
C   C361      1.0  0.74810  0.71160  0.90390  1.0000 -0.1598089131
C   C362      1.0  0.94230  0.40580  0.40390  1.0000 -0.1598089131
C   C363      1.0  0.77680  0.70670  0.95410  1.0000 -0.1191162456
C   C364      1.0  0.99740  0.42730  0.45410  1.0000 -0.1191162456
C   C365      1.0  0.76750  0.65380  0.94470  1.0000 -0.1191162456
C   C366      1.0  0.04090  0.42720  0.44470  1.0000 -0.1191162456
C   C367      1.0  0.72950  0.60580  0.88510  1.0000 -0.1509362844
C   C368      1.0  0.02930  0.40560  0.38510  1.0000 -0.1509362844
C   C369      1.0  0.68610  0.64970  0.61160  1.0000 0.1106088876
C   C370      1.0  0.71190  0.17550  0.11160  1.0000 0.1106088876
C   C371      1.0  0.69509  0.69529  0.66600  1.0000 0.1462814284
C   C372      1.0  0.72071  0.22091  0.16600  1.0000 0.1462814284
C   C373      1.0  0.72530  0.75050  0.68840  1.0000 -0.1743095668
C   C374      1.0  0.68790  0.21310  0.18840  1.0000 -0.1743095668
C   C375      1.0  0.74640  0.76030  0.65650  1.0000 -0.0998487584
C   C376      1.0  0.64620  0.16010  0.15650  1.0000 -0.0998487584
C   C377      1.0  0.73750  0.71470  0.60220  1.0000 -0.0998487584
C   C378      1.0  0.63750  0.11470  0.10220  1.0000 -0.0998487584
C   C379      1.0  0.70740  0.65950  0.57970  1.0000 -0.1509362844
C   C380      1.0  0.67020  0.12230  0.07970  1.0000 -0.1509362844
C   C381      1.0  0.44853  0.44033  0.60860  1.0000 0.1205923585
C   C382      1.0  0.91827  0.41007  0.10860  1.0000 0.1205923585
C   C383      1.0  0.49340  0.43170  0.64630  1.0000 0.137831345
C   C384      1.0  0.96460  0.40290  0.14630  1.0000 0.137831345
C   C385      1.0  0.48260  0.39070  0.65830  1.0000 -0.1598089131
C   C386      1.0  0.01760  0.42570  0.15830  1.0000 -0.1598089131
C   C387      1.0  0.42699  0.35858  0.63279  1.0000 -0.0998487584
C   C388      1.0  0.02421  0.45580  0.13279  1.0000 -0.0998487584
C   C389      1.0  0.38212  0.36722  0.59510  1.0000 -0.0998487584
C   C390      1.0  0.97788  0.46298  0.09510  1.0000 -0.0998487584
C   C391      1.0  0.39290  0.40815  0.58305  1.0000 -0.1598089131
C   C392      1.0  0.92490  0.44015  0.08305  1.0000 -0.1598089131
C   C393      1.0  0.48350  0.65850  0.65480  1.0000 0.1038638936
C   C394      1.0  0.74630  0.42130  0.15480  1.0000 0.1038638936
C   C395      1.0  0.53500  0.70110  0.70110  1.0000 0.0894208594
C   C396      1.0  0.75000  0.41610  0.20110  1.0000 0.0894208594
C   C397      1.0  0.53920  0.75540  0.73040  1.0000 -0.1509362844
C   C398      1.0  0.72500  0.44120  0.23040  1.0000 -0.1509362844
C   C399      1.0  0.49190  0.76710  0.71340  1.0000 -0.1191162456
C   C400      1.0  0.69630  0.47150  0.21340  1.0000 -0.1191162456
C   C401      1.0  0.44040  0.72440  0.66700  1.0000 -0.1191162456
C   C402      1.0  0.69260  0.47660  0.16700  1.0000 -0.1191162456
C   C403      1.0  0.43620  0.67020  0.63780  1.0000 -0.1509362844
C   C404      1.0  0.71760  0.45160  0.13780  1.0000 -0.1509362844
C   C405      1.0  0.66730  0.44170  0.58700  1.0000 0.1106088876
C   C406      1.0  0.89530  0.16970  0.08700  1.0000 0.1106088876
C   C407      1.0  0.66820  0.43670  0.63230  1.0000 0.0894208594
C   C408      1.0  0.94560  0.21410  0.13230  1.0000 0.0894208594
C   C409      1.0  0.68990  0.40130  0.64580  1.0000 -0.1509362844
C   C410      1.0  0.99450  0.20590  0.14580  1.0000 -0.1509362844
C   C411      1.0  0.71080  0.37100  0.61400  1.0000 -0.1099670922
C   C412      1.0  0.99300  0.15320  0.11400  1.0000 -0.1099670922
C   C413      1.0  0.71000  0.37600  0.56880  1.0000 -0.0998487584
C   C414      1.0  0.94280  0.10880  0.06880  1.0000 -0.0998487584
C   C415      1.0  0.68820  0.41140  0.55520  1.0000 -0.1509362844
C   C416      1.0  0.89380  0.11700  0.05520  1.0000 -0.1509362844
N   N1        1.0  0.70960  0.72280  0.46700  1.0000 -0.1790730824
N   N2        1.0  0.49420  0.00740  0.96700  1.0000 -0.1790730824
N   N3        1.0  0.73480  0.77710  0.50990  1.0000 -0.018328696
N   N4        1.0  0.48280  0.02510  0.00990  1.0000 -0.018328696
N   N5        1.0  0.79190  0.79350  0.54400  1.0000 -0.2273036085
N   N6        1.0  0.50050  0.00210  0.04400  1.0000 -0.2273036085
N   N7        1.0  0.63540  0.90950  0.58950  1.0000 -0.1987639413
N   N8        1.0  0.43000  0.20410  0.08950  1.0000 -0.1987639413
N   N9        1.0  0.65000  0.89610  0.54850  1.0000 -0.0119026397
N   N10       1.0  0.40240  0.14850  0.04850  1.0000 -0.0119026397
N   N11       1.0  0.63800  0.92470  0.52190  1.0000 -0.1987639413
N   N12       1.0  0.34720  0.13390  0.02190  1.0000 -0.1987639413
N   N13       1.0  0.80670  0.90560  0.55630  1.0000 -0.2273036085
N   N14       1.0  0.40070  0.99960  0.05630  1.0000 -0.2273036085
N   N15       1.0  0.75120  0.89520  0.52960  1.0000 -0.0302236827
N   N16       1.0  0.38440  0.02840  0.02960  1.0000 -0.0302236827
N   N17       1.0  0.73480  0.91810  0.49590  1.0000 -0.2191833651
N   N18       1.0  0.32780  0.01110  0.99590  1.0000 -0.2191833651
N   N19       1.0  0.61550  0.72280  0.48890  1.0000 -0.2191833651
N   N20       1.0  0.51610  0.12340  0.98890  1.0000 -0.2191833651
N   N21       1.0  0.63730  0.77870  0.53100  1.0000 -0.018328696
N   N22       1.0  0.50230  0.14370  0.03100  1.0000 -0.018328696
N   N23       1.0  0.62630  0.79200  0.57490  1.0000 -0.2106967459
N   N24       1.0  0.53290  0.19860  0.07490  1.0000 -0.2106967459
N   N25       1.0  0.60850  0.73980  0.38190  1.0000 -0.2106967459
N   N26       1.0  0.39210  0.02340  0.88190  1.0000 -0.2106967459
N   N27       1.0  0.63240  0.79550  0.42670  1.0000 -0.0119026397
N   N28       1.0  0.38120  0.04430  0.92670  1.0000 -0.018328696
N   N29       1.0  0.61740  0.82430  0.39990  1.0000 -0.2106967459
N   N30       1.0  0.32560  0.03250  0.89990  1.0000 -0.2106967459
N   N31       1.0  0.80920  0.89470  0.66430  1.0000 -0.2106967459
N   N32       1.0  0.51960  0.10510  0.16430  1.0000 -0.2106967459
N   N33       1.0  0.75270  0.88140  0.63410  1.0000 -0.0302236827
N   N34       1.0  0.50270  0.13140  0.13410  1.0000 -0.0302236827
N   N35       1.0  0.73630  0.89520  0.67370  1.0000 -0.1987639413
N   N36       1.0  0.52850  0.18740  0.17370  1.0000 -0.1987639413
N   N37       1.0  0.44750  0.88140  0.71730  1.0000 -0.5006354901
N   N38       1.0  0.58590  0.51980  0.21730  1.0000 -0.5006354901
N   N39       1.0  0.48790  0.94500  0.31630  1.0000 -0.472877294
N   N40       1.0  0.12130  0.07840  0.81630  1.0000 -0.472877294
N   N41       1.0  0.25580  0.24260  0.53300  1.0000 -0.1790730824
N   N42       1.0  0.04040  0.52720  0.03300  1.0000 -0.1790730824
N   N43       1.0  0.26720  0.22490  0.49010  1.0000 -0.018328696
N   N44       1.0  0.01520  0.47290  0.99010  1.0000 -0.018328696
N   N45       1.0  0.24950  0.24790  0.45600  1.0000 -0.2273036085
N   N46       1.0  0.95810  0.45650  0.95600  1.0000 -0.2273036085
N   N47       1.0  0.32000  0.04590  0.41050  1.0000 -0.1987639413
N   N48       1.0  0.11460  0.34050  0.91050  1.0000 -0.1987639413
N   N49       1.0  0.34760  0.10150  0.45150  1.0000 -0.0119026397
N   N50       1.0  0.10000  0.35390  0.95150  1.0000 -0.0119026397
N   N51       1.0  0.40280  0.11610  0.47810  1.0000 -0.1987639413
N   N52       1.0  0.11200  0.32530  0.97810  1.0000 -0.1987639413
N   N53       1.0  0.34930  0.25040  0.44370  1.0000 -0.2273036085
N   N54       1.0  0.94330  0.34440  0.94370  1.0000 -0.2273036085
N   N55       1.0  0.36560  0.22160  0.47040  1.0000 -0.0302236827
N   N56       1.0  0.99880  0.35480  0.97040  1.0000 -0.0302236827
N   N57       1.0  0.42220  0.23890  0.50410  1.0000 -0.2191833651
N   N58       1.0  0.01520  0.33190  0.00410  1.0000 -0.2191833651
N   N59       1.0  0.23390  0.12660  0.51110  1.0000 -0.2191833651
N   N60       1.0  0.13450  0.52720  0.01110  1.0000 -0.2191833651
N   N61       1.0  0.24770  0.10630  0.46900  1.0000 -0.018328696
N   N62       1.0  0.11270  0.47130  0.96900  1.0000 -0.018328696
N   N63       1.0  0.21710  0.05140  0.42510  1.0000 -0.2106967459
N   N64       1.0  0.12370  0.45800  0.92510  1.0000 -0.2106967459
N   N65       1.0  0.35790  0.22660  0.61810  1.0000 -0.2106967459
N   N66       1.0  0.14150  0.51020  0.11810  1.0000 -0.2106967459
N   N67       1.0  0.36880  0.20570  0.57330  1.0000 -0.0119026397
N   N68       1.0  0.11760  0.45450  0.07330  1.0000 -0.0119026397
N   N69       1.0  0.42440  0.21750  0.60010  1.0000 -0.2106967459
N   N70       1.0  0.13260  0.42570  0.10010  1.0000 -0.2106967459
N   N71       1.0  0.23040  0.14490  0.33570  1.0000 -0.2106967459
N   N72       1.0  0.94080  0.35530  0.83570  1.0000 -0.2106967459
N   N73       1.0  0.24730  0.11860  0.36590  1.0000 -0.0302236827
N   N74       1.0  0.99730  0.36860  0.86590  1.0000 -0.0302236827
N   N75       1.0  0.22150  0.06260  0.32630  1.0000 -0.1987639413
N   N76       1.0  0.01370  0.35480  0.82630  1.0000 -0.1987639413
N   N77       1.0  0.16410  0.73020  0.28270  1.0000 -0.5006354901
N   N78       1.0  0.30250  0.36860  0.78270  1.0000 -0.5006354901
N   N79       1.0  0.62870  0.17160  0.68370  1.0000 -0.472877294
N   N80       1.0  0.26210  0.30500  0.18370  1.0000 -0.472877294
N   N81       1.0  0.99260  0.95960  0.48680  1.0000 -0.1790730824
N   N82       1.0  0.27720  0.74420  0.98680  1.0000 -0.1790730824
N   N83       1.0  0.97490  0.98480  0.45770  1.0000 -0.018328696
N   N84       1.0  0.22290  0.73280  0.95770  1.0000 -0.018328696
N   N85       1.0  0.99790  0.04190  0.49840  1.0000 -0.2273036085
N   N86       1.0  0.20650  0.75050  0.99840  1.0000 -0.2273036085
N   N87       1.0  0.79590  0.88540  0.22590  1.0000 -0.1987639413
N   N88       1.0  0.09050  0.68000  0.72590  1.0000 -0.1987639413
N   N89       1.0  0.85150  0.90000  0.25390  1.0000 -0.0119026397
N   N90       1.0  0.10390  0.65240  0.75390  1.0000 -0.0119026397
N   N91       1.0  0.86610  0.88800  0.21330  1.0000 -0.1987639413
N   N92       1.0  0.07530  0.59720  0.71330  1.0000 -0.1987639413
N   N93       1.0  0.00040  0.05670  0.40110  1.0000 -0.2273036085
N   N94       1.0  0.09440  0.65070  0.90110  1.0000 -0.2273036085
N   N95       1.0  0.97160  0.00120  0.35600  1.0000 -0.0302236827
N   N96       1.0  0.10480  0.63440  0.85600  1.0000 -0.0302236827
N   N97       1.0  0.98890  0.98480  0.31670  1.0000 -0.2191833651
N   N98       1.0  0.08190  0.57780  0.81670  1.0000 -0.2191833651
N   N99       1.0  0.87660  0.86550  0.39270  1.0000 -0.2191833651
N   N100      1.0  0.27720  0.76610  0.89270  1.0000 -0.2191833651
N   N101      1.0  0.85630  0.88730  0.35860  1.0000 -0.018328696
N   N102      1.0  0.22130  0.75230  0.85860  1.0000 -0.018328696
N   N103      1.0  0.80140  0.87630  0.33430  1.0000 -0.2106967459
N   N104      1.0  0.20800  0.78290  0.83430  1.0000 -0.2106967459
N   N105      1.0  0.97660  0.85850  0.36870  1.0000 -0.2106967459
N   N106      1.0  0.26020  0.64210  0.86870  1.0000 -0.2106967459
N   N107      1.0  0.95570  0.88240  0.33690  1.0000 -0.0119026397
N   N108      1.0  0.20450  0.63120  0.83690  1.0000 -0.0119026397
N   N109      1.0  0.96750  0.86740  0.29310  1.0000 -0.2106967459
N   N110      1.0  0.17570  0.57560  0.79310  1.0000 -0.2106967459
N   N111      1.0  0.89490  0.05920  0.41450  1.0000 -0.2106967459
N   N112      1.0  0.10530  0.76960  0.91450  1.0000 -0.2106967459
N   N113      1.0  0.86860  0.00270  0.37130  1.0000 -0.0302236827
N   N114      1.0  0.11860  0.75270  0.87130  1.0000 -0.0302236827
N   N115      1.0  0.81260  0.98630  0.34110  1.0000 -0.1987639413
N   N116      1.0  0.10480  0.77850  0.84110  1.0000 -0.1987639413
N   N117      1.0  0.48020  0.69750  0.06610  1.0000 -0.5006354901
N   N118      1.0  0.11860  0.83590  0.56610  1.0000 -0.5006354901
N   N119      1.0  0.92160  0.73790  0.04290  1.0000 -0.472877294
N   N120      1.0  0.05500  0.37130  0.54290  1.0000 -0.472877294
N   N121      1.0  0.47280  0.50580  0.51320  1.0000 -0.1790730824
N   N122      1.0  0.75740  0.29040  0.01320  1.0000 -0.1790730824
N   N123      1.0  0.52710  0.51720  0.54230  1.0000 -0.018328696
N   N124      1.0  0.77510  0.26520  0.04230  1.0000 -0.018328696
N   N125      1.0  0.54350  0.49950  0.50160  1.0000 -0.2273036085
N   N126      1.0  0.75210  0.20810  0.00160  1.0000 -0.2273036085
N   N127      1.0  0.65950  0.57000  0.77410  1.0000 -0.1987639413
N   N128      1.0  0.95410  0.36460  0.27410  1.0000 -0.1987639413
N   N129      1.0  0.64610  0.59760  0.74610  1.0000 -0.0119026397
N   N130      1.0  0.89850  0.35000  0.24610  1.0000 -0.0119026397
N   N131      1.0  0.67470  0.65280  0.78670  1.0000 -0.1987639413
N   N132      1.0  0.88390  0.36200  0.28670  1.0000 -0.1987639413
N   N133      1.0  0.65560  0.59930  0.59890  1.0000 -0.2273036085
N   N134      1.0  0.74960  0.19330  0.09890  1.0000 -0.2273036085
N   N135      1.0  0.64520  0.61560  0.64400  1.0000 -0.0302236827
N   N136      1.0  0.77840  0.24880  0.14400  1.0000 -0.0302236827
N   N137      1.0  0.66810  0.67220  0.68330  1.0000 -0.2191833651
N   N138      1.0  0.76110  0.26520  0.18330  1.0000 -0.2191833651
N   N139      1.0  0.47280  0.48390  0.60730  1.0000 -0.2191833651
N   N140      1.0  0.87340  0.38450  0.10730  1.0000 -0.2191833651
N   N141      1.0  0.52870  0.49770  0.64140  1.0000 -0.018328696
N   N142      1.0  0.89370  0.36270  0.14140  1.0000 -0.018328696
N   N143      1.0  0.54200  0.46710  0.66570  1.0000 -0.2106967459
N   N144      1.0  0.94860  0.37370  0.16570  1.0000 -0.2106967459
N   N145      1.0  0.48980  0.60790  0.63130  1.0000 -0.2106967459
N   N146      1.0  0.77340  0.39150  0.13130  1.0000 -0.2106967459
N   N147      1.0  0.54550  0.61880  0.66310  1.0000 -0.0119026397
N   N148      1.0  0.79430  0.36760  0.16310  1.0000 -0.0119026397
N   N149      1.0  0.57430  0.67440  0.70690  1.0000 -0.2106967459
N   N150      1.0  0.78250  0.38260  0.20690  1.0000 -0.2106967459
N   N151      1.0  0.64470  0.48040  0.58550  1.0000 -0.2106967459
N   N152      1.0  0.85510  0.19080  0.08550  1.0000 -0.2106967459
N   N153      1.0  0.63140  0.49730  0.62870  1.0000 -0.0302236827
N   N154      1.0  0.88140  0.24730  0.12870  1.0000 -0.0302236827
N   N155      1.0  0.64520  0.47150  0.65890  1.0000 -0.1987639413
N   N156      1.0  0.93740  0.26370  0.15890  1.0000 -0.1987639413
N   N157      1.0  0.63140  0.41410  0.93390  1.0000 -0.5006354901
N   N158      1.0  0.26980  0.55250  0.43390  1.0000 -0.5006354901
N   N159      1.0  0.69500  0.87870  0.95710  1.0000 -0.472877294
N   N160      1.0  0.82840  0.51210  0.45710  1.0000 -0.472877294
O   O1        1.0  0.65140  0.91830  0.71610  1.0000 -0.5114701541
O   O2        1.0  0.54780  0.31470  0.21610  1.0000 -0.5114701541
O   O3        1.0  0.56880  0.85920  0.63480  1.0000 -0.4414198624
O   O4        1.0  0.52560  0.31600  0.13480  1.0000 -0.4414198624
O   O5        1.0  0.54150  0.03570  0.89400  1.0000 -0.5114701541
O   O6        1.0  0.60830  0.60250  0.39400  1.0000 -0.5114701541
O   O7        1.0  0.45900  0.96620  0.82380  1.0000 -0.5364824014
O   O8        1.0  0.60760  0.61480  0.32380  1.0000 -0.5364824014
O   O9        1.0  0.64450  0.93510  0.39340  1.0000 -0.5364824014
O   O10       1.0  0.20830  0.99890  0.89340  1.0000 -0.5364824014
O   O11       1.0  0.56810  0.92820  0.39690  1.0000 -0.5273928793
O   O12       1.0  0.21870  0.07880  0.89690  1.0000 -0.5273928793
O   O13       1.0  0.53670  0.99300  0.16430  1.0000 -0.5114701541
O   O14       1.0  0.92130  0.87760  0.66430  1.0000 -0.5114701541
O   O15       1.0  0.46870  0.00390  0.17460  1.0000 -0.4492311927
O   O16       1.0  0.92070  0.95590  0.67460  1.0000 -0.4492311927
O   O17       1.0  0.20220  0.93530  0.28390  1.0000 -0.5114701541
O   O18       1.0  0.09860  0.33170  0.78390  1.0000 -0.5114701541
O   O19       1.0  0.22440  0.93400  0.36520  1.0000 -0.4414198624
O   O20       1.0  0.18120  0.39080  0.86520  1.0000 -0.4414198624
O   O21       1.0  0.14170  0.64750  0.10600  1.0000 -0.5114701541
O   O22       1.0  0.20850  0.21430  0.60600  1.0000 -0.5114701541
O   O23       1.0  0.14240  0.63520  0.17620  1.0000 -0.5364824014
O   O24       1.0  0.29100  0.28380  0.67620  1.0000 -0.5364824014
O   O25       1.0  0.54170  0.25110  0.60660  1.0000 -0.5364824014
O   O26       1.0  0.10550  0.31490  0.10660  1.0000 -0.5364824014
O   O27       1.0  0.53130  0.17120  0.60310  1.0000 -0.5273928793
O   O28       1.0  0.18190  0.32180  0.10310  1.0000 -0.5273928793
O   O29       1.0  0.82870  0.37240  0.83570  1.0000 -0.5114701541
O   O30       1.0  0.21330  0.25700  0.33570  1.0000 -0.5114701541
O   O31       1.0  0.82930  0.29410  0.82540  1.0000 -0.4492311927
O   O32       1.0  0.28130  0.24610  0.32540  1.0000 -0.4492311927
O   O33       1.0  0.68530  0.90140  0.23310  1.0000 -0.5114701541
O   O34       1.0  0.08170  0.79780  0.73310  1.0000 -0.5114701541
O   O35       1.0  0.68400  0.81880  0.20960  1.0000 -0.4414198624
O   O36       1.0  0.14080  0.77560  0.70960  1.0000 -0.4414198624
O   O37       1.0  0.39750  0.79150  0.00580  1.0000 -0.5114701541
O   O38       1.0  0.96430  0.85830  0.50580  1.0000 -0.5114701541
O   O39       1.0  0.38520  0.70900  0.99280  1.0000 -0.5364824014
O   O40       1.0  0.03380  0.85760  0.49280  1.0000 -0.5364824014
O   O41       1.0  0.00110  0.89450  0.20940  1.0000 -0.5364824014
O   O42       1.0  0.06490  0.45830  0.70940  1.0000 -0.5364824014
O   O43       1.0  0.92120  0.81810  0.13990  1.0000 -0.5273928793
O   O44       1.0  0.07180  0.46870  0.63990  1.0000 -0.5273928793
O   O45       1.0  0.12240  0.78670  0.04370  1.0000 -0.5114701541
O   O46       1.0  0.00700  0.17130  0.54370  1.0000 -0.5114701541
O   O47       1.0  0.04410  0.71870  0.96480  1.0000 -0.4492311927
O   O48       1.0  0.99610  0.17070  0.46480  1.0000 -0.4492311927
O   O49       1.0  0.66830  0.45220  0.76690  1.0000 -0.5114701541
O   O50       1.0  0.06470  0.34860  0.26690  1.0000 -0.5114701541
O   O51       1.0  0.60920  0.47440  0.79040  1.0000 -0.4414198624
O   O52       1.0  0.06600  0.43120  0.29040  1.0000 -0.4414198624
O   O53       1.0  0.78570  0.39170  0.99420  1.0000 -0.5114701541
O   O54       1.0  0.35250  0.45850  0.49420  1.0000 -0.5114701541
O   O55       1.0  0.71620  0.39240  0.00720  1.0000 -0.5364824014
O   O56       1.0  0.36480  0.54100  0.50720  1.0000 -0.5364824014
O   O57       1.0  0.68510  0.79170  0.79060  1.0000 -0.5364824014
O   O58       1.0  0.74890  0.35550  0.29060  1.0000 -0.5364824014
O   O59       1.0  0.67820  0.78130  0.86010  1.0000 -0.5273928793
O   O60       1.0  0.82880  0.43190  0.36010  1.0000 -0.5273928793
O   O61       1.0  0.74300  0.07870  0.95630  1.0000 -0.5114701541
O   O62       1.0  0.62760  0.46330  0.45630  1.0000 -0.5114701541
O   O63       1.0  0.75390  0.07930  0.03520  1.0000 -0.4492311927
O   O64       1.0  0.70590  0.53130  0.53520  1.0000 -0.4492311927
