# DDEC6 charges by PACMAN v1.1 (https://github.com/mtap-research/PACMAN-charge/)
data_2009[Eu][sxb]3[ASR]2
_chemical_formula_sum              "Eu8 H72 C168 S12 O72"
_cell_length_a       19.0421
_cell_length_b       19.0421
_cell_length_c       30.1429
_cell_angle_alpha    82.2884
_cell_angle_beta     97.7116
_cell_angle_gamma    133.879

_symmetry_space_group_name_H-M    "P 1"
_symmetry_Int_Tables_number       1

loop_
  _symmetry_equiv_pos_as_xyz
  'x, y, z'

loop_
  _atom_site_type_symbol
  _atom_site_label
  _atom_site_symmetry_multiplicity
  _atom_site_fract_x
  _atom_site_fract_y
  _atom_site_fract_z
  _atom_site_occupancy
  _atom_site_charge
Eu  Eu1       1.0  0.63811  0.22035  0.85728  1.0000 2.096111806
Eu  Eu2       1.0  0.77965  0.36189  0.35728  1.0000 2.096111806
Eu  Eu3       1.0  0.55418  0.38234  0.84302  1.0000 2.0713008362
Eu  Eu4       1.0  0.61766  0.44582  0.34302  1.0000 2.0713008362
Eu  Eu5       1.0  0.22035  0.63811  0.64272  1.0000 2.096111806
Eu  Eu6       1.0  0.36189  0.77965  0.14272  1.0000 2.096111806
Eu  Eu7       1.0  0.38234  0.55418  0.65698  1.0000 2.0713008362
Eu  Eu8       1.0  0.44582  0.61766  0.15698  1.0000 2.0713008362
H   H1        1.0  0.59750  0.40890  0.68920  1.0000 0.1388367484
H   H2        1.0  0.59110  0.40250  0.18920  1.0000 0.1388367484
H   H3        1.0  0.57350  0.18110  0.71960  1.0000 0.1282916558
H   H4        1.0  0.81890  0.42650  0.21960  1.0000 0.1282916558
H   H5        1.0  0.57970  0.17170  0.64490  1.0000 0.1201183641
H   H6        1.0  0.82830  0.42030  0.14490  1.0000 0.1201183641
H   H7        1.0  0.60610  0.19250  0.56350  1.0000 0.1201183641
H   H8        1.0  0.80750  0.39390  0.06350  1.0000 0.1201183641
H   H9        1.0  0.66040  0.46080  0.49500  1.0000 0.1458527538
H   H10       1.0  0.53920  0.33960  0.99500  1.0000 0.1458527538
H   H11       1.0  0.64240  0.23940  0.48910  1.0000 0.1201183641
H   H12       1.0  0.76060  0.35760  0.98910  1.0000 0.1201183641
H   H13       1.0  0.23800  0.08760  0.84530  1.0000 0.1388367484
H   H14       1.0  0.91240  0.76200  0.34530  1.0000 0.1388367484
H   H15       1.0  0.34630  0.96590  0.85200  1.0000 0.1388367484
H   H16       1.0  0.03410  0.65370  0.35200  1.0000 0.1388367484
H   H17       1.0  0.08290  0.93930  0.84430  1.0000 0.1201183641
H   H18       1.0  0.06070  0.91710  0.34430  1.0000 0.1201183641
H   H19       1.0  0.92440  0.76240  0.84890  1.0000 0.1201183641
H   H20       1.0  0.23760  0.07560  0.34890  1.0000 0.1201183641
H   H21       1.0  0.79310  0.59430  0.85210  1.0000 0.1201183641
H   H22       1.0  0.40570  0.20690  0.35210  1.0000 0.1201183641
H   H23       1.0  0.97260  0.55160  0.85840  1.0000 0.1388367484
H   H24       1.0  0.44840  0.02740  0.35840  1.0000 0.1388367484
H   H25       1.0  0.92160  0.25780  0.89870  1.0000 0.1388367484
H   H26       1.0  0.74220  0.07840  0.39870  1.0000 0.1388367484
H   H27       1.0  0.87760  0.28160  0.76590  1.0000 0.1282916558
H   H28       1.0  0.71840  0.12240  0.26590  1.0000 0.1282916558
H   H29       1.0  0.01678  0.31658  0.75340  1.0000 0.1201183641
H   H30       1.0  0.68342  0.98322  0.25340  1.0000 0.1201183641
H   H31       1.0  0.16870  0.34790  0.75290  1.0000 0.1201183641
H   H32       1.0  0.65210  0.83130  0.25290  1.0000 0.1201183641
H   H33       1.0  0.27990  0.33150  0.89770  1.0000 0.1458527538
H   H34       1.0  0.66850  0.72010  0.39770  1.0000 0.1458527538
H   H35       1.0  0.30680  0.37360  0.76410  1.0000 0.1282916558
H   H36       1.0  0.62640  0.69320  0.26410  1.0000 0.1282916558
H   H37       1.0  0.40890  0.59750  0.81080  1.0000 0.1388367484
H   H38       1.0  0.40250  0.59110  0.31080  1.0000 0.1388367484
H   H39       1.0  0.18110  0.57350  0.78040  1.0000 0.1282916558
H   H40       1.0  0.42650  0.81890  0.28040  1.0000 0.1282916558
H   H41       1.0  0.17170  0.57970  0.85510  1.0000 0.1201183641
H   H42       1.0  0.42030  0.82830  0.35510  1.0000 0.1201183641
H   H43       1.0  0.19250  0.60610  0.93650  1.0000 0.1201183641
H   H44       1.0  0.39390  0.80750  0.43650  1.0000 0.1201183641
H   H45       1.0  0.46080  0.66040  0.00500  1.0000 0.1458527538
H   H46       1.0  0.33960  0.53920  0.50500  1.0000 0.1458527538
H   H47       1.0  0.23940  0.64240  0.01090  1.0000 0.1201183641
H   H48       1.0  0.35760  0.76060  0.51090  1.0000 0.1201183641
H   H49       1.0  0.08760  0.23800  0.65470  1.0000 0.1388367484
H   H50       1.0  0.76200  0.91240  0.15470  1.0000 0.1388367484
H   H51       1.0  0.96590  0.34630  0.64800  1.0000 0.1388367484
H   H52       1.0  0.65370  0.03410  0.14800  1.0000 0.1388367484
H   H53       1.0  0.93930  0.08290  0.65570  1.0000 0.1201183641
H   H54       1.0  0.91710  0.06070  0.15570  1.0000 0.1201183641
H   H55       1.0  0.76240  0.92440  0.65110  1.0000 0.1201183641
H   H56       1.0  0.07560  0.23760  0.15110  1.0000 0.1201183641
H   H57       1.0  0.59430  0.79310  0.64790  1.0000 0.1201183641
H   H58       1.0  0.20690  0.40570  0.14790  1.0000 0.1201183641
H   H59       1.0  0.55160  0.97260  0.64160  1.0000 0.1388367484
H   H60       1.0  0.02740  0.44840  0.14160  1.0000 0.1388367484
H   H61       1.0  0.25780  0.92160  0.60130  1.0000 0.1388367484
H   H62       1.0  0.07840  0.74220  0.10130  1.0000 0.1388367484
H   H63       1.0  0.28160  0.87760  0.73410  1.0000 0.1282916558
H   H64       1.0  0.12240  0.71840  0.23410  1.0000 0.1282916558
H   H65       1.0  0.31658  0.01678  0.74660  1.0000 0.1201183641
H   H66       1.0  0.98322  0.68342  0.24660  1.0000 0.1201183641
H   H67       1.0  0.34790  0.16870  0.74710  1.0000 0.1201183641
H   H68       1.0  0.83130  0.65210  0.24710  1.0000 0.1201183641
H   H69       1.0  0.33150  0.27990  0.60230  1.0000 0.1458527538
H   H70       1.0  0.72010  0.66850  0.10230  1.0000 0.1458527538
H   H71       1.0  0.37360  0.30680  0.73590  1.0000 0.1282916558
H   H72       1.0  0.69320  0.62640  0.23590  1.0000 0.1282916558
C   C1        1.0  0.58089  0.29911  0.76120  1.0000 0.6476844865
C   C2        1.0  0.70089  0.41911  0.26120  1.0000 0.6476844865
C   C3        1.0  0.58498  0.29522  0.71213  1.0000 -0.0212612536
C   C4        1.0  0.70478  0.41502  0.21213  1.0000 -0.0212612536
C   C5        1.0  0.59550  0.36230  0.68073  1.0000 -0.1089551249
C   C6        1.0  0.63770  0.40450  0.18073  1.0000 -0.1089551249
C   C7        1.0  0.58024  0.22536  0.69837  1.0000 -0.0886628132
C   C8        1.0  0.77464  0.41976  0.19837  1.0000 -0.0886628132
C   C9        1.0  0.60277  0.35703  0.63688  1.0000 -0.1004638204
C   C10       1.0  0.64297  0.39723  0.13688  1.0000 -0.1004638204
C   C11       1.0  0.58540  0.22040  0.65378  1.0000 -0.1165778433
C   C12       1.0  0.77960  0.41460  0.15378  1.0000 -0.1165778433
C   C13       1.0  0.59883  0.28777  0.62275  1.0000 0.0516629293
C   C14       1.0  0.71223  0.40117  0.12275  1.0000 0.0516629293
C   C15       1.0  0.61446  0.30154  0.57442  1.0000 0.0516629293
C   C16       1.0  0.69846  0.38554  0.07442  1.0000 0.0516629293
C   C17       1.0  0.63020  0.38000  0.55316  1.0000 -0.0886628132
C   C18       1.0  0.62000  0.36980  0.05316  1.0000 -0.0886628132
C   C19       1.0  0.61796  0.24664  0.55011  1.0000 -0.1089551249
C   C20       1.0  0.75336  0.38204  0.05011  1.0000 -0.1089551249
C   C21       1.0  0.65113  0.40827  0.50866  1.0000 -0.1004638204
C   C22       1.0  0.59173  0.34887  0.00866  1.0000 -0.1004638204
C   C23       1.0  0.63971  0.27509  0.50568  1.0000 -0.0886628132
C   C24       1.0  0.72491  0.36029  0.00568  1.0000 -0.0886628132
C   C25       1.0  0.65782  0.35558  0.48504  1.0000 -0.0212612536
C   C26       1.0  0.64442  0.34218  0.98504  1.0000 -0.0212612536
C   C27       1.0  0.68785  0.38635  0.43704  1.0000 0.6476844865
C   C28       1.0  0.61365  0.31215  0.93704  1.0000 0.6476844865
C   C29       1.0  0.40882  0.14338  0.84902  1.0000 0.6419264096
C   C30       1.0  0.85662  0.59118  0.34902  1.0000 0.6419264096
C   C31       1.0  0.30755  0.04265  0.84839  1.0000 -0.0212612536
C   C32       1.0  0.95735  0.69245  0.34839  1.0000 -0.0212612536
C   C33       1.0  0.22754  0.03186  0.84660  1.0000 -0.0886628132
C   C34       1.0  0.96814  0.77246  0.34660  1.0000 -0.0886628132
C   C35       1.0  0.29367  0.96053  0.85052  1.0000 -0.1089551249
C   C36       1.0  0.03947  0.70633  0.35052  1.0000 -0.1089551249
C   C37       1.0  0.13522  0.94418  0.84640  1.0000 -0.1289854348
C   C38       1.0  0.05582  0.86478  0.34640  1.0000 -0.1289854348
C   C39       1.0  0.19985  0.87155  0.85041  1.0000 -0.1004638204
C   C40       1.0  0.12845  0.80015  0.35041  1.0000 -0.1004638204
C   C41       1.0  0.12000  0.86000  0.84958  1.0000 0.0304659958
C   C42       1.0  0.14000  0.88000  0.34958  1.0000 0.0304659958
C   C43       1.0  0.02568  0.75632  0.85143  1.0000 0.021495894
C   C44       1.0  0.24368  0.97432  0.35143  1.0000 0.021495894
C   C45       1.0  0.93433  0.72067  0.85060  1.0000 -0.1401994527
C   C46       1.0  0.27933  0.06567  0.35060  1.0000 -0.1401994527
C   C47       1.0  0.03914  0.69286  0.85383  1.0000 -0.1004638204
C   C48       1.0  0.30714  0.96086  0.35383  1.0000 -0.1004638204
C   C49       1.0  0.85603  0.61977  0.85230  1.0000 -0.1004638204
C   C50       1.0  0.38023  0.14397  0.35230  1.0000 -0.1004638204
C   C51       1.0  0.96204  0.59296  0.85596  1.0000 -0.0886628132
C   C52       1.0  0.40704  0.03796  0.35596  1.0000 -0.0886628132
C   C53       1.0  0.86893  0.55587  0.85441  1.0000 -0.0212612536
C   C54       1.0  0.44413  0.13107  0.35441  1.0000 -0.0212612536
C   C55       1.0  0.78106  0.44814  0.85338  1.0000 0.6419264096
C   C56       1.0  0.55186  0.21894  0.35338  1.0000 0.6419264096
C   C57       1.0  0.79379  0.24101  0.84049  1.0000 0.56842673
C   C58       1.0  0.75899  0.20621  0.34049  1.0000 0.56842673
C   C59       1.0  0.88500  0.26480  0.83322  1.0000 0.0081703709
C   C60       1.0  0.73520  0.11500  0.33322  1.0000 0.0081703709
C   C61       1.0  0.93983  0.26897  0.86964  1.0000 -0.1004638204
C   C62       1.0  0.73103  0.06017  0.36964  1.0000 -0.1004638204
C   C63       1.0  0.91456  0.28344  0.79014  1.0000 -0.0808193256
C   C64       1.0  0.71656  0.08544  0.29014  1.0000 -0.0808193256
C   C65       1.0  0.02320  0.29040  0.86136  1.0000 -0.1089551249
C   C66       1.0  0.70960  0.97680  0.36136  1.0000 -0.1089551249
C   C67       1.0  0.99809  0.30471  0.78247  1.0000 -0.1401994527
C   C68       1.0  0.69529  0.00191  0.28247  1.0000 -0.1401994527
C   C69       1.0  0.05271  0.30769  0.81843  1.0000 0.040666216
C   C70       1.0  0.69231  0.94729  0.31843  1.0000 0.040666216
C   C71       1.0  0.14181  0.32559  0.81842  1.0000 0.040666216
C   C72       1.0  0.67441  0.85819  0.31842  1.0000 0.040666216
C   C73       1.0  0.17680  0.32080  0.86085  1.0000 -0.1089551249
C   C74       1.0  0.67920  0.82320  0.36085  1.0000 -0.1089551249
C   C75       1.0  0.19109  0.34491  0.78185  1.0000 -0.1289854348
C   C76       1.0  0.65509  0.80891  0.28185  1.0000 -0.1289854348
C   C77       1.0  0.25800  0.33460  0.86870  1.0000 -0.0808193256
C   C78       1.0  0.66540  0.74200  0.36870  1.0000 -0.0808193256
C   C79       1.0  0.27298  0.35942  0.78863  1.0000 -0.0886628132
C   C80       1.0  0.64058  0.72702  0.28863  1.0000 -0.0886628132
C   C81       1.0  0.30644  0.35336  0.83181  1.0000 0.0081703709
C   C82       1.0  0.64664  0.69356  0.33181  1.0000 0.0081703709
C   C83       1.0  0.39522  0.36778  0.83809  1.0000 0.56842673
C   C84       1.0  0.63222  0.60478  0.33809  1.0000 0.56842673
C   C85       1.0  0.29911  0.58089  0.73880  1.0000 0.6476844865
C   C86       1.0  0.41911  0.70089  0.23880  1.0000 0.6476844865
C   C87       1.0  0.29522  0.58498  0.78787  1.0000 -0.0212612536
C   C88       1.0  0.41502  0.70478  0.28787  1.0000 -0.0212612536
C   C89       1.0  0.36230  0.59550  0.81927  1.0000 -0.1089551249
C   C90       1.0  0.40450  0.63770  0.31927  1.0000 -0.1089551249
C   C91       1.0  0.22536  0.58024  0.80163  1.0000 -0.0886628132
C   C92       1.0  0.41976  0.77464  0.30163  1.0000 -0.0886628132
C   C93       1.0  0.35703  0.60277  0.86312  1.0000 -0.1004638204
C   C94       1.0  0.39723  0.64297  0.36312  1.0000 -0.1004638204
C   C95       1.0  0.22040  0.58540  0.84622  1.0000 -0.1165778433
C   C96       1.0  0.41460  0.77960  0.34622  1.0000 -0.1165778433
C   C97       1.0  0.28777  0.59883  0.87725  1.0000 0.0516629293
C   C98       1.0  0.40117  0.71223  0.37725  1.0000 0.0516629293
C   C99       1.0  0.30154  0.61446  0.92558  1.0000 0.0516629293
C   C100      1.0  0.38554  0.69846  0.42558  1.0000 0.0516629293
C   C101      1.0  0.38000  0.63020  0.94684  1.0000 -0.0886628132
C   C102      1.0  0.36980  0.62000  0.44684  1.0000 -0.0886628132
C   C103      1.0  0.24664  0.61796  0.94989  1.0000 -0.1089551249
C   C104      1.0  0.38204  0.75336  0.44989  1.0000 -0.1089551249
C   C105      1.0  0.40827  0.65113  0.99134  1.0000 -0.1004638204
C   C106      1.0  0.34887  0.59173  0.49134  1.0000 -0.1004638204
C   C107      1.0  0.27509  0.63971  0.99432  1.0000 -0.0886628132
C   C108      1.0  0.36029  0.72491  0.49432  1.0000 -0.0886628132
C   C109      1.0  0.35558  0.65782  0.01496  1.0000 -0.0212612536
C   C110      1.0  0.34218  0.64442  0.51496  1.0000 -0.0212612536
C   C111      1.0  0.38635  0.68785  0.06296  1.0000 0.6476844865
C   C112      1.0  0.31215  0.61365  0.56296  1.0000 0.6476844865
C   C113      1.0  0.14338  0.40882  0.65098  1.0000 0.6419264096
C   C114      1.0  0.59118  0.85662  0.15098  1.0000 0.6419264096
C   C115      1.0  0.04265  0.30755  0.65161  1.0000 -0.0212612536
C   C116      1.0  0.69245  0.95735  0.15161  1.0000 -0.0212612536
C   C117      1.0  0.03186  0.22754  0.65340  1.0000 -0.0886628132
C   C118      1.0  0.77246  0.96814  0.15340  1.0000 -0.0886628132
C   C119      1.0  0.96053  0.29367  0.64948  1.0000 -0.1089551249
C   C120      1.0  0.70633  0.03947  0.14948  1.0000 -0.1089551249
C   C121      1.0  0.94418  0.13522  0.65360  1.0000 -0.1289854348
C   C122      1.0  0.86478  0.05582  0.15360  1.0000 -0.1289854348
C   C123      1.0  0.87155  0.19985  0.64959  1.0000 -0.1004638204
C   C124      1.0  0.80015  0.12845  0.14959  1.0000 -0.1004638204
C   C125      1.0  0.86000  0.12000  0.65042  1.0000 0.0304659958
C   C126      1.0  0.88000  0.14000  0.15042  1.0000 0.0304659958
C   C127      1.0  0.75632  0.02568  0.64857  1.0000 0.021495894
C   C128      1.0  0.97432  0.24368  0.14857  1.0000 0.021495894
C   C129      1.0  0.72067  0.93433  0.64940  1.0000 -0.1401994527
C   C130      1.0  0.06567  0.27933  0.14940  1.0000 -0.1401994527
C   C131      1.0  0.69286  0.03914  0.64617  1.0000 -0.1004638204
C   C132      1.0  0.96086  0.30714  0.14617  1.0000 -0.1004638204
C   C133      1.0  0.61977  0.85603  0.64770  1.0000 -0.1004638204
C   C134      1.0  0.14397  0.38023  0.14770  1.0000 -0.1004638204
C   C135      1.0  0.59296  0.96204  0.64404  1.0000 -0.0886628132
C   C136      1.0  0.03796  0.40704  0.14404  1.0000 -0.0886628132
C   C137      1.0  0.55587  0.86893  0.64559  1.0000 -0.0212612536
C   C138      1.0  0.13107  0.44413  0.14559  1.0000 -0.0212612536
C   C139      1.0  0.44814  0.78106  0.64662  1.0000 0.6419264096
C   C140      1.0  0.21894  0.55186  0.14662  1.0000 0.6419264096
C   C141      1.0  0.24101  0.79379  0.65951  1.0000 0.56842673
C   C142      1.0  0.20621  0.75899  0.15951  1.0000 0.56842673
C   C143      1.0  0.26480  0.88500  0.66678  1.0000 0.0081703709
C   C144      1.0  0.11500  0.73520  0.16678  1.0000 0.0081703709
C   C145      1.0  0.26897  0.93983  0.63036  1.0000 -0.1004638204
C   C146      1.0  0.06017  0.73103  0.13036  1.0000 -0.1004638204
C   C147      1.0  0.28344  0.91456  0.70986  1.0000 -0.0808193256
C   C148      1.0  0.08544  0.71656  0.20986  1.0000 -0.0808193256
C   C149      1.0  0.29040  0.02320  0.63864  1.0000 -0.1089551249
C   C150      1.0  0.97680  0.70960  0.13864  1.0000 -0.1089551249
C   C151      1.0  0.30471  0.99809  0.71753  1.0000 -0.1401994527
C   C152      1.0  0.00191  0.69529  0.21753  1.0000 -0.1401994527
C   C153      1.0  0.30769  0.05271  0.68157  1.0000 0.040666216
C   C154      1.0  0.94729  0.69231  0.18157  1.0000 0.040666216
C   C155      1.0  0.32559  0.14181  0.68158  1.0000 0.040666216
C   C156      1.0  0.85819  0.67441  0.18158  1.0000 0.040666216
C   C157      1.0  0.32080  0.17680  0.63915  1.0000 -0.1089551249
C   C158      1.0  0.82320  0.67920  0.13915  1.0000 -0.1089551249
C   C159      1.0  0.34491  0.19109  0.71815  1.0000 -0.1289854348
C   C160      1.0  0.80891  0.65509  0.21815  1.0000 -0.1289854348
C   C161      1.0  0.33460  0.25800  0.63130  1.0000 -0.0808193256
C   C162      1.0  0.74200  0.66540  0.13130  1.0000 -0.0808193256
C   C163      1.0  0.35942  0.27298  0.71137  1.0000 -0.0886628132
C   C164      1.0  0.72702  0.64058  0.21137  1.0000 -0.0886628132
C   C165      1.0  0.35336  0.30644  0.66819  1.0000 0.0081703709
C   C166      1.0  0.69356  0.64664  0.16819  1.0000 0.0081703709
C   C167      1.0  0.36778  0.39522  0.66191  1.0000 0.56842673
C   C168      1.0  0.60478  0.63222  0.16191  1.0000 0.56842673
S   S1        1.0  0.62635  0.43925  0.59154  1.0000 0.9804657716
S   S2        1.0  0.56075  0.37365  0.09154  1.0000 0.9804657716
S   S3        1.0  0.16256  0.75674  0.85126  1.0000 0.9885723087
S   S4        1.0  0.24326  0.83744  0.35126  1.0000 0.9885723087
S   S5        1.0  0.10292  0.29628  0.90205  1.0000 0.9885723087
S   S6        1.0  0.70372  0.89708  0.40205  1.0000 0.9885723087
S   S7        1.0  0.43925  0.62635  0.90846  1.0000 0.9804657716
S   S8        1.0  0.37365  0.56075  0.40846  1.0000 0.9804657716
S   S9        1.0  0.75674  0.16256  0.64874  1.0000 0.9885723087
S   S10       1.0  0.83744  0.24326  0.14874  1.0000 0.9885723087
S   S11       1.0  0.29628  0.10292  0.59795  1.0000 0.9885723087
S   S12       1.0  0.89708  0.70372  0.09795  1.0000 0.9885723087
O   O1        1.0  0.56142  0.34518  0.77166  1.0000 -0.6478603464
O   O2        1.0  0.65482  0.43858  0.27166  1.0000 -0.6478603464
O   O3        1.0  0.59971  0.25749  0.78760  1.0000 -0.6828524452
O   O4        1.0  0.74251  0.40029  0.28760  1.0000 -0.6828524452
O   O5        1.0  0.54566  0.43214  0.58095  1.0000 -0.492960183
O   O6        1.0  0.56786  0.45434  0.08095  1.0000 -0.492960183
O   O7        1.0  0.72089  0.53471  0.59817  1.0000 -0.4743116778
O   O8        1.0  0.46529  0.27911  0.09817  1.0000 -0.4751879704
O   O9        1.0  0.67873  0.44127  0.41591  1.0000 -0.6606502614
O   O10       1.0  0.55873  0.32127  0.91591  1.0000 -0.6606502614
O   O11       1.0  0.71718  0.35302  0.42268  1.0000 -0.6606502614
O   O12       1.0  0.64698  0.28282  0.92268  1.0000 -0.6606502614
O   O13       1.0  0.41714  0.21428  0.83792  1.0000 -0.6426927429
O   O14       1.0  0.78572  0.58286  0.33792  1.0000 -0.6426927429
O   O15       1.0  0.47725  0.14843  0.86077  1.0000 -0.6904971582
O   O16       1.0  0.85157  0.52275  0.36077  1.0000 -0.6904971582
O   O17       1.0  0.17869  0.74251  0.80887  1.0000 -0.5213211012
O   O18       1.0  0.25749  0.82131  0.30887  1.0000 -0.5213211012
O   O19       1.0  0.19942  0.74018  0.89107  1.0000 -0.510674743
O   O20       1.0  0.25982  0.80058  0.39107  1.0000 -0.510674743
O   O21       1.0  0.69841  0.41935  0.84991  1.0000 -0.7567094844
O   O22       1.0  0.58065  0.30159  0.34991  1.0000 -0.7567094844
O   O23       1.0  0.79444  0.39204  0.85627  1.0000 -0.5811296982
O   O24       1.0  0.60796  0.20556  0.35627  1.0000 -0.5811296982
O   O25       1.0  0.76739  0.22181  0.87961  1.0000 -0.6606502614
O   O26       1.0  0.77819  0.23261  0.37961  1.0000 -0.6606502614
O   O27       1.0  0.74889  0.24471  0.80738  1.0000 -0.6193531138
O   O28       1.0  0.75529  0.25111  0.30738  1.0000 -0.6193531138
O   O29       1.0  0.05400  0.20280  0.92445  1.0000 -0.4743116778
O   O30       1.0  0.79720  0.94600  0.42445  1.0000 -0.4751879704
O   O31       1.0  0.15461  0.37679  0.92975  1.0000 -0.4998887164
O   O32       1.0  0.62321  0.84539  0.42975  1.0000 -0.4998887164
O   O33       1.0  0.41968  0.35312  0.87620  1.0000 -0.6193531138
O   O34       1.0  0.64688  0.58032  0.37620  1.0000 -0.6193531138
O   O35       1.0  0.44158  0.39282  0.80430  1.0000 -0.6478603464
O   O36       1.0  0.60718  0.55842  0.30430  1.0000 -0.6478603464
O   O37       1.0  0.34518  0.56142  0.72834  1.0000 -0.6478603464
O   O38       1.0  0.43858  0.65482  0.22834  1.0000 -0.6478603464
O   O39       1.0  0.25749  0.59971  0.71240  1.0000 -0.6828524452
O   O40       1.0  0.40029  0.74251  0.21240  1.0000 -0.6828524452
O   O41       1.0  0.43214  0.54566  0.91905  1.0000 -0.492960183
O   O42       1.0  0.45434  0.56786  0.41905  1.0000 -0.492960183
O   O43       1.0  0.53471  0.72089  0.90183  1.0000 -0.4743116778
O   O44       1.0  0.27911  0.46529  0.40183  1.0000 -0.4743116778
O   O45       1.0  0.44127  0.67873  0.08409  1.0000 -0.6606502614
O   O46       1.0  0.32127  0.55873  0.58409  1.0000 -0.6606502614
O   O47       1.0  0.35302  0.71718  0.07732  1.0000 -0.6606502614
O   O48       1.0  0.28282  0.64698  0.57732  1.0000 -0.6606502614
O   O49       1.0  0.21428  0.41714  0.66208  1.0000 -0.6426927429
O   O50       1.0  0.58286  0.78572  0.16208  1.0000 -0.6426927429
O   O51       1.0  0.14843  0.47725  0.63923  1.0000 -0.6904971582
O   O52       1.0  0.52275  0.85157  0.13923  1.0000 -0.6904971582
O   O53       1.0  0.74251  0.17869  0.69113  1.0000 -0.5213211012
O   O54       1.0  0.82131  0.25749  0.19113  1.0000 -0.5213211012
O   O55       1.0  0.74018  0.19942  0.60893  1.0000 -0.510674743
O   O56       1.0  0.80058  0.25982  0.10893  1.0000 -0.510674743
O   O57       1.0  0.41935  0.69841  0.65009  1.0000 -0.7567094844
O   O58       1.0  0.30159  0.58065  0.15009  1.0000 -0.7567094844
O   O59       1.0  0.39204  0.79444  0.64373  1.0000 -0.5811296982
O   O60       1.0  0.20556  0.60796  0.14373  1.0000 -0.5811296982
O   O61       1.0  0.22181  0.76739  0.62039  1.0000 -0.6606502614
O   O62       1.0  0.23261  0.77819  0.12039  1.0000 -0.6606502614
O   O63       1.0  0.24471  0.74889  0.69262  1.0000 -0.6193531138
O   O64       1.0  0.25111  0.75529  0.19262  1.0000 -0.6193531138
O   O65       1.0  0.20280  0.05400  0.57555  1.0000 -0.4751879704
O   O66       1.0  0.94600  0.79720  0.07555  1.0000 -0.4751879704
O   O67       1.0  0.37679  0.15461  0.57025  1.0000 -0.4998887164
O   O68       1.0  0.84539  0.62321  0.07025  1.0000 -0.4998887164
O   O69       1.0  0.35312  0.41968  0.62380  1.0000 -0.6193531138
O   O70       1.0  0.58032  0.64688  0.12380  1.0000 -0.6193531138
O   O71       1.0  0.39282  0.44158  0.69570  1.0000 -0.6478603464
O   O72       1.0  0.55842  0.60718  0.19570  1.0000 -0.6478603464
