# DDEC6 charges by PACMAN v1.1 (https://github.com/mtap-research/PACMAN-charge/)
data_2009[Co][pcu]3[ASR]1
_chemical_formula_sum              "Co8 H124 C156 N32 O24"
_cell_length_a       17.884
_cell_length_b       11.797
_cell_length_c       20.243
_cell_angle_alpha    90
_cell_angle_beta     111.77
_cell_angle_gamma    90

_symmetry_space_group_name_H-M    "P 1"
_symmetry_Int_Tables_number       1

loop_
  _symmetry_equiv_pos_as_xyz
  'x, y, z'

loop_
  _atom_site_type_symbol
  _atom_site_label
  _atom_site_symmetry_multiplicity
  _atom_site_fract_x
  _atom_site_fract_y
  _atom_site_fract_z
  _atom_site_occupancy
  _atom_site_charge
Co  Co1       1.0  0.48784  0.67272  0.74903  1.0000 0.8354766097
Co  Co2       1.0  0.51216  0.17272  0.75097  1.0000 0.8354766097
Co  Co3       1.0  0.51216  0.32728  0.25097  1.0000 0.8354766097
Co  Co4       1.0  0.48784  0.82728  0.24903  1.0000 0.8354766097
Co  Co5       1.0  0.49565  0.89205  0.94652  1.0000 0.7741386917
Co  Co6       1.0  0.50435  0.39205  0.55348  1.0000 0.7741386917
Co  Co7       1.0  0.50435  0.10795  0.05348  1.0000 0.7741386917
Co  Co8       1.0  0.49565  0.60795  0.44652  1.0000 0.7741386917
H   H1        1.0  0.49070  0.71020  0.59440  1.0000 0.1014664197
H   H2        1.0  0.50930  0.21020  0.90560  1.0000 0.1014664197
H   H3        1.0  0.50930  0.28980  0.40560  1.0000 0.1105788019
H   H4        1.0  0.49070  0.78980  0.09440  1.0000 0.1014664197
H   H5        1.0  0.48150  0.60260  0.89170  1.0000 0.1014664197
H   H6        1.0  0.51850  0.10260  0.60830  1.0000 0.1014664197
H   H7        1.0  0.51850  0.39740  0.10830  1.0000 0.1014664197
H   H8        1.0  0.48150  0.89740  0.39170  1.0000 0.1014664197
H   H9        1.0  0.51900  0.42590  0.73430  1.0000 0.1014664197
H   H10       1.0  0.48100  0.92590  0.76570  1.0000 0.1014664197
H   H11       1.0  0.48100  0.57410  0.26570  1.0000 0.1014664197
H   H12       1.0  0.51900  0.07410  0.23430  1.0000 0.1014664197
H   H13       1.0  0.33120  0.86670  0.96810  1.0000 0.1105788019
H   H14       1.0  0.66880  0.36670  0.53190  1.0000 0.1105788019
H   H15       1.0  0.66880  0.13330  0.03190  1.0000 0.1105788019
H   H16       1.0  0.33120  0.63330  0.46810  1.0000 0.1105788019
H   H17       1.0  0.35170  0.96750  0.79190  1.0000 0.1105788019
H   H18       1.0  0.64830  0.46750  0.70810  1.0000 0.1105788019
H   H19       1.0  0.64830  0.03250  0.20810  1.0000 0.1105788019
H   H20       1.0  0.35170  0.53250  0.29190  1.0000 0.1105788019
H   H21       1.0  0.20950  0.97650  0.77420  1.0000 0.1105788019
H   H22       1.0  0.79050  0.47650  0.72580  1.0000 0.1105788019
H   H23       1.0  0.79050  0.02350  0.22580  1.0000 0.1105788019
H   H24       1.0  0.20950  0.52350  0.27420  1.0000 0.1105788019
H   H25       1.0  0.11460  0.03790  0.82840  1.0000 0.1105788019
H   H26       1.0  0.88540  0.53790  0.67160  1.0000 0.1105788019
H   H27       1.0  0.88540  0.96210  0.17160  1.0000 0.1105788019
H   H28       1.0  0.11460  0.46210  0.32840  1.0000 0.1105788019
H   H29       1.0  0.99840  0.02640  0.85210  1.0000 0.1014664197
H   H30       1.0  0.00160  0.52640  0.64790  1.0000 0.1014664197
H   H31       1.0  0.00160  0.97360  0.14790  1.0000 0.1014664197
H   H32       1.0  0.99840  0.47360  0.35210  1.0000 0.1014664197
H   H33       1.0  0.08950  0.76520  0.98120  1.0000 0.1014664197
H   H34       1.0  0.91050  0.26520  0.51880  1.0000 0.1014664197
H   H35       1.0  0.91050  0.23480  0.01880  1.0000 0.1014664197
H   H36       1.0  0.08950  0.73480  0.48120  1.0000 0.1014664197
H   H37       1.0  0.20470  0.77410  0.95660  1.0000 0.1183426518
H   H38       1.0  0.79530  0.27410  0.54340  1.0000 0.1183426518
H   H39       1.0  0.79530  0.22590  0.04340  1.0000 0.1183426518
H   H40       1.0  0.20470  0.72590  0.45660  1.0000 0.1183426518
H   H41       1.0  0.65440  0.93770  0.90220  1.0000 0.1105788019
H   H42       1.0  0.34560  0.43770  0.59780  1.0000 0.1105788019
H   H43       1.0  0.34560  0.06230  0.09780  1.0000 0.1105788019
H   H44       1.0  0.65440  0.56230  0.40220  1.0000 0.1105788019
H   H45       1.0  0.64370  0.78540  0.06940  1.0000 0.1183426518
H   H46       1.0  0.35630  0.28540  0.43060  1.0000 0.1183426518
H   H47       1.0  0.35630  0.21460  0.93060  1.0000 0.1183426518
H   H48       1.0  0.64370  0.71460  0.56940  1.0000 0.1183426518
H   H49       1.0  0.78170  0.77040  0.07620  1.0000 0.1183426518
H   H50       1.0  0.21830  0.27040  0.42380  1.0000 0.1183426518
H   H51       1.0  0.21830  0.22960  0.92380  1.0000 0.1183426518
H   H52       1.0  0.78170  0.72960  0.57620  1.0000 0.1183426518
H   H53       1.0  0.87190  0.73660  0.02280  1.0000 0.1105788019
H   H54       1.0  0.12810  0.23660  0.47720  1.0000 0.1105788019
H   H55       1.0  0.12810  0.26340  0.97720  1.0000 0.1105788019
H   H56       1.0  0.87190  0.76340  0.52280  1.0000 0.1105788019
H   H57       1.0  0.98630  0.75130  0.99900  1.0000 0.1014664197
H   H58       1.0  0.01370  0.25130  0.50100  1.0000 0.1014664197
H   H59       1.0  0.01370  0.24870  0.00100  1.0000 0.1014664197
H   H60       1.0  0.98630  0.74870  0.49900  1.0000 0.1014664197
H   H61       1.0  0.89500  0.01770  0.87530  1.0000 0.1014664197
H   H62       1.0  0.10500  0.51770  0.62470  1.0000 0.1014664197
H   H63       1.0  0.10500  0.98230  0.12470  1.0000 0.1014664197
H   H64       1.0  0.89500  0.48230  0.37530  1.0000 0.1014664197
H   H65       1.0  0.78010  0.00380  0.90070  1.0000 0.1183426518
H   H66       1.0  0.21990  0.50380  0.59930  1.0000 0.1183426518
H   H67       1.0  0.21990  0.99620  0.09930  1.0000 0.1183426518
H   H68       1.0  0.78010  0.49620  0.40070  1.0000 0.1183426518
H   H69       1.0  0.65520  0.73910  0.73080  1.0000 0.1105788019
H   H70       1.0  0.34480  0.23910  0.76920  1.0000 0.1105788019
H   H71       1.0  0.34480  0.26090  0.26920  1.0000 0.1105788019
H   H72       1.0  0.65520  0.76090  0.23080  1.0000 0.1105788019
H   H73       1.0  0.63730  0.56210  0.88750  1.0000 0.1183426518
H   H74       1.0  0.36270  0.06210  0.61250  1.0000 0.1183426518
H   H75       1.0  0.36270  0.43790  0.11250  1.0000 0.1183426518
H   H76       1.0  0.63730  0.93790  0.38750  1.0000 0.1183426518
H   H77       1.0  0.77950  0.57280  0.90740  1.0000 0.1105788019
H   H78       1.0  0.22050  0.07280  0.59260  1.0000 0.1105788019
H   H79       1.0  0.22050  0.42720  0.09260  1.0000 0.1105788019
H   H80       1.0  0.77950  0.92720  0.40740  1.0000 0.1105788019
H   H81       1.0  0.88180  0.56430  0.86660  1.0000 0.1105788019
H   H82       1.0  0.11820  0.06430  0.63340  1.0000 0.1105788019
H   H83       1.0  0.11820  0.43570  0.13340  1.0000 0.1105788019
H   H84       1.0  0.88180  0.93570  0.36660  1.0000 0.1105788019
H   H85       1.0  0.99580  0.58480  0.84080  1.0000 0.1014664197
H   H86       1.0  0.00420  0.08480  0.65920  1.0000 0.1014664197
H   H87       1.0  0.00420  0.41520  0.15920  1.0000 0.1014664197
H   H88       1.0  0.99580  0.91520  0.34080  1.0000 0.1014664197
H   H89       1.0  0.88930  0.83230  0.70380  1.0000 0.1105788019
H   H90       1.0  0.11070  0.33230  0.79620  1.0000 0.1105788019
H   H91       1.0  0.11070  0.16770  0.29620  1.0000 0.1105788019
H   H92       1.0  0.88930  0.66770  0.20380  1.0000 0.1105788019
H   H93       1.0  0.77540  0.81340  0.73010  1.0000 0.1183426518
H   H94       1.0  0.22460  0.31340  0.76990  1.0000 0.1183426518
H   H95       1.0  0.22460  0.18660  0.26990  1.0000 0.1183426518
H   H96       1.0  0.77540  0.68660  0.23010  1.0000 0.1183426518
H   H97       1.0  0.31910  0.63920  0.77270  1.0000 0.1105788019
H   H98       1.0  0.68090  0.13920  0.72730  1.0000 0.1105788019
H   H99       1.0  0.68090  0.36080  0.22730  1.0000 0.1105788019
H   H100      1.0  0.31910  0.86080  0.27270  1.0000 0.1105788019
H   H101      1.0  0.34290  0.79430  0.61150  1.0000 0.1105788019
H   H102      1.0  0.65710  0.29430  0.88850  1.0000 0.1105788019
H   H103      1.0  0.65710  0.20570  0.38850  1.0000 0.1105788019
H   H104      1.0  0.34290  0.70570  0.11150  1.0000 0.1105788019
H   H105      1.0  0.20370  0.81710  0.59960  1.0000 0.1105788019
H   H106      1.0  0.79630  0.31710  0.90040  1.0000 0.1105788019
H   H107      1.0  0.79630  0.18290  0.40040  1.0000 0.1105788019
H   H108      1.0  0.20370  0.68290  0.09960  1.0000 0.1105788019
H   H109      1.0  0.20810  0.60820  0.79070  1.0000 0.1183426518
H   H110      1.0  0.79190  0.10820  0.70930  1.0000 0.1183426518
H   H111      1.0  0.79190  0.39180  0.20930  1.0000 0.1183426518
H   H112      1.0  0.20810  0.89180  0.29070  1.0000 0.1183426518
H   H113      1.0  0.09860  0.60890  0.82300  1.0000 0.1105788019
H   H114      1.0  0.90140  0.10890  0.67700  1.0000 0.1105788019
H   H115      1.0  0.90140  0.39110  0.17700  1.0000 0.1105788019
H   H116      1.0  0.09860  0.89110  0.32300  1.0000 0.1105788019
H   H117      1.0  0.98630  0.82540  0.66667  1.0000 0.1105788019
H   H118      1.0  0.01370  0.32540  0.83333  1.0000 0.1105788019
H   H119      1.0  0.01370  0.17460  0.33333  1.0000 0.1105788019
H   H120      1.0  0.98630  0.67460  0.16667  1.0000 0.1105788019
H   H121      1.0  0.09760  0.83010  0.63640  1.0000 0.1105788019
H   H122      1.0  0.90240  0.33010  0.86360  1.0000 0.1105788019
H   H123      1.0  0.90240  0.16990  0.36360  1.0000 0.1105788019
H   H124      1.0  0.09760  0.66990  0.13640  1.0000 0.1105788019
C   C1        1.0  0.49030  0.63180  0.59880  1.0000 0.4424083706
C   C2        1.0  0.50970  0.13180  0.90120  1.0000 0.4424083706
C   C3        1.0  0.50970  0.36820  0.40120  1.0000 0.4424083706
C   C4        1.0  0.49030  0.86820  0.09880  1.0000 0.4424083706
C   C5        1.0  0.48400  0.68080  0.89770  1.0000 0.4424083706
C   C6        1.0  0.51600  0.18080  0.60230  1.0000 0.4424083706
C   C7        1.0  0.51600  0.31920  0.10230  1.0000 0.4424083706
C   C8        1.0  0.48400  0.81920  0.39770  1.0000 0.4424083706
C   C9        1.0  0.49460  0.42140  0.76760  1.0000 0.4672661748
C   C10       1.0  0.50540  0.92140  0.73240  1.0000 0.4672661748
C   C11       1.0  0.50540  0.57860  0.23240  1.0000 0.4672661748
C   C12       1.0  0.49460  0.07860  0.26760  1.0000 0.4672661748
C   C13       1.0  0.31880  0.89240  0.92190  1.0000 0.1014664197
C   C14       1.0  0.68120  0.39240  0.57810  1.0000 0.1014664197
C   C15       1.0  0.68120  0.10760  0.07810  1.0000 0.1014664197
C   C16       1.0  0.31880  0.60760  0.42190  1.0000 0.1014664197
C   C17       1.0  0.32980  0.94810  0.82550  1.0000 -0.0385155484
C   C18       1.0  0.67020  0.44810  0.67450  1.0000 -0.0385155484
C   C19       1.0  0.67020  0.05190  0.17450  1.0000 -0.0385155484
C   C20       1.0  0.32980  0.55190  0.32550  1.0000 -0.0385155484
C   C21       1.0  0.25120  0.95260  0.81520  1.0000 -0.1103459632
C   C22       1.0  0.74880  0.45260  0.68480  1.0000 -0.1103459632
C   C23       1.0  0.74880  0.04740  0.18480  1.0000 -0.1103459632
C   C24       1.0  0.25120  0.54740  0.31520  1.0000 -0.1103459632
C   C25       1.0  0.17170  0.90890  0.89150  1.0000 0.1405398425
C   C26       1.0  0.82830  0.40890  0.60850  1.0000 0.1405398425
C   C27       1.0  0.82830  0.09110  0.10850  1.0000 0.1405398425
C   C28       1.0  0.17170  0.59110  0.39150  1.0000 0.1405398425
C   C29       1.0  0.10980  0.98290  0.85960  1.0000 -0.1899207556
C   C30       1.0  0.89020  0.48290  0.64040  1.0000 -0.1899207556
C   C31       1.0  0.89020  0.01710  0.14040  1.0000 -0.1899207556
C   C32       1.0  0.10980  0.51710  0.35960  1.0000 -0.1899207556
C   C33       1.0  0.04010  0.97560  0.87390  1.0000 -0.1417616719
C   C34       1.0  0.95990  0.47560  0.62610  1.0000 -0.1417616719
C   C35       1.0  0.95990  0.02440  0.12610  1.0000 -0.1417616719
C   C36       1.0  0.04010  0.52440  0.37390  1.0000 -0.1417616719
C   C37       1.0  0.03040  0.89480  0.91970  1.0000 0.06777905
C   C38       1.0  0.96960  0.39480  0.58030  1.0000 0.06777905
C   C39       1.0  0.96960  0.10520  0.08030  1.0000 0.06777905
C   C40       1.0  0.03040  0.60520  0.41970  1.0000 0.06777905
C   C41       1.0  0.09390  0.82060  0.95020  1.0000 -0.1417616719
C   C42       1.0  0.90610  0.32060  0.54980  1.0000 -0.1417616719
C   C43       1.0  0.90610  0.17940  0.04980  1.0000 -0.1417616719
C   C44       1.0  0.09390  0.67940  0.45020  1.0000 -0.1417616719
C   C45       1.0  0.16350  0.82620  0.93610  1.0000 -0.1993285734
C   C46       1.0  0.83650  0.32620  0.56390  1.0000 -0.1993285734
C   C47       1.0  0.83650  0.17380  0.06390  1.0000 -0.1993285734
C   C48       1.0  0.16350  0.67380  0.43610  1.0000 -0.1993285734
C   C49       1.0  0.66880  0.89800  0.94490  1.0000 0.1105788019
C   C50       1.0  0.33120  0.39800  0.55510  1.0000 0.1105788019
C   C51       1.0  0.33120  0.10200  0.05510  1.0000 0.1105788019
C   C52       1.0  0.66880  0.60200  0.44490  1.0000 0.1105788019
C   C53       1.0  0.66330  0.81460  0.03630  1.0000 -0.0385155484
C   C54       1.0  0.33670  0.31460  0.46370  1.0000 -0.0385155484
C   C55       1.0  0.33670  0.18540  0.96370  1.0000 -0.0385155484
C   C56       1.0  0.66330  0.68540  0.53630  1.0000 -0.0385155484
C   C57       1.0  0.73950  0.80600  0.04030  1.0000 -0.1103459632
C   C58       1.0  0.26050  0.30600  0.45970  1.0000 -0.1103459632
C   C59       1.0  0.26050  0.19400  0.95970  1.0000 -0.1103459632
C   C60       1.0  0.73950  0.69400  0.54030  1.0000 -0.1103459632
C   C61       1.0  0.81450  0.86890  0.96430  1.0000 0.1339788463
C   C62       1.0  0.18550  0.36890  0.53570  1.0000 0.1339788463
C   C63       1.0  0.18550  0.13110  0.03570  1.0000 0.1339788463
C   C64       1.0  0.81450  0.63110  0.46430  1.0000 0.1339788463
C   C65       1.0  0.87640  0.79420  0.99310  1.0000 -0.1899207556
C   C66       1.0  0.12360  0.29420  0.50690  1.0000 -0.1899207556
C   C67       1.0  0.12360  0.20580  0.00690  1.0000 -0.1899207556
C   C68       1.0  0.87640  0.70580  0.49310  1.0000 -0.1899207556
C   C69       1.0  0.94500  0.80330  0.97870  1.0000 -0.1417616719
C   C70       1.0  0.05500  0.30330  0.52130  1.0000 -0.1417616719
C   C71       1.0  0.05500  0.19670  0.02130  1.0000 -0.1417616719
C   C72       1.0  0.94500  0.69670  0.47870  1.0000 -0.1417616719
C   C73       1.0  0.95510  0.88680  0.93500  1.0000 0.06777905
C   C74       1.0  0.04490  0.38680  0.56500  1.0000 0.06777905
C   C75       1.0  0.04490  0.11320  0.06500  1.0000 0.06777905
C   C76       1.0  0.95510  0.61320  0.43500  1.0000 0.06777905
C   C77       1.0  0.89120  0.96080  0.90580  1.0000 -0.1469167631
C   C78       1.0  0.10880  0.46080  0.59420  1.0000 -0.1469167631
C   C79       1.0  0.10880  0.03920  0.09420  1.0000 -0.1469167631
C   C80       1.0  0.89120  0.53920  0.40580  1.0000 -0.1469167631
C   C81       1.0  0.82180  0.95240  0.92060  1.0000 -0.1899207556
C   C82       1.0  0.17820  0.45240  0.57940  1.0000 -0.1899207556
C   C83       1.0  0.17820  0.04760  0.07940  1.0000 -0.1899207556
C   C84       1.0  0.82180  0.54760  0.42060  1.0000 -0.1899207556
C   C85       1.0  0.66820  0.69590  0.77190  1.0000 0.091949241
C   C86       1.0  0.33180  0.19590  0.72810  1.0000 0.091949241
C   C87       1.0  0.33180  0.30410  0.22810  1.0000 0.091949241
C   C88       1.0  0.66820  0.80410  0.27190  1.0000 0.091949241
C   C89       1.0  0.65900  0.59910  0.85810  1.0000 -0.0385155484
C   C90       1.0  0.34100  0.09910  0.64190  1.0000 -0.0385155484
C   C91       1.0  0.34100  0.40090  0.14190  1.0000 -0.0385155484
C   C92       1.0  0.65900  0.90090  0.35810  1.0000 -0.0385155484
C   C93       1.0  0.73750  0.60430  0.86940  1.0000 -0.1103459632
C   C94       1.0  0.26250  0.10430  0.63060  1.0000 -0.1103459632
C   C95       1.0  0.26250  0.39570  0.13060  1.0000 -0.1103459632
C   C96       1.0  0.73750  0.89570  0.36940  1.0000 -0.1103459632
C   C97       1.0  0.81660  0.68490  0.79960  1.0000 0.1500727646
C   C98       1.0  0.18340  0.18490  0.70040  1.0000 0.1500727646
C   C99       1.0  0.18340  0.31510  0.20040  1.0000 0.1500727646
C   C100      1.0  0.81660  0.81510  0.29960  1.0000 0.1500727646
C   C101      1.0  0.88300  0.61790  0.83330  1.0000 -0.1993285734
C   C102      1.0  0.11700  0.11790  0.66667  1.0000 -0.1993285734
C   C103      1.0  0.11700  0.38210  0.16670  1.0000 -0.1993285734
C   C104      1.0  0.88300  0.88210  0.33333  1.0000 -0.1993285734
C   C105      1.0  0.95130  0.63040  0.81770  1.0000 -0.1417616719
C   C106      1.0  0.04870  0.13040  0.68230  1.0000 -0.1417616719
C   C107      1.0  0.04870  0.36960  0.18230  1.0000 -0.1417616719
C   C108      1.0  0.95130  0.86960  0.31770  1.0000 -0.1417616719
C   C109      1.0  0.95550  0.70960  0.76800  1.0000 0.0582355212
C   C110      1.0  0.04450  0.20960  0.73200  1.0000 0.0582355212
C   C111      1.0  0.04450  0.29040  0.23200  1.0000 0.0582355212
C   C112      1.0  0.95550  0.79040  0.26800  1.0000 0.0582355212
C   C113      1.0  0.88810  0.77750  0.73640  1.0000 -0.1469167631
C   C114      1.0  0.11190  0.27750  0.76360  1.0000 -0.1469167631
C   C115      1.0  0.11190  0.22250  0.26360  1.0000 -0.1469167631
C   C116      1.0  0.88810  0.72250  0.23640  1.0000 -0.1469167631
C   C117      1.0  0.81950  0.76630  0.75180  1.0000 -0.1993285734
C   C118      1.0  0.18050  0.26630  0.74820  1.0000 -0.1993285734
C   C119      1.0  0.18050  0.23370  0.24820  1.0000 -0.1993285734
C   C120      1.0  0.81950  0.73370  0.25180  1.0000 -0.1993285734
C   C121      1.0  0.30820  0.68100  0.73120  1.0000 0.091949241
C   C122      1.0  0.69180  0.18100  0.76880  1.0000 0.091949241
C   C123      1.0  0.69180  0.31900  0.26880  1.0000 0.091949241
C   C124      1.0  0.30820  0.81900  0.23120  1.0000 0.091949241
C   C125      1.0  0.32070  0.76570  0.64290  1.0000 -0.0453985643
C   C126      1.0  0.67930  0.26570  0.85710  1.0000 -0.0453985643
C   C127      1.0  0.67930  0.23430  0.35710  1.0000 -0.0453985643
C   C128      1.0  0.32070  0.73430  0.14290  1.0000 -0.0453985643
C   C129      1.0  0.24360  0.77880  0.63600  1.0000 -0.1158010785
C   C130      1.0  0.75640  0.27880  0.86400  1.0000 -0.1158010785
C   C131      1.0  0.75640  0.22120  0.36400  1.0000 -0.1158010785
C   C132      1.0  0.24360  0.72120  0.13600  1.0000 -0.1158010785
C   C133      1.0  0.16480  0.72100  0.71120  1.0000 0.1500727646
C   C134      1.0  0.83520  0.22100  0.78880  1.0000 0.1500727646
C   C135      1.0  0.83520  0.27900  0.28880  1.0000 0.1500727646
C   C136      1.0  0.16480  0.77900  0.21120  1.0000 0.1405398425
C   C137      1.0  0.16390  0.65340  0.76620  1.0000 -0.1993285734
C   C138      1.0  0.83610  0.15340  0.73380  1.0000 -0.1993285734
C   C139      1.0  0.83610  0.34660  0.23380  1.0000 -0.1993285734
C   C140      1.0  0.16390  0.84660  0.26620  1.0000 -0.1993285734
C   C141      1.0  0.09750  0.65300  0.78460  1.0000 -0.1469167631
C   C142      1.0  0.90250  0.15300  0.71540  1.0000 -0.1469167631
C   C143      1.0  0.90250  0.34700  0.21540  1.0000 -0.1469167631
C   C144      1.0  0.09750  0.84700  0.28460  1.0000 -0.1469167631
C   C145      1.0  0.02820  0.71560  0.74830  1.0000 0.0582355212
C   C146      1.0  0.97180  0.21560  0.75170  1.0000 0.0582355212
C   C147      1.0  0.97180  0.28440  0.25170  1.0000 0.0582355212
C   C148      1.0  0.02820  0.78440  0.24830  1.0000 0.0582355212
C   C149      1.0  0.03100  0.78180  0.69250  1.0000 -0.1469167631
C   C150      1.0  0.96900  0.28180  0.80750  1.0000 -0.1469167631
C   C151      1.0  0.96900  0.21820  0.30750  1.0000 -0.1469167631
C   C152      1.0  0.03100  0.71820  0.19250  1.0000 -0.1469167631
C   C153      1.0  0.09780  0.78480  0.67400  1.0000 -0.1993285734
C   C154      1.0  0.90220  0.28480  0.82600  1.0000 -0.1993285734
C   C155      1.0  0.90220  0.21520  0.32600  1.0000 -0.1993285734
C   C156      1.0  0.09780  0.71520  0.17400  1.0000 -0.1993285734
N   N1        1.0  0.37250  0.91050  0.89290  1.0000 -0.2901974965
N   N2        1.0  0.62750  0.41050  0.60710  1.0000 -0.2901974965
N   N3        1.0  0.62750  0.08950  0.10710  1.0000 -0.2901974965
N   N4        1.0  0.37250  0.58950  0.39290  1.0000 -0.2901974965
N   N5        1.0  0.24420  0.91530  0.87660  1.0000 0.0010980943
N   N6        1.0  0.75580  0.41530  0.62340  1.0000 0.0010980943
N   N7        1.0  0.75580  0.08470  0.12340  1.0000 0.0010980943
N   N8        1.0  0.24420  0.58470  0.37660  1.0000 0.0010980943
N   N9        1.0  0.61880  0.87280  0.97640  1.0000 -0.2901974965
N   N10       1.0  0.38120  0.37280  0.52360  1.0000 -0.2901974965
N   N11       1.0  0.38120  0.12720  0.02360  1.0000 -0.2901974965
N   N12       1.0  0.61880  0.62720  0.47640  1.0000 -0.2901974965
N   N13       1.0  0.74360  0.85940  0.98180  1.0000 -0.0007740093
N   N14       1.0  0.25640  0.35940  0.51820  1.0000 -0.0007740093
N   N15       1.0  0.25640  0.14060  0.01820  1.0000 -0.0007740093
N   N16       1.0  0.74360  0.64060  0.48180  1.0000 -0.0007740093
N   N17       1.0  0.61510  0.65610  0.79700  1.0000 -0.2988917988
N   N18       1.0  0.38490  0.15610  0.70300  1.0000 -0.2988917988
N   N19       1.0  0.38490  0.34390  0.20300  1.0000 -0.2988917988
N   N20       1.0  0.61510  0.84390  0.29700  1.0000 -0.2988917988
N   N21       1.0  0.74420  0.66560  0.81370  1.0000 -0.0078327289
N   N22       1.0  0.25580  0.16560  0.68630  1.0000 -0.0078327289
N   N23       1.0  0.25580  0.33440  0.18630  1.0000 -0.0078327289
N   N24       1.0  0.74420  0.83440  0.31370  1.0000 -0.0078327289
N   N25       1.0  0.36220  0.70400  0.70290  1.0000 -0.2988917988
N   N26       1.0  0.63780  0.20400  0.79710  1.0000 -0.2988917988
N   N27       1.0  0.63780  0.29600  0.29710  1.0000 -0.2988917988
N   N28       1.0  0.36220  0.79600  0.20290  1.0000 -0.2988917988
N   N29       1.0  0.23490  0.72510  0.69280  1.0000 -0.0078327289
N   N30       1.0  0.76510  0.22510  0.80720  1.0000 -0.0078327289
N   N31       1.0  0.76510  0.27490  0.30720  1.0000 -0.0078327289
N   N32       1.0  0.23490  0.77490  0.19280  1.0000 -0.0078327289
O   O1        1.0  0.49290  0.57140  0.54769  1.0000 -0.5166414056
O   O2        1.0  0.50710  0.07140  0.95231  1.0000 -0.5166414056
O   O3        1.0  0.50710  0.42860  0.45231  1.0000 -0.5166414056
O   O4        1.0  0.49290  0.92860  0.04769  1.0000 -0.5166414056
O   O5        1.0  0.48740  0.59150  0.65377  1.0000 -0.5086498532
O   O6        1.0  0.51260  0.09150  0.84623  1.0000 -0.5086498532
O   O7        1.0  0.51260  0.40850  0.34623  1.0000 -0.5086498532
O   O8        1.0  0.48740  0.90850  0.15377  1.0000 -0.5086498532
O   O9        1.0  0.48390  0.71990  0.95492  1.0000 -0.5004999462
O   O10       1.0  0.51610  0.21990  0.54508  1.0000 -0.5004999462
O   O11       1.0  0.51610  0.28010  0.04508  1.0000 -0.5004999462
O   O12       1.0  0.48390  0.78010  0.45492  1.0000 -0.5004999462
O   O13       1.0  0.48720  0.74030  0.84810  1.0000 -0.536256877
O   O14       1.0  0.51280  0.24030  0.65190  1.0000 -0.536256877
O   O15       1.0  0.51280  0.25970  0.15190  1.0000 -0.536256877
O   O16       1.0  0.48720  0.75970  0.34810  1.0000 -0.536256877
O   O17       1.0  0.46950  0.51140  0.78348  1.0000 -0.5086498532
O   O18       1.0  0.53050  0.01140  0.71652  1.0000 -0.5086498532
O   O19       1.0  0.53050  0.48860  0.21652  1.0000 -0.5086498532
O   O20       1.0  0.46950  0.98860  0.28348  1.0000 -0.5086498532
O   O21       1.0  0.49040  0.32630  0.79166  1.0000 -0.5004999462
O   O22       1.0  0.50960  0.82630  0.70834  1.0000 -0.5004999462
O   O23       1.0  0.50960  0.67370  0.20834  1.0000 -0.5004999462
O   O24       1.0  0.49040  0.17370  0.29166  1.0000 -0.5004999462
