# DDEC6 charges by PACMAN v1.1 (https://github.com/mtap-research/PACMAN-charge/)
data_2009[Cd][rho]3[ASR]1
_chemical_formula_sum              "Cd24 H96 C144 N144 O96"
_cell_length_a       26.4135
_cell_length_b       26.4135
_cell_length_c       26.4135
_cell_angle_alpha    109.471
_cell_angle_beta     109.471
_cell_angle_gamma    109.471

_symmetry_space_group_name_H-M    "P 1"
_symmetry_Int_Tables_number       1

loop_
  _symmetry_equiv_pos_as_xyz
  'x, y, z'

loop_
  _atom_site_type_symbol
  _atom_site_label
  _atom_site_symmetry_multiplicity
  _atom_site_fract_x
  _atom_site_fract_y
  _atom_site_fract_z
  _atom_site_occupancy
  _atom_site_charge
Cd  Cd1       1.0  0.35482  0.64518  0.50000  1.0000 0.7519841332
Cd  Cd2       1.0  0.14518  0.85482  0.50000  1.0000 0.7519841332
Cd  Cd3       1.0  0.85482  0.35482  0.70964  1.0000 0.7519841332
Cd  Cd4       1.0  0.64518  0.14518  0.29036  1.0000 0.7519841332
Cd  Cd5       1.0  0.50000  0.35482  0.64518  1.0000 0.7519841332
Cd  Cd6       1.0  0.50000  0.14518  0.85482  1.0000 0.7519841332
Cd  Cd7       1.0  0.70964  0.85482  0.35482  1.0000 0.7519841332
Cd  Cd8       1.0  0.29036  0.64518  0.14518  1.0000 0.7519841332
Cd  Cd9       1.0  0.64518  0.50000  0.35482  1.0000 0.7519841332
Cd  Cd10      1.0  0.85482  0.50000  0.14518  1.0000 0.7519841332
Cd  Cd11      1.0  0.35482  0.70964  0.85482  1.0000 0.7519841332
Cd  Cd12      1.0  0.14518  0.29036  0.64518  1.0000 0.7519841332
Cd  Cd13      1.0  0.64518  0.35482  0.50000  1.0000 0.7519841332
Cd  Cd14      1.0  0.85482  0.14518  0.50000  1.0000 0.7519841332
Cd  Cd15      1.0  0.14518  0.64518  0.29036  1.0000 0.7519841332
Cd  Cd16      1.0  0.35482  0.85482  0.70964  1.0000 0.7519841332
Cd  Cd17      1.0  0.50000  0.64518  0.35482  1.0000 0.7519841332
Cd  Cd18      1.0  0.50000  0.85482  0.14518  1.0000 0.7519841332
Cd  Cd19      1.0  0.29036  0.14518  0.64518  1.0000 0.7519841332
Cd  Cd20      1.0  0.70964  0.35482  0.85482  1.0000 0.7519841332
Cd  Cd21      1.0  0.35482  0.50000  0.64518  1.0000 0.7519841332
Cd  Cd22      1.0  0.14518  0.50000  0.85482  1.0000 0.7519841332
Cd  Cd23      1.0  0.64518  0.29036  0.14518  1.0000 0.7519841332
Cd  Cd24      1.0  0.85482  0.70964  0.35482  1.0000 0.7519841332
H   H1        1.0  0.19750  0.55460  0.44070  1.0000 0.1135950237
H   H2        1.0  0.11390  0.75680  0.55930  1.0000 0.1135950237
H   H3        1.0  0.88610  0.44540  0.64290  1.0000 0.1135950237
H   H4        1.0  0.80250  0.24320  0.35710  1.0000 0.1135950237
H   H5        1.0  0.44070  0.19750  0.55460  1.0000 0.1135950237
H   H6        1.0  0.55930  0.11390  0.75680  1.0000 0.1135950237
H   H7        1.0  0.64290  0.88610  0.44540  1.0000 0.1135950237
H   H8        1.0  0.35710  0.80250  0.24320  1.0000 0.1135950237
H   H9        1.0  0.55460  0.44070  0.19750  1.0000 0.1135950237
H   H10       1.0  0.75680  0.55930  0.11390  1.0000 0.1135950237
H   H11       1.0  0.44540  0.64290  0.88610  1.0000 0.1135950237
H   H12       1.0  0.24320  0.35710  0.80250  1.0000 0.1135950237
H   H13       1.0  0.24320  0.88610  0.44070  1.0000 0.1135950237
H   H14       1.0  0.44540  0.80250  0.55930  1.0000 0.1135950237
H   H15       1.0  0.75680  0.19750  0.64290  1.0000 0.1135950237
H   H16       1.0  0.55460  0.11390  0.35710  1.0000 0.1135950237
H   H17       1.0  0.11390  0.35710  0.55460  1.0000 0.1135950237
H   H18       1.0  0.19750  0.64290  0.75680  1.0000 0.1135950237
H   H19       1.0  0.80250  0.55930  0.44540  1.0000 0.1135950237
H   H20       1.0  0.88610  0.44070  0.24320  1.0000 0.1135950237
H   H21       1.0  0.64290  0.75680  0.19750  1.0000 0.1135950237
H   H22       1.0  0.35710  0.55460  0.11390  1.0000 0.1135950237
H   H23       1.0  0.44070  0.24320  0.88610  1.0000 0.1135950237
H   H24       1.0  0.55930  0.44540  0.80250  1.0000 0.1135950237
H   H25       1.0  0.80250  0.44540  0.55930  1.0000 0.1135950237
H   H26       1.0  0.88610  0.24320  0.44070  1.0000 0.1135950237
H   H27       1.0  0.11390  0.55460  0.35710  1.0000 0.1135950237
H   H28       1.0  0.19750  0.75680  0.64290  1.0000 0.1135950237
H   H29       1.0  0.55930  0.80250  0.44540  1.0000 0.1135950237
H   H30       1.0  0.44070  0.88610  0.24320  1.0000 0.1135950237
H   H31       1.0  0.35710  0.11390  0.55460  1.0000 0.1135950237
H   H32       1.0  0.64290  0.19750  0.75680  1.0000 0.1135950237
H   H33       1.0  0.44540  0.55930  0.80250  1.0000 0.1135950237
H   H34       1.0  0.24320  0.44070  0.88610  1.0000 0.1135950237
H   H35       1.0  0.55460  0.35710  0.11390  1.0000 0.1135950237
H   H36       1.0  0.75680  0.64290  0.19750  1.0000 0.1135950237
H   H37       1.0  0.75680  0.11390  0.55930  1.0000 0.1135950237
H   H38       1.0  0.55460  0.19750  0.44070  1.0000 0.1135950237
H   H39       1.0  0.24320  0.80250  0.35710  1.0000 0.1135950237
H   H40       1.0  0.44540  0.88610  0.64290  1.0000 0.1135950237
H   H41       1.0  0.88610  0.64290  0.44540  1.0000 0.1135950237
H   H42       1.0  0.80250  0.35710  0.24320  1.0000 0.1135950237
H   H43       1.0  0.19750  0.44070  0.55460  1.0000 0.1135950237
H   H44       1.0  0.11390  0.55930  0.75680  1.0000 0.1135950237
H   H45       1.0  0.35710  0.24320  0.80250  1.0000 0.1135950237
H   H46       1.0  0.64290  0.44540  0.88610  1.0000 0.1135950237
H   H47       1.0  0.55930  0.75680  0.11390  1.0000 0.1135950237
H   H48       1.0  0.44070  0.55460  0.19750  1.0000 0.1135950237
H   H49       1.0  0.25740  0.48260  0.42520  1.0000 0.1135950237
H   H50       1.0  0.05740  0.83220  0.57480  1.0000 0.1135950237
H   H51       1.0  0.94260  0.51740  0.77480  1.0000 0.1135950237
H   H52       1.0  0.74260  0.16780  0.22520  1.0000 0.1135950237
H   H53       1.0  0.42520  0.25740  0.48260  1.0000 0.1135950237
H   H54       1.0  0.57480  0.05740  0.83220  1.0000 0.1135950237
H   H55       1.0  0.77480  0.94260  0.51740  1.0000 0.1135950237
H   H56       1.0  0.22520  0.74260  0.16780  1.0000 0.1135950237
H   H57       1.0  0.48260  0.42520  0.25740  1.0000 0.1135950237
H   H58       1.0  0.83220  0.57480  0.05740  1.0000 0.1135950237
H   H59       1.0  0.51740  0.77480  0.94260  1.0000 0.1135950237
H   H60       1.0  0.16780  0.22520  0.74260  1.0000 0.1135950237
H   H61       1.0  0.16780  0.94260  0.42520  1.0000 0.1135950237
H   H62       1.0  0.51740  0.74260  0.57480  1.0000 0.1135950237
H   H63       1.0  0.83220  0.25740  0.77480  1.0000 0.1135950237
H   H64       1.0  0.48260  0.05740  0.22520  1.0000 0.1135950237
H   H65       1.0  0.05740  0.22520  0.48260  1.0000 0.1135950237
H   H66       1.0  0.25740  0.77480  0.83220  1.0000 0.1135950237
H   H67       1.0  0.74260  0.57480  0.51740  1.0000 0.1135950237
H   H68       1.0  0.94260  0.42520  0.16780  1.0000 0.1135950237
H   H69       1.0  0.77480  0.83220  0.25740  1.0000 0.1135950237
H   H70       1.0  0.22520  0.48260  0.05740  1.0000 0.1135950237
H   H71       1.0  0.42520  0.16780  0.94260  1.0000 0.1135950237
H   H72       1.0  0.57480  0.51740  0.74260  1.0000 0.1135950237
H   H73       1.0  0.74260  0.51740  0.57480  1.0000 0.1135950237
H   H74       1.0  0.94260  0.16780  0.42520  1.0000 0.1135950237
H   H75       1.0  0.05740  0.48260  0.22520  1.0000 0.1135950237
H   H76       1.0  0.25740  0.83220  0.77480  1.0000 0.1135950237
H   H77       1.0  0.57480  0.74260  0.51740  1.0000 0.1135950237
H   H78       1.0  0.42520  0.94260  0.16780  1.0000 0.1135950237
H   H79       1.0  0.22520  0.05740  0.48260  1.0000 0.1135950237
H   H80       1.0  0.77480  0.25740  0.83220  1.0000 0.1135950237
H   H81       1.0  0.51740  0.57480  0.74260  1.0000 0.1135950237
H   H82       1.0  0.16780  0.42520  0.94260  1.0000 0.1135950237
H   H83       1.0  0.48260  0.22520  0.05740  1.0000 0.1135950237
H   H84       1.0  0.83220  0.77480  0.25740  1.0000 0.1135950237
H   H85       1.0  0.83220  0.05740  0.57480  1.0000 0.1135950237
H   H86       1.0  0.48260  0.25740  0.42520  1.0000 0.1135950237
H   H87       1.0  0.16780  0.74260  0.22520  1.0000 0.1135950237
H   H88       1.0  0.51740  0.94260  0.77480  1.0000 0.1135950237
H   H89       1.0  0.94260  0.77480  0.51740  1.0000 0.1135950237
H   H90       1.0  0.74260  0.22520  0.16780  1.0000 0.1135950237
H   H91       1.0  0.25740  0.42520  0.48260  1.0000 0.1135950237
H   H92       1.0  0.05740  0.57480  0.83220  1.0000 0.1135950237
H   H93       1.0  0.22520  0.16780  0.74260  1.0000 0.1135950237
H   H94       1.0  0.77480  0.51740  0.94260  1.0000 0.1135950237
H   H95       1.0  0.57480  0.83220  0.05740  1.0000 0.1135950237
H   H96       1.0  0.42520  0.48260  0.25740  1.0000 0.1135950237
C   C1        1.0  0.20430  0.57750  0.42100  1.0000 0.0420477145
C   C2        1.0  0.15650  0.78330  0.57900  1.0000 0.0420477145
C   C3        1.0  0.84350  0.42250  0.62680  1.0000 0.0420477145
C   C4        1.0  0.79570  0.21670  0.37320  1.0000 0.0420477145
C   C5        1.0  0.42100  0.20430  0.57750  1.0000 0.0420477145
C   C6        1.0  0.57900  0.15650  0.78330  1.0000 0.0420477145
C   C7        1.0  0.62680  0.84350  0.42250  1.0000 0.0420477145
C   C8        1.0  0.37320  0.79570  0.21670  1.0000 0.0420477145
C   C9        1.0  0.57750  0.42100  0.20430  1.0000 0.0420477145
C   C10       1.0  0.78330  0.57900  0.15650  1.0000 0.0420477145
C   C11       1.0  0.42250  0.62680  0.84350  1.0000 0.0420477145
C   C12       1.0  0.21670  0.37320  0.79570  1.0000 0.0420477145
C   C13       1.0  0.21670  0.84350  0.42100  1.0000 0.0420477145
C   C14       1.0  0.42250  0.79570  0.57900  1.0000 0.0420477145
C   C15       1.0  0.78330  0.20430  0.62680  1.0000 0.0420477145
C   C16       1.0  0.57750  0.15650  0.37320  1.0000 0.0420477145
C   C17       1.0  0.15650  0.37320  0.57750  1.0000 0.0420477145
C   C18       1.0  0.20430  0.62680  0.78330  1.0000 0.0420477145
C   C19       1.0  0.79570  0.57900  0.42250  1.0000 0.0420477145
C   C20       1.0  0.84350  0.42100  0.21670  1.0000 0.0420477145
C   C21       1.0  0.62680  0.78330  0.20430  1.0000 0.0420477145
C   C22       1.0  0.37320  0.57750  0.15650  1.0000 0.0420477145
C   C23       1.0  0.42100  0.21670  0.84350  1.0000 0.0420477145
C   C24       1.0  0.57900  0.42250  0.79570  1.0000 0.0420477145
C   C25       1.0  0.79570  0.42250  0.57900  1.0000 0.0420477145
C   C26       1.0  0.84350  0.21670  0.42100  1.0000 0.0420477145
C   C27       1.0  0.15650  0.57750  0.37320  1.0000 0.0420477145
C   C28       1.0  0.20430  0.78330  0.62680  1.0000 0.0420477145
C   C29       1.0  0.57900  0.79570  0.42250  1.0000 0.0420477145
C   C30       1.0  0.42100  0.84350  0.21670  1.0000 0.0420477145
C   C31       1.0  0.37320  0.15650  0.57750  1.0000 0.0420477145
C   C32       1.0  0.62680  0.20430  0.78330  1.0000 0.0420477145
C   C33       1.0  0.42250  0.57900  0.79570  1.0000 0.0420477145
C   C34       1.0  0.21670  0.42100  0.84350  1.0000 0.0420477145
C   C35       1.0  0.57750  0.37320  0.15650  1.0000 0.0420477145
C   C36       1.0  0.78330  0.62680  0.20430  1.0000 0.0420477145
C   C37       1.0  0.78330  0.15650  0.57900  1.0000 0.0420477145
C   C38       1.0  0.57750  0.20430  0.42100  1.0000 0.0420477145
C   C39       1.0  0.21670  0.79570  0.37320  1.0000 0.0420477145
C   C40       1.0  0.42250  0.84350  0.62680  1.0000 0.0420477145
C   C41       1.0  0.84350  0.62680  0.42250  1.0000 0.0420477145
C   C42       1.0  0.79570  0.37320  0.21670  1.0000 0.0420477145
C   C43       1.0  0.20430  0.42100  0.57750  1.0000 0.0420477145
C   C44       1.0  0.15650  0.57900  0.78330  1.0000 0.0420477145
C   C45       1.0  0.37320  0.21670  0.79570  1.0000 0.0420477145
C   C46       1.0  0.62680  0.42250  0.84350  1.0000 0.0420477145
C   C47       1.0  0.57900  0.78330  0.15650  1.0000 0.0420477145
C   C48       1.0  0.42100  0.57750  0.20430  1.0000 0.0420477145
C   C49       1.0  0.24530  0.63820  0.39290  1.0000 0.1995306998
C   C50       1.0  0.24530  0.85240  0.60710  1.0000 0.1995306998
C   C51       1.0  0.75470  0.36180  0.60710  1.0000 0.1995306998
C   C52       1.0  0.75470  0.14760  0.39290  1.0000 0.1995306998
C   C53       1.0  0.39290  0.24530  0.63820  1.0000 0.1995306998
C   C54       1.0  0.60710  0.24530  0.85240  1.0000 0.1995306998
C   C55       1.0  0.60710  0.75470  0.36180  1.0000 0.1995306998
C   C56       1.0  0.39290  0.75470  0.14760  1.0000 0.1995306998
C   C57       1.0  0.63820  0.39290  0.24530  1.0000 0.1995306998
C   C58       1.0  0.85240  0.60710  0.24530  1.0000 0.1995306998
C   C59       1.0  0.36180  0.60710  0.75470  1.0000 0.1995306998
C   C60       1.0  0.14760  0.39290  0.75470  1.0000 0.1995306998
C   C61       1.0  0.14760  0.75470  0.39290  1.0000 0.1995306998
C   C62       1.0  0.36180  0.75470  0.60710  1.0000 0.1995306998
C   C63       1.0  0.85240  0.24530  0.60710  1.0000 0.1995306998
C   C64       1.0  0.63820  0.24530  0.39290  1.0000 0.1995306998
C   C65       1.0  0.24530  0.39290  0.63820  1.0000 0.1995306998
C   C66       1.0  0.24530  0.60710  0.85240  1.0000 0.1995306998
C   C67       1.0  0.75470  0.60710  0.36180  1.0000 0.1995306998
C   C68       1.0  0.75470  0.39290  0.14760  1.0000 0.1995306998
C   C69       1.0  0.60710  0.85240  0.24530  1.0000 0.1995306998
C   C70       1.0  0.39290  0.63820  0.24530  1.0000 0.1995306998
C   C71       1.0  0.39290  0.14760  0.75470  1.0000 0.1995306998
C   C72       1.0  0.60710  0.36180  0.75470  1.0000 0.1995306998
C   C73       1.0  0.28470  0.49920  0.46690  1.0000 -0.0033337851
C   C74       1.0  0.03230  0.81780  0.53310  1.0000 -0.0033337851
C   C75       1.0  0.96770  0.50080  0.78550  1.0000 -0.0033337851
C   C76       1.0  0.71530  0.18220  0.21450  1.0000 -0.0033337851
C   C77       1.0  0.46690  0.28470  0.49920  1.0000 -0.0033337851
C   C78       1.0  0.53310  0.03230  0.81780  1.0000 -0.0033337851
C   C79       1.0  0.78550  0.96770  0.50080  1.0000 -0.0033337851
C   C80       1.0  0.21450  0.71530  0.18220  1.0000 -0.0033337851
C   C81       1.0  0.49920  0.46690  0.28470  1.0000 -0.0033337851
C   C82       1.0  0.81780  0.53310  0.03230  1.0000 -0.0033337851
C   C83       1.0  0.50080  0.78550  0.96770  1.0000 -0.0033337851
C   C84       1.0  0.18220  0.21450  0.71530  1.0000 -0.0033337851
C   C85       1.0  0.18220  0.96770  0.46690  1.0000 -0.0033337851
C   C86       1.0  0.50080  0.71530  0.53310  1.0000 -0.0033337851
C   C87       1.0  0.81780  0.28470  0.78550  1.0000 -0.0033337851
C   C88       1.0  0.49920  0.03230  0.21450  1.0000 -0.0033337851
C   C89       1.0  0.03230  0.21450  0.49920  1.0000 -0.0033337851
C   C90       1.0  0.28470  0.78550  0.81780  1.0000 -0.0033337851
C   C91       1.0  0.71530  0.53310  0.50080  1.0000 -0.0033337851
C   C92       1.0  0.96770  0.46690  0.18220  1.0000 -0.0033337851
C   C93       1.0  0.78550  0.81780  0.28470  1.0000 -0.0033337851
C   C94       1.0  0.21450  0.49920  0.03230  1.0000 -0.0033337851
C   C95       1.0  0.46690  0.18220  0.96770  1.0000 -0.0033337851
C   C96       1.0  0.53310  0.50080  0.71530  1.0000 -0.0033337851
C   C97       1.0  0.71530  0.50080  0.53310  1.0000 -0.0033337851
C   C98       1.0  0.96770  0.18220  0.46690  1.0000 -0.0033337851
C   C99       1.0  0.03230  0.49920  0.21450  1.0000 -0.0033337851
C   C100      1.0  0.28470  0.81780  0.78550  1.0000 -0.0033337851
C   C101      1.0  0.53310  0.71530  0.50080  1.0000 -0.0033337851
C   C102      1.0  0.46690  0.96770  0.18220  1.0000 -0.0033337851
C   C103      1.0  0.21450  0.03230  0.49920  1.0000 -0.0033337851
C   C104      1.0  0.78550  0.28470  0.81780  1.0000 -0.0033337851
C   C105      1.0  0.50080  0.53310  0.71530  1.0000 -0.0033337851
C   C106      1.0  0.18220  0.46690  0.96770  1.0000 -0.0033337851
C   C107      1.0  0.49920  0.21450  0.03230  1.0000 -0.0033337851
C   C108      1.0  0.81780  0.78550  0.28470  1.0000 -0.0033337851
C   C109      1.0  0.81780  0.03230  0.53310  1.0000 -0.0033337851
C   C110      1.0  0.49920  0.28470  0.46690  1.0000 -0.0033337851
C   C111      1.0  0.18220  0.71530  0.21450  1.0000 -0.0033337851
C   C112      1.0  0.50080  0.96770  0.78550  1.0000 -0.0033337851
C   C113      1.0  0.96770  0.78550  0.50080  1.0000 -0.0033337851
C   C114      1.0  0.71530  0.21450  0.18220  1.0000 -0.0033337851
C   C115      1.0  0.28470  0.46690  0.49920  1.0000 -0.0033337851
C   C116      1.0  0.03230  0.53310  0.81780  1.0000 -0.0033337851
C   C117      1.0  0.21450  0.18220  0.71530  1.0000 -0.0033337851
C   C118      1.0  0.78550  0.50080  0.96770  1.0000 -0.0033337851
C   C119      1.0  0.53310  0.81780  0.03230  1.0000 -0.0033337851
C   C120      1.0  0.46690  0.49920  0.28470  1.0000 -0.0033337851
C   C121      1.0  0.35740  0.56120  0.56120  1.0000 0.2331355476
C   C122      1.0  0.00000  0.79620  0.43880  1.0000 0.2331355476
C   C123      1.0  0.00000  0.43880  0.79620  1.0000 0.2331355476
C   C124      1.0  0.64260  0.20380  0.20380  1.0000 0.2331355476
C   C125      1.0  0.56120  0.35740  0.56120  1.0000 0.2331355476
C   C126      1.0  0.43880  0.00000  0.79620  1.0000 0.2331355476
C   C127      1.0  0.79620  0.00000  0.43880  1.0000 0.2331355476
C   C128      1.0  0.20380  0.64260  0.20380  1.0000 0.2331355476
C   C129      1.0  0.56120  0.56120  0.35740  1.0000 0.2331355476
C   C130      1.0  0.79620  0.43880  0.00000  1.0000 0.2331355476
C   C131      1.0  0.43880  0.79620  0.00000  1.0000 0.2331355476
C   C132      1.0  0.20380  0.20380  0.64260  1.0000 0.2331355476
C   C133      1.0  0.20380  0.00000  0.56120  1.0000 0.2331355476
C   C134      1.0  0.43880  0.64260  0.43880  1.0000 0.2331355476
C   C135      1.0  0.79620  0.35740  0.79620  1.0000 0.2331355476
C   C136      1.0  0.56120  0.00000  0.20380  1.0000 0.2331355476
C   C137      1.0  0.00000  0.20380  0.56120  1.0000 0.2331355476
C   C138      1.0  0.35740  0.79620  0.79620  1.0000 0.2331355476
C   C139      1.0  0.64260  0.43880  0.43880  1.0000 0.2331355476
C   C140      1.0  0.00000  0.56120  0.20380  1.0000 0.2331355476
C   C141      1.0  0.79620  0.79620  0.35740  1.0000 0.2331355476
C   C142      1.0  0.20380  0.56120  0.00000  1.0000 0.2331355476
C   C143      1.0  0.56120  0.20380  0.00000  1.0000 0.2331355476
C   C144      1.0  0.43880  0.43880  0.64260  1.0000 0.2331355476
N   N1        1.0  0.25710  0.61440  0.43130  1.0000 -0.3142545873
N   N2        1.0  0.18310  0.82580  0.56870  1.0000 -0.3142545873
N   N3        1.0  0.81690  0.38560  0.64270  1.0000 -0.3142545873
N   N4        1.0  0.74290  0.17420  0.35730  1.0000 -0.3142545873
N   N5        1.0  0.43130  0.25710  0.61440  1.0000 -0.3142545873
N   N6        1.0  0.56870  0.18310  0.82580  1.0000 -0.3142545873
N   N7        1.0  0.64270  0.81690  0.38560  1.0000 -0.3142545873
N   N8        1.0  0.35730  0.74290  0.17420  1.0000 -0.3142545873
N   N9        1.0  0.61440  0.43130  0.25710  1.0000 -0.3142545873
N   N10       1.0  0.82580  0.56870  0.18310  1.0000 -0.3142545873
N   N11       1.0  0.38560  0.64270  0.81690  1.0000 -0.3142545873
N   N12       1.0  0.17420  0.35730  0.74290  1.0000 -0.3142545873
N   N13       1.0  0.17420  0.81690  0.43130  1.0000 -0.3142545873
N   N14       1.0  0.38560  0.74290  0.56870  1.0000 -0.3142545873
N   N15       1.0  0.82580  0.25710  0.64270  1.0000 -0.3142545873
N   N16       1.0  0.61440  0.18310  0.35730  1.0000 -0.3142545873
N   N17       1.0  0.18310  0.35730  0.61440  1.0000 -0.3142545873
N   N18       1.0  0.25710  0.64270  0.82580  1.0000 -0.3142545873
N   N19       1.0  0.74290  0.56870  0.38560  1.0000 -0.3142545873
N   N20       1.0  0.81690  0.43130  0.17420  1.0000 -0.3142545873
N   N21       1.0  0.64270  0.82580  0.25710  1.0000 -0.3142545873
N   N22       1.0  0.35730  0.61440  0.18310  1.0000 -0.3142545873
N   N23       1.0  0.43130  0.17420  0.81690  1.0000 -0.3142545873
N   N24       1.0  0.56870  0.38560  0.74290  1.0000 -0.3142545873
N   N25       1.0  0.74290  0.38560  0.56870  1.0000 -0.3142545873
N   N26       1.0  0.81690  0.17420  0.43130  1.0000 -0.3142545873
N   N27       1.0  0.18310  0.61440  0.35730  1.0000 -0.3142545873
N   N28       1.0  0.25710  0.82580  0.64270  1.0000 -0.3142545873
N   N29       1.0  0.56870  0.74290  0.38560  1.0000 -0.3142545873
N   N30       1.0  0.43130  0.81690  0.17420  1.0000 -0.3142545873
N   N31       1.0  0.35730  0.18310  0.61440  1.0000 -0.3142545873
N   N32       1.0  0.64270  0.25710  0.82580  1.0000 -0.3142545873
N   N33       1.0  0.38560  0.56870  0.74290  1.0000 -0.3142545873
N   N34       1.0  0.17420  0.43130  0.81690  1.0000 -0.3142545873
N   N35       1.0  0.61440  0.35730  0.18310  1.0000 -0.3142545873
N   N36       1.0  0.82580  0.64270  0.25710  1.0000 -0.3142545873
N   N37       1.0  0.82580  0.18310  0.56870  1.0000 -0.3142545873
N   N38       1.0  0.61440  0.25710  0.43130  1.0000 -0.3142545873
N   N39       1.0  0.17420  0.74290  0.35730  1.0000 -0.3164460854
N   N40       1.0  0.38560  0.81690  0.64270  1.0000 -0.3142545873
N   N41       1.0  0.81690  0.64270  0.38560  1.0000 -0.3142545873
N   N42       1.0  0.74290  0.35730  0.17420  1.0000 -0.3142545873
N   N43       1.0  0.25710  0.43130  0.61440  1.0000 -0.3142545873
N   N44       1.0  0.18310  0.56870  0.82580  1.0000 -0.3142545873
N   N45       1.0  0.35730  0.17420  0.74290  1.0000 -0.3142545873
N   N46       1.0  0.64270  0.38560  0.81690  1.0000 -0.3142545873
N   N47       1.0  0.56870  0.82580  0.18310  1.0000 -0.3142545873
N   N48       1.0  0.43130  0.61440  0.25710  1.0000 -0.3142545873
N   N49       1.0  0.33070  0.55840  0.50610  1.0000 -0.3344200664
N   N50       1.0  0.05230  0.82460  0.49390  1.0000 -0.3344200664
N   N51       1.0  0.94770  0.44160  0.77230  1.0000 -0.3371312149
N   N52       1.0  0.66930  0.17540  0.22770  1.0000 -0.3344200664
N   N53       1.0  0.50610  0.33070  0.55840  1.0000 -0.3344200664
N   N54       1.0  0.49390  0.05230  0.82460  1.0000 -0.3344200664
N   N55       1.0  0.77230  0.94770  0.44160  1.0000 -0.3344200664
N   N56       1.0  0.22770  0.66930  0.17540  1.0000 -0.3344200664
N   N57       1.0  0.55840  0.50610  0.33070  1.0000 -0.3344200664
N   N58       1.0  0.82460  0.49390  0.05230  1.0000 -0.3344200664
N   N59       1.0  0.44160  0.77230  0.94770  1.0000 -0.3344200664
N   N60       1.0  0.17540  0.22770  0.66930  1.0000 -0.3344200664
N   N61       1.0  0.17540  0.94770  0.50610  1.0000 -0.3344200664
N   N62       1.0  0.44160  0.66930  0.49390  1.0000 -0.3344200664
N   N63       1.0  0.82460  0.33070  0.77230  1.0000 -0.3344200664
N   N64       1.0  0.55840  0.05230  0.22770  1.0000 -0.3344200664
N   N65       1.0  0.05230  0.22770  0.55840  1.0000 -0.3344200664
N   N66       1.0  0.33070  0.77230  0.82460  1.0000 -0.3344200664
N   N67       1.0  0.66930  0.49390  0.44160  1.0000 -0.3344200664
N   N68       1.0  0.94770  0.50610  0.17540  1.0000 -0.3344200664
N   N69       1.0  0.77230  0.82460  0.33070  1.0000 -0.3344200664
N   N70       1.0  0.22770  0.55840  0.05230  1.0000 -0.3344200664
N   N71       1.0  0.50610  0.17540  0.94770  1.0000 -0.3344200664
N   N72       1.0  0.49390  0.44160  0.66930  1.0000 -0.3344200664
N   N73       1.0  0.66930  0.44160  0.49390  1.0000 -0.3344200664
N   N74       1.0  0.94770  0.17540  0.50610  1.0000 -0.3344200664
N   N75       1.0  0.05230  0.55840  0.22770  1.0000 -0.3344200664
N   N76       1.0  0.33070  0.82460  0.77230  1.0000 -0.3344200664
N   N77       1.0  0.49390  0.66930  0.44160  1.0000 -0.3344200664
N   N78       1.0  0.50610  0.94770  0.17540  1.0000 -0.3344200664
N   N79       1.0  0.22770  0.05230  0.55840  1.0000 -0.3344200664
N   N80       1.0  0.77230  0.33070  0.82460  1.0000 -0.3344200664
N   N81       1.0  0.44160  0.49390  0.66930  1.0000 -0.3344200664
N   N82       1.0  0.17540  0.50610  0.94770  1.0000 -0.3344200664
N   N83       1.0  0.55840  0.22770  0.05230  1.0000 -0.3344200664
N   N84       1.0  0.82460  0.77230  0.33070  1.0000 -0.3344200664
N   N85       1.0  0.82460  0.05230  0.49390  1.0000 -0.3344200664
N   N86       1.0  0.55840  0.33070  0.50610  1.0000 -0.3344200664
N   N87       1.0  0.17540  0.66930  0.22770  1.0000 -0.3344200664
N   N88       1.0  0.44160  0.94770  0.77230  1.0000 -0.3344200664
N   N89       1.0  0.94770  0.77230  0.44160  1.0000 -0.3344200664
N   N90       1.0  0.66930  0.22770  0.17540  1.0000 -0.3344200664
N   N91       1.0  0.33070  0.50610  0.55840  1.0000 -0.3344200664
N   N92       1.0  0.05230  0.49390  0.82460  1.0000 -0.3344200664
N   N93       1.0  0.22770  0.17540  0.66930  1.0000 -0.3344200664
N   N94       1.0  0.77230  0.44160  0.94770  1.0000 -0.3344200664
N   N95       1.0  0.49390  0.82460  0.05230  1.0000 -0.3344200664
N   N96       1.0  0.50610  0.55840  0.33070  1.0000 -0.3344200664
N   N97       1.0  0.29090  0.68160  0.39070  1.0000 0.4495847363
N   N98       1.0  0.29090  0.90020  0.60930  1.0000 0.4495847363
N   N99       1.0  0.70910  0.31840  0.60930  1.0000 0.4495847363
N   N100      1.0  0.70910  0.09980  0.39070  1.0000 0.4495847363
N   N101      1.0  0.39070  0.29090  0.68160  1.0000 0.4495847363
N   N102      1.0  0.60930  0.29090  0.90020  1.0000 0.4495847363
N   N103      1.0  0.60930  0.70910  0.31840  1.0000 0.4495847363
N   N104      1.0  0.39070  0.70910  0.09980  1.0000 0.4495847363
N   N105      1.0  0.68160  0.39070  0.29090  1.0000 0.4495847363
N   N106      1.0  0.90020  0.60930  0.29090  1.0000 0.4495847363
N   N107      1.0  0.31840  0.60930  0.70910  1.0000 0.4495847363
N   N108      1.0  0.09980  0.39070  0.70910  1.0000 0.4495847363
N   N109      1.0  0.09980  0.70910  0.39070  1.0000 0.4495847363
N   N110      1.0  0.31840  0.70910  0.60930  1.0000 0.4495847363
N   N111      1.0  0.90020  0.29090  0.60930  1.0000 0.4495847363
N   N112      1.0  0.68160  0.29090  0.39070  1.0000 0.4495847363
N   N113      1.0  0.29090  0.39070  0.68160  1.0000 0.4495847363
N   N114      1.0  0.29090  0.60930  0.90020  1.0000 0.4495847363
N   N115      1.0  0.70910  0.60930  0.31840  1.0000 0.4495847363
N   N116      1.0  0.70910  0.39070  0.09980  1.0000 0.4495847363
N   N117      1.0  0.60930  0.90020  0.29090  1.0000 0.4495847363
N   N118      1.0  0.39070  0.68160  0.29090  1.0000 0.4495847363
N   N119      1.0  0.39070  0.09980  0.70910  1.0000 0.4495847363
N   N120      1.0  0.60930  0.31840  0.70910  1.0000 0.4495847363
N   N121      1.0  0.40840  0.61470  0.61470  1.0000 0.4384824896
N   N122      1.0  0.00000  0.79370  0.38530  1.0000 0.4384824896
N   N123      1.0  0.00000  0.38530  0.79370  1.0000 0.4384824896
N   N124      1.0  0.59160  0.20630  0.20630  1.0000 0.4384824896
N   N125      1.0  0.61470  0.40840  0.61470  1.0000 0.4384824896
N   N126      1.0  0.38530  0.00000  0.79370  1.0000 0.4384824896
N   N127      1.0  0.79370  0.00000  0.38530  1.0000 0.4384824896
N   N128      1.0  0.20630  0.59160  0.20630  1.0000 0.4384824896
N   N129      1.0  0.61470  0.61470  0.40840  1.0000 0.4384824896
N   N130      1.0  0.79370  0.38530  0.00000  1.0000 0.4384824896
N   N131      1.0  0.38530  0.79370  0.00000  1.0000 0.4384824896
N   N132      1.0  0.20630  0.20630  0.59160  1.0000 0.4384824896
N   N133      1.0  0.20630  0.00000  0.61470  1.0000 0.4384824896
N   N134      1.0  0.38530  0.59160  0.38530  1.0000 0.4384824896
N   N135      1.0  0.79370  0.40840  0.79370  1.0000 0.4384824896
N   N136      1.0  0.61470  0.00000  0.20630  1.0000 0.4384824896
N   N137      1.0  0.00000  0.20630  0.61470  1.0000 0.4384824896
N   N138      1.0  0.40840  0.79370  0.79370  1.0000 0.4384824896
N   N139      1.0  0.59160  0.38530  0.38530  1.0000 0.4384824896
N   N140      1.0  0.00000  0.61470  0.20630  1.0000 0.4384824896
N   N141      1.0  0.79370  0.79370  0.40840  1.0000 0.4384824896
N   N142      1.0  0.20630  0.61470  0.00000  1.0000 0.4384824896
N   N143      1.0  0.61470  0.20630  0.00000  1.0000 0.4384824896
N   N144      1.0  0.38530  0.38530  0.59160  1.0000 0.4384824896
O   O1        1.0  0.27440  0.69930  0.35470  1.0000 -0.3164460854
O   O2        1.0  0.34460  0.91970  0.64530  1.0000 -0.3164460854
O   O3        1.0  0.65540  0.30070  0.57510  1.0000 -0.3142545873
O   O4        1.0  0.72560  0.08030  0.42490  1.0000 -0.3164460854
O   O5        1.0  0.35470  0.27440  0.69930  1.0000 -0.3164460854
O   O6        1.0  0.64530  0.34460  0.91970  1.0000 -0.3164460854
O   O7        1.0  0.57510  0.65540  0.30070  1.0000 -0.3164460854
O   O8        1.0  0.42490  0.72560  0.08030  1.0000 -0.3164460854
O   O9        1.0  0.69930  0.35470  0.27440  1.0000 -0.3164460854
O   O10       1.0  0.91970  0.64530  0.34460  1.0000 -0.3164460854
O   O11       1.0  0.30070  0.57510  0.65540  1.0000 -0.3164460854
O   O12       1.0  0.08030  0.42490  0.72560  1.0000 -0.3164460854
O   O13       1.0  0.08030  0.65540  0.35470  1.0000 -0.3164460854
O   O14       1.0  0.30070  0.72560  0.64530  1.0000 -0.3164460854
O   O15       1.0  0.91970  0.27440  0.57510  1.0000 -0.3164460854
O   O16       1.0  0.69930  0.34460  0.42490  1.0000 -0.3164460854
O   O17       1.0  0.34460  0.42490  0.69930  1.0000 -0.3164460854
O   O18       1.0  0.27440  0.57510  0.91970  1.0000 -0.3164460854
O   O19       1.0  0.72560  0.64530  0.30070  1.0000 -0.3164460854
O   O20       1.0  0.65540  0.35470  0.08030  1.0000 -0.3164460854
O   O21       1.0  0.57510  0.91970  0.27440  1.0000 -0.3164460854
O   O22       1.0  0.42490  0.69930  0.34460  1.0000 -0.3164460854
O   O23       1.0  0.35470  0.08030  0.65540  1.0000 -0.3164460854
O   O24       1.0  0.64530  0.30070  0.72560  1.0000 -0.3164460854
O   O25       1.0  0.72560  0.30070  0.64530  1.0000 -0.3164460854
O   O26       1.0  0.65540  0.08030  0.35470  1.0000 -0.3164460854
O   O27       1.0  0.34460  0.69930  0.42490  1.0000 -0.3164460854
O   O28       1.0  0.27440  0.91970  0.57510  1.0000 -0.3164460854
O   O29       1.0  0.64530  0.72560  0.30070  1.0000 -0.3164460854
O   O30       1.0  0.35470  0.65540  0.08030  1.0000 -0.3164460854
O   O31       1.0  0.42490  0.34460  0.69930  1.0000 -0.3164460854
O   O32       1.0  0.57510  0.27440  0.91970  1.0000 -0.3142545873
O   O33       1.0  0.30070  0.64530  0.72560  1.0000 -0.3164460854
O   O34       1.0  0.08030  0.35470  0.65540  1.0000 -0.3164460854
O   O35       1.0  0.69930  0.42490  0.34460  1.0000 -0.3164460854
O   O36       1.0  0.91970  0.57510  0.27440  1.0000 -0.3164460854
O   O37       1.0  0.91970  0.34460  0.64530  1.0000 -0.3164460854
O   O38       1.0  0.69930  0.27440  0.35470  1.0000 -0.3164460854
O   O39       1.0  0.08030  0.72560  0.42490  1.0000 -0.3164460854
O   O40       1.0  0.30070  0.65540  0.57510  1.0000 -0.3164460854
O   O41       1.0  0.65540  0.57510  0.30070  1.0000 -0.3164460854
O   O42       1.0  0.72560  0.42490  0.08030  1.0000 -0.3164460854
O   O43       1.0  0.27440  0.35470  0.69930  1.0000 -0.3164460854
O   O44       1.0  0.34460  0.64530  0.91970  1.0000 -0.3164460854
O   O45       1.0  0.42490  0.08030  0.72560  1.0000 -0.3164460854
O   O46       1.0  0.57510  0.30070  0.65540  1.0000 -0.3164460854
O   O47       1.0  0.64530  0.91970  0.34460  1.0000 -0.3164460854
O   O48       1.0  0.35470  0.69930  0.27440  1.0000 -0.3164460854
O   O49       1.0  0.43020  0.61210  0.66210  1.0000 -0.3371312149
O   O50       1.0  0.95000  0.76810  0.33790  1.0000 -0.3371312149
O   O51       1.0  0.05000  0.38790  0.81810  1.0000 -0.3371312149
O   O52       1.0  0.56980  0.23190  0.18190  1.0000 -0.3371312149
O   O53       1.0  0.66210  0.43020  0.61210  1.0000 -0.3371312149
O   O54       1.0  0.33790  0.95000  0.76810  1.0000 -0.3371312149
O   O55       1.0  0.81810  0.05000  0.38790  1.0000 -0.3371312149
O   O56       1.0  0.18190  0.56980  0.23190  1.0000 -0.3371312149
O   O57       1.0  0.61210  0.66210  0.43020  1.0000 -0.3371312149
O   O58       1.0  0.76810  0.33790  0.95000  1.0000 -0.3371312149
O   O59       1.0  0.38790  0.81810  0.05000  1.0000 -0.3371312149
O   O60       1.0  0.23190  0.18190  0.56980  1.0000 -0.3371312149
O   O61       1.0  0.23190  0.05000  0.66210  1.0000 -0.3371312149
O   O62       1.0  0.38790  0.56980  0.33790  1.0000 -0.3371312149
O   O63       1.0  0.76810  0.43020  0.81810  1.0000 -0.3371312149
O   O64       1.0  0.61210  0.95000  0.18190  1.0000 -0.3371312149
O   O65       1.0  0.95000  0.18190  0.61210  1.0000 -0.3371312149
O   O66       1.0  0.43020  0.81810  0.76810  1.0000 -0.3371312149
O   O67       1.0  0.56980  0.33790  0.38790  1.0000 -0.3371312149
O   O68       1.0  0.05000  0.66210  0.23190  1.0000 -0.3371312149
O   O69       1.0  0.81810  0.76810  0.43020  1.0000 -0.3371312149
O   O70       1.0  0.18190  0.61210  0.95000  1.0000 -0.3371312149
O   O71       1.0  0.66210  0.23190  0.05000  1.0000 -0.3371312149
O   O72       1.0  0.33790  0.38790  0.56980  1.0000 -0.3371312149
O   O73       1.0  0.56980  0.38790  0.33790  1.0000 -0.3371312149
O   O74       1.0  0.05000  0.23190  0.66210  1.0000 -0.3371312149
O   O75       1.0  0.95000  0.61210  0.18190  1.0000 -0.3371312149
O   O76       1.0  0.43020  0.76810  0.81810  1.0000 -0.3371312149
O   O77       1.0  0.33790  0.56980  0.38790  1.0000 -0.3371312149
O   O78       1.0  0.66210  0.05000  0.23190  1.0000 -0.3371312149
O   O79       1.0  0.18190  0.95000  0.61210  1.0000 -0.3371312149
O   O80       1.0  0.81810  0.43020  0.76810  1.0000 -0.3371312149
O   O81       1.0  0.38790  0.33790  0.56980  1.0000 -0.3371312149
O   O82       1.0  0.23190  0.66210  0.05000  1.0000 -0.3371312149
O   O83       1.0  0.61210  0.18190  0.95000  1.0000 -0.3371312149
O   O84       1.0  0.76810  0.81810  0.43020  1.0000 -0.3371312149
O   O85       1.0  0.76810  0.95000  0.33790  1.0000 -0.3371312149
O   O86       1.0  0.61210  0.43020  0.66210  1.0000 -0.3371312149
O   O87       1.0  0.23190  0.56980  0.18190  1.0000 -0.3371312149
O   O88       1.0  0.38790  0.05000  0.81810  1.0000 -0.3371312149
O   O89       1.0  0.05000  0.81810  0.38790  1.0000 -0.3371312149
O   O90       1.0  0.56980  0.18190  0.23190  1.0000 -0.3371312149
O   O91       1.0  0.43020  0.66210  0.61210  1.0000 -0.3371312149
O   O92       1.0  0.95000  0.33790  0.76810  1.0000 -0.3371312149
O   O93       1.0  0.18190  0.23190  0.56980  1.0000 -0.3371312149
O   O94       1.0  0.81810  0.38790  0.05000  1.0000 -0.3371312149
O   O95       1.0  0.33790  0.76810  0.95000  1.0000 -0.3371312149
O   O96       1.0  0.66210  0.61210  0.43020  1.0000 -0.3371312149
