# DDEC6 charges by PACMAN v1.1 (https://github.com/mtap-research/PACMAN-charge/)
data_2009[In][ctn]3[ASR]3
_chemical_formula_sum              "In6 H24 C72 O48"
_cell_length_a       17.8003
_cell_length_b       17.8003
_cell_length_c       17.8003
_cell_angle_alpha    109.959
_cell_angle_beta     109.959
_cell_angle_gamma    109.959

_symmetry_space_group_name_H-M    "P 1"
_symmetry_Int_Tables_number       1

loop_
  _symmetry_equiv_pos_as_xyz
  'x, y, z'

loop_
  _atom_site_type_symbol
  _atom_site_label
  _atom_site_symmetry_multiplicity
  _atom_site_fract_x
  _atom_site_fract_y
  _atom_site_fract_z
  _atom_site_occupancy
  _atom_site_charge
In  In1       1.0  0.58058  0.80804  0.95491  1.0000 1.343570358
In  In2       1.0  0.80804  0.95491  0.58058  1.0000 1.343570358
In  In3       1.0  0.95491  0.58058  0.80804  1.0000 1.343570358
In  In4       1.0  0.08058  0.45491  0.30804  1.0000 1.343570358
In  In5       1.0  0.30804  0.08058  0.45491  1.0000 1.343570358
In  In6       1.0  0.45491  0.30804  0.08058  1.0000 1.343570358
H   H1        1.0  0.55120  0.06760  0.02950  1.0000 0.1436960413
H   H2        1.0  0.06760  0.02950  0.55120  1.0000 0.1436960413
H   H3        1.0  0.02950  0.55120  0.06760  1.0000 0.1436960413
H   H4        1.0  0.05120  0.52950  0.56760  1.0000 0.1436960413
H   H5        1.0  0.56760  0.05120  0.52950  1.0000 0.1436960413
H   H6        1.0  0.52950  0.56760  0.05120  1.0000 0.1436960413
H   H7        1.0  0.74400  0.33980  0.16150  1.0000 0.1473016653
H   H8        1.0  0.33980  0.16150  0.74400  1.0000 0.1473016653
H   H9        1.0  0.16150  0.74400  0.33980  1.0000 0.1473016653
H   H10       1.0  0.24400  0.66150  0.83980  1.0000 0.1473016653
H   H11       1.0  0.83980  0.24400  0.66150  1.0000 0.1473016653
H   H12       1.0  0.66150  0.83980  0.24400  1.0000 0.1473016653
H   H13       1.0  0.81890  0.14610  0.13360  1.0000 0.1473016653
H   H14       1.0  0.14610  0.13360  0.81890  1.0000 0.1473016653
H   H15       1.0  0.13360  0.81890  0.14610  1.0000 0.1473016653
H   H16       1.0  0.31890  0.63360  0.64610  1.0000 0.1473016653
H   H17       1.0  0.64610  0.31890  0.63360  1.0000 0.1473016653
H   H18       1.0  0.63360  0.64610  0.31890  1.0000 0.1473016653
H   H19       1.0  0.78120  0.72340  0.88180  1.0000 0.1473016653
H   H20       1.0  0.72340  0.88180  0.78120  1.0000 0.1473016653
H   H21       1.0  0.88180  0.78120  0.72340  1.0000 0.1473016653
H   H22       1.0  0.28120  0.38180  0.22340  1.0000 0.1473016653
H   H23       1.0  0.22340  0.28120  0.38180  1.0000 0.1473016653
H   H24       1.0  0.38180  0.22340  0.28120  1.0000 0.1473016653
C   C1        1.0  0.68490  0.09550  0.07970  1.0000 0.0086826538
C   C2        1.0  0.09550  0.07970  0.68490  1.0000 0.0086826538
C   C3        1.0  0.07970  0.68490  0.09550  1.0000 0.0086826538
C   C4        1.0  0.18490  0.57970  0.59550  1.0000 0.0086826538
C   C5        1.0  0.59550  0.18490  0.57970  1.0000 0.0086826538
C   C6        1.0  0.57970  0.59550  0.18490  1.0000 0.0086826538
C   C7        1.0  0.61340  0.11560  0.06390  1.0000 -0.0627896194
C   C8        1.0  0.11560  0.06390  0.61340  1.0000 -0.0627896194
C   C9        1.0  0.06390  0.61340  0.11560  1.0000 -0.0627896194
C   C10       1.0  0.11340  0.56390  0.61560  1.0000 -0.0627896194
C   C11       1.0  0.61560  0.11340  0.56390  1.0000 -0.0627896194
C   C12       1.0  0.56390  0.61560  0.11340  1.0000 -0.0627896194
C   C13       1.0  0.63640  0.20900  0.10080  1.0000 -0.0182472195
C   C14       1.0  0.20900  0.10080  0.63640  1.0000 -0.0182472195
C   C15       1.0  0.10080  0.63640  0.20900  1.0000 -0.0182472195
C   C16       1.0  0.13640  0.60080  0.70900  1.0000 -0.0182472195
C   C17       1.0  0.70900  0.13640  0.60080  1.0000 -0.0182472195
C   C18       1.0  0.60080  0.70900  0.13640  1.0000 -0.0182472195
C   C19       1.0  0.72880  0.27840  0.14210  1.0000 -0.0689041551
C   C20       1.0  0.27840  0.14210  0.72880  1.0000 -0.0689041551
C   C21       1.0  0.14210  0.72880  0.27840  1.0000 -0.0689041551
C   C22       1.0  0.22880  0.64210  0.77840  1.0000 -0.0689041551
C   C23       1.0  0.77840  0.22880  0.64210  1.0000 -0.0689041551
C   C24       1.0  0.64210  0.77840  0.22880  1.0000 -0.0689041551
C   C25       1.0  0.79860  0.25680  0.15480  1.0000 0.0009385648
C   C26       1.0  0.25680  0.15480  0.79860  1.0000 0.0009385648
C   C27       1.0  0.15480  0.79860  0.25680  1.0000 0.0009385648
C   C28       1.0  0.29860  0.65480  0.75680  1.0000 0.0009385648
C   C29       1.0  0.75680  0.29860  0.65480  1.0000 0.0009385648
C   C30       1.0  0.65480  0.75680  0.29860  1.0000 0.0009385648
C   C31       1.0  0.77280  0.16150  0.12320  1.0000 -0.0770830411
C   C32       1.0  0.16150  0.12320  0.77280  1.0000 -0.0770830411
C   C33       1.0  0.12320  0.77280  0.16150  1.0000 -0.0770830411
C   C34       1.0  0.27280  0.62320  0.66150  1.0000 -0.0770830411
C   C35       1.0  0.66150  0.27280  0.62320  1.0000 -0.0770830411
C   C36       1.0  0.62320  0.66150  0.27280  1.0000 -0.0770830411
C   C37       1.0  0.65670  0.99180  0.04150  1.0000 0.539368818
C   C38       1.0  0.99180  0.04150  0.65670  1.0000 0.539368818
C   C39       1.0  0.04150  0.65670  0.99180  1.0000 0.539368818
C   C40       1.0  0.15670  0.54150  0.49180  1.0000 0.539368818
C   C41       1.0  0.49180  0.15670  0.54150  1.0000 0.539368818
C   C42       1.0  0.54150  0.49180  0.15670  1.0000 0.539368818
C   C43       1.0  0.58830  0.73380  0.06370  1.0000 0.546108729
C   C44       1.0  0.73380  0.06370  0.58830  1.0000 0.546108729
C   C45       1.0  0.06370  0.58830  0.73380  1.0000 0.546108729
C   C46       1.0  0.08830  0.56370  0.23380  1.0000 0.546108729
C   C47       1.0  0.23380  0.08830  0.56370  1.0000 0.546108729
C   C48       1.0  0.56370  0.23380  0.08830  1.0000 0.546108729
C   C49       1.0  0.39810  0.70510  0.83110  1.0000 0.539368818
C   C50       1.0  0.70510  0.83110  0.39810  1.0000 0.539368818
C   C51       1.0  0.83110  0.39810  0.70510  1.0000 0.539368818
C   C52       1.0  0.89810  0.33110  0.20510  1.0000 0.539368818
C   C53       1.0  0.20510  0.89810  0.33110  1.0000 0.539368818
C   C54       1.0  0.33110  0.20510  0.89810  1.0000 0.539368818
C   C55       1.0  0.78580  0.75110  0.84650  1.0000 -0.0914740499
C   C56       1.0  0.75110  0.84650  0.78580  1.0000 -0.0914740499
C   C57       1.0  0.84650  0.78580  0.75110  1.0000 -0.0914740499
C   C58       1.0  0.28580  0.34650  0.25110  1.0000 -0.0914740499
C   C59       1.0  0.25110  0.28580  0.34650  1.0000 -0.0914740499
C   C60       1.0  0.34650  0.25110  0.28580  1.0000 -0.0914740499
C   C61       1.0  0.74230  0.80160  0.83710  1.0000 0.0175043746
C   C62       1.0  0.80160  0.83710  0.74230  1.0000 0.0175043746
C   C63       1.0  0.83710  0.74230  0.80160  1.0000 0.0175043746
C   C64       1.0  0.24230  0.33710  0.30160  1.0000 0.0175043746
C   C65       1.0  0.30160  0.24230  0.33710  1.0000 0.0175043746
C   C66       1.0  0.33710  0.30160  0.24230  1.0000 0.0175043746
C   C67       1.0  0.68570  0.81130  0.88160  1.0000 0.539368818
C   C68       1.0  0.81130  0.88160  0.68570  1.0000 0.539368818
C   C69       1.0  0.88160  0.68570  0.81130  1.0000 0.539368818
C   C70       1.0  0.18570  0.38160  0.31130  1.0000 0.539368818
C   C71       1.0  0.31130  0.18570  0.38160  1.0000 0.539368818
C   C72       1.0  0.38160  0.31130  0.18570  1.0000 0.539368818
O   O1        1.0  0.71870  0.97390  0.06070  1.0000 -0.4173188642
O   O2        1.0  0.97390  0.06070  0.71870  1.0000 -0.4173188642
O   O3        1.0  0.06070  0.71870  0.97390  1.0000 -0.4173188642
O   O4        1.0  0.21870  0.56070  0.47390  1.0000 -0.4173188642
O   O5        1.0  0.47390  0.21870  0.56070  1.0000 -0.4173188642
O   O6        1.0  0.56070  0.47390  0.21870  1.0000 -0.4173188642
O   O7        1.0  0.57160  0.93200  0.99230  1.0000 -0.4801002578
O   O8        1.0  0.93200  0.99230  0.57160  1.0000 -0.4801002578
O   O9        1.0  0.99230  0.57160  0.93200  1.0000 -0.4801002578
O   O10       1.0  0.07160  0.49230  0.43200  1.0000 -0.4801002578
O   O11       1.0  0.43200  0.07160  0.49230  1.0000 -0.4801002578
O   O12       1.0  0.49230  0.43200  0.07160  1.0000 -0.4801002578
O   O13       1.0  0.62270  0.82120  0.08950  1.0000 -0.5089205986
O   O14       1.0  0.82120  0.08950  0.62270  1.0000 -0.5089205986
O   O15       1.0  0.08950  0.62270  0.82120  1.0000 -0.5089205986
O   O16       1.0  0.12270  0.58950  0.32120  1.0000 -0.5089205986
O   O17       1.0  0.32120  0.12270  0.58950  1.0000 -0.5089205986
O   O18       1.0  0.58950  0.32120  0.12270  1.0000 -0.5089205986
O   O19       1.0  0.54700  0.67190  0.97730  1.0000 -0.4610227829
O   O20       1.0  0.67190  0.97730  0.54700  1.0000 -0.4610227829
O   O21       1.0  0.97730  0.54700  0.67190  1.0000 -0.4610227829
O   O22       1.0  0.04700  0.47730  0.17190  1.0000 -0.4610227829
O   O23       1.0  0.17190  0.04700  0.47730  1.0000 -0.4610227829
O   O24       1.0  0.47730  0.17190  0.04700  1.0000 -0.4610227829
O   O25       1.0  0.42140  0.74550  0.91560  1.0000 -0.4706227964
O   O26       1.0  0.74550  0.91560  0.42140  1.0000 -0.4706227964
O   O27       1.0  0.91560  0.42140  0.74550  1.0000 -0.4706227964
O   O28       1.0  0.92140  0.41560  0.24550  1.0000 -0.4706227964
O   O29       1.0  0.24550  0.92140  0.41560  1.0000 -0.4706227964
O   O30       1.0  0.41560  0.24550  0.92140  1.0000 -0.4706227964
O   O31       1.0  0.46090  0.70930  0.81060  1.0000 -0.5089205986
O   O32       1.0  0.70930  0.81060  0.46090  1.0000 -0.5089205986
O   O33       1.0  0.81060  0.46090  0.70930  1.0000 -0.5089205986
O   O34       1.0  0.96090  0.31060  0.20930  1.0000 -0.5089205986
O   O35       1.0  0.20930  0.96090  0.31060  1.0000 -0.5089205986
O   O36       1.0  0.31060  0.20930  0.96090  1.0000 -0.5089205986
O   O37       1.0  0.64120  0.85110  0.86650  1.0000 -0.4610227829
O   O38       1.0  0.85110  0.86650  0.64120  1.0000 -0.4610227829
O   O39       1.0  0.86650  0.64120  0.85110  1.0000 -0.4610227829
O   O40       1.0  0.14120  0.36650  0.35110  1.0000 -0.4610227829
O   O41       1.0  0.35110  0.14120  0.36650  1.0000 -0.4610227829
O   O42       1.0  0.36650  0.35110  0.14120  1.0000 -0.4610227829
O   O43       1.0  0.68000  0.77320  0.92990  1.0000 -0.4940854049
O   O44       1.0  0.77320  0.92990  0.68000  1.0000 -0.4940854049
O   O45       1.0  0.92990  0.68000  0.77320  1.0000 -0.4940854049
O   O46       1.0  0.18000  0.42990  0.27320  1.0000 -0.4940854049
O   O47       1.0  0.27320  0.18000  0.42990  1.0000 -0.4940854049
O   O48       1.0  0.42990  0.27320  0.18000  1.0000 -0.4940854049
