# DDEC6 charges by PACMAN v1.1 (https://github.com/mtap-research/PACMAN-charge/)
data_2009[Mn][mog]3[ASR]1
_chemical_formula_sum              "Mn2 H20 C30 N2 O12"
_cell_length_a       9.78451
_cell_length_b       9.78451
_cell_length_c       12.7425
_cell_angle_alpha    87.2465
_cell_angle_beta     92.7535
_cell_angle_gamma    57.8845

_symmetry_space_group_name_H-M    "P 1"
_symmetry_Int_Tables_number       1

loop_
  _symmetry_equiv_pos_as_xyz
  'x, y, z'

loop_
  _atom_site_type_symbol
  _atom_site_label
  _atom_site_symmetry_multiplicity
  _atom_site_fract_x
  _atom_site_fract_y
  _atom_site_fract_z
  _atom_site_occupancy
  _atom_site_charge
Mn  Mn1       1.0  0.65426  0.65426  0.00000  1.0000 0.9862421156
Mn  Mn2       1.0  0.34574  0.34574  0.00000  1.0000 0.9862421156
H   H1        1.0  0.43560  0.33060  0.57420  1.0000 0.1383804668
H   H2        1.0  0.33060  0.43560  0.42580  1.0000 0.1383804668
H   H3        1.0  0.56440  0.66940  0.42580  1.0000 0.1383804668
H   H4        1.0  0.66940  0.56440  0.57420  1.0000 0.1383804668
H   H5        1.0  0.55540  0.21600  0.74100  1.0000 0.1383804668
H   H6        1.0  0.21600  0.55540  0.25900  1.0000 0.1383804668
H   H7        1.0  0.44460  0.78400  0.25900  1.0000 0.1383804668
H   H8        1.0  0.78400  0.44460  0.74100  1.0000 0.1383804668
H   H9        1.0  0.06330  0.17210  0.85570  1.0000 0.1287444483
H   H10       1.0  0.17210  0.06330  0.14430  1.0000 0.1287444483
H   H11       1.0  0.93670  0.82790  0.14430  1.0000 0.1287444483
H   H12       1.0  0.82790  0.93670  0.85570  1.0000 0.1287444483
H   H13       1.0  0.31170  0.92470  0.86130  1.0000 0.1177241084
H   H14       1.0  0.92470  0.31170  0.13870  1.0000 0.1177241084
H   H15       1.0  0.68830  0.07530  0.13870  1.0000 0.1177241084
H   H16       1.0  0.07530  0.68830  0.86130  1.0000 0.1177241084
H   H17       1.0  0.68400  0.21600  0.89200  1.0000 0.1383804668
H   H18       1.0  0.21600  0.68400  0.10800  1.0000 0.1383804668
H   H19       1.0  0.31600  0.78400  0.10800  1.0000 0.1383804668
H   H20       1.0  0.78400  0.31600  0.89200  1.0000 0.1383804668
C   C1        1.0  0.54020  0.45980  0.55280  1.0000 0.1177241084
C   C2        1.0  0.45980  0.54020  0.44720  1.0000 0.1177241084
C   C3        1.0  0.50890  0.35490  0.60640  1.0000 -0.1892360895
C   C4        1.0  0.35490  0.50890  0.39360  1.0000 -0.1892360895
C   C5        1.0  0.49110  0.64510  0.39360  1.0000 -0.1892360895
C   C6        1.0  0.64510  0.49110  0.60640  1.0000 -0.1892360895
C   C7        1.0  0.58130  0.28550  0.70490  1.0000 0.0494589993
C   C8        1.0  0.28550  0.58130  0.29510  1.0000 0.0494589993
C   C9        1.0  0.41870  0.71450  0.29510  1.0000 0.0494589993
C   C10       1.0  0.71450  0.41870  0.70490  1.0000 0.0494589993
C   C11       1.0  0.76450  0.23550  0.85960  1.0000 -0.1892360895
C   C12       1.0  0.23550  0.76450  0.14040  1.0000 -0.1892360895
C   C13       1.0  0.92330  0.07670  0.85580  1.0000 0.1091984214
C   C14       1.0  0.07670  0.92330  0.14420  1.0000 0.1091984214
C   C15       1.0  0.06590  0.07350  0.85750  1.0000 -0.145652905
C   C16       1.0  0.07350  0.06590  0.14250  1.0000 -0.145652905
C   C17       1.0  0.93410  0.92650  0.14250  1.0000 -0.145652905
C   C18       1.0  0.92650  0.93410  0.85750  1.0000 -0.145652905
C   C19       1.0  0.21400  0.92620  0.86190  1.0000 -0.0915543585
C   C20       1.0  0.92620  0.21400  0.13810  1.0000 -0.0915543585
C   C21       1.0  0.78600  0.07380  0.13810  1.0000 -0.0915543585
C   C22       1.0  0.07380  0.78600  0.86190  1.0000 -0.0915543585
C   C23       1.0  0.21870  0.78130  0.86720  1.0000 -0.0426412782
C   C24       1.0  0.78130  0.21870  0.13280  1.0000 -0.0426412782
C   C25       1.0  0.37750  0.62250  0.88250  1.0000 0.5773394109
C   C26       1.0  0.62250  0.37750  0.11750  1.0000 0.5773394109
C   C27       1.0  0.46820  0.99640  0.05310  1.0000 0.4559767843
C   C28       1.0  0.99640  0.46820  0.94690  1.0000 0.4559767843
C   C29       1.0  0.53180  0.00360  0.94690  1.0000 0.4559767843
C   C30       1.0  0.00360  0.53180  0.05310  1.0000 0.4559767843
N   N1        1.0  0.68680  0.31320  0.75090  1.0000 0.1287444483
N   N2        1.0  0.31320  0.68680  0.24910  1.0000 0.1287444483
O   O1        1.0  0.50543  0.62383  0.88770  1.0000 -0.5577369927
O   O2        1.0  0.62383  0.50543  0.11230  1.0000 -0.5577369927
O   O3        1.0  0.49457  0.37617  0.11230  1.0000 -0.5577369927
O   O4        1.0  0.37617  0.49457  0.88770  1.0000 -0.5577369927
O   O5        1.0  0.50180  0.86080  0.09150  1.0000 -0.5176731198
O   O6        1.0  0.86080  0.50180  0.90850  1.0000 -0.5176731198
O   O7        1.0  0.49820  0.13920  0.90850  1.0000 -0.5176731198
O   O8        1.0  0.13920  0.49820  0.09150  1.0000 -0.5176731198
O   O9        1.0  0.38785  0.12685  0.09460  1.0000 -0.5088778435
O   O10       1.0  0.12685  0.38785  0.90540  1.0000 -0.5088778435
O   O11       1.0  0.61215  0.87315  0.90540  1.0000 -0.5088778435
O   O12       1.0  0.87315  0.61215  0.09460  1.0000 -0.5088778435
