# DDEC6 charges by PACMAN v1.1 (https://github.com/mtap-research/PACMAN-charge/)
data_2009[Zn][pcu]3[ASR]9
_chemical_formula_sum              "Zn8 H96 C144 N16 O48"
_cell_length_a       17.48
_cell_length_b       17.48
_cell_length_c       22.69
_cell_angle_alpha    90
_cell_angle_beta     90
_cell_angle_gamma    90

_symmetry_space_group_name_H-M    "P 1"
_symmetry_Int_Tables_number       1

loop_
  _symmetry_equiv_pos_as_xyz
  'x, y, z'

loop_
  _atom_site_type_symbol
  _atom_site_label
  _atom_site_symmetry_multiplicity
  _atom_site_fract_x
  _atom_site_fract_y
  _atom_site_fract_z
  _atom_site_occupancy
  _atom_site_charge
Zn  Zn1       1.0  0.43167  0.91705  0.20296  1.0000 0.7962760701
Zn  Zn2       1.0  0.56833  0.08295  0.20296  1.0000 0.7962760701
Zn  Zn3       1.0  0.93167  0.58295  0.29704  1.0000 0.7962760701
Zn  Zn4       1.0  0.06833  0.41705  0.29704  1.0000 0.7962760701
Zn  Zn5       1.0  0.41705  0.93167  0.70296  1.0000 0.7962760701
Zn  Zn6       1.0  0.58295  0.06833  0.70296  1.0000 0.7962760701
Zn  Zn7       1.0  0.08295  0.43167  0.79704  1.0000 0.7962760701
Zn  Zn8       1.0  0.91705  0.56833  0.79704  1.0000 0.7962760701
H   H1        1.0  0.36010  0.02510  0.49500  1.0000 0.1339582055
H   H2        1.0  0.63990  0.97490  0.49500  1.0000 0.1339582055
H   H3        1.0  0.86010  0.47490  0.00500  1.0000 0.1339582055
H   H4        1.0  0.13990  0.52510  0.00500  1.0000 0.1339582055
H   H5        1.0  0.52510  0.86010  0.99500  1.0000 0.1339582055
H   H6        1.0  0.47490  0.13990  0.99500  1.0000 0.1339582055
H   H7        1.0  0.97490  0.36010  0.50500  1.0000 0.1339582055
H   H8        1.0  0.02510  0.63990  0.50500  1.0000 0.1339582055
H   H9        1.0  0.44550  0.22090  0.22800  1.0000 0.3539588823
H   H10       1.0  0.55450  0.77910  0.22800  1.0000 0.3539588823
H   H11       1.0  0.94550  0.27910  0.27200  1.0000 0.3539588823
H   H12       1.0  0.05450  0.72090  0.27200  1.0000 0.3539588823
H   H13       1.0  0.72090  0.94550  0.72800  1.0000 0.3539588823
H   H14       1.0  0.27910  0.05450  0.72800  1.0000 0.3539588823
H   H15       1.0  0.77910  0.44550  0.77200  1.0000 0.3539588823
H   H16       1.0  0.22090  0.55450  0.77200  1.0000 0.3539588823
H   H17       1.0  0.29040  0.31520  0.26540  1.0000 0.1386814926
H   H18       1.0  0.70960  0.68480  0.26540  1.0000 0.1386814926
H   H19       1.0  0.79040  0.18480  0.23460  1.0000 0.1386814926
H   H20       1.0  0.20960  0.81520  0.23460  1.0000 0.1386814926
H   H21       1.0  0.81520  0.79040  0.76540  1.0000 0.1386814926
H   H22       1.0  0.18480  0.20960  0.76540  1.0000 0.1386814926
H   H23       1.0  0.68480  0.29040  0.73460  1.0000 0.1386814926
H   H24       1.0  0.31520  0.70960  0.73460  1.0000 0.1386814926
H   H25       1.0  0.53260  0.87280  0.31410  1.0000 0.1035502676
H   H26       1.0  0.46740  0.12720  0.31410  1.0000 0.1035502676
H   H27       1.0  0.03260  0.62720  0.18590  1.0000 0.1035502676
H   H28       1.0  0.96740  0.37280  0.18590  1.0000 0.1035502676
H   H29       1.0  0.37280  0.03260  0.81410  1.0000 0.1035502676
H   H30       1.0  0.62720  0.96740  0.81410  1.0000 0.1035502676
H   H31       1.0  0.12720  0.53260  0.68590  1.0000 0.1035502676
H   H32       1.0  0.87280  0.46740  0.68590  1.0000 0.1035502676
H   H33       1.0  0.09140  0.15810  0.25720  1.0000 0.3622759766
H   H34       1.0  0.90860  0.84190  0.25720  1.0000 0.3622759766
H   H35       1.0  0.59140  0.34190  0.24280  1.0000 0.3622759766
H   H36       1.0  0.40860  0.65810  0.24280  1.0000 0.3622759766
H   H37       1.0  0.65810  0.59140  0.75720  1.0000 0.3622759766
H   H38       1.0  0.34190  0.40860  0.75720  1.0000 0.3622759766
H   H39       1.0  0.84190  0.09140  0.74280  1.0000 0.3622759766
H   H40       1.0  0.15810  0.90860  0.74280  1.0000 0.3622759766
H   H41       1.0  0.46800  0.83140  0.60380  1.0000 0.1185130178
H   H42       1.0  0.53200  0.16860  0.60380  1.0000 0.1185130178
H   H43       1.0  0.96800  0.66860  0.89620  1.0000 0.1185130178
H   H44       1.0  0.03200  0.33140  0.89620  1.0000 0.1185130178
H   H45       1.0  0.33140  0.96800  0.10380  1.0000 0.1185130178
H   H46       1.0  0.66860  0.03200  0.10380  1.0000 0.1185130178
H   H47       1.0  0.16860  0.46800  0.39620  1.0000 0.1185130178
H   H48       1.0  0.83140  0.53200  0.39620  1.0000 0.1185130178
H   H49       1.0  0.33070  0.96900  0.30300  1.0000 0.1185130178
H   H50       1.0  0.66930  0.03100  0.30300  1.0000 0.1185130178
H   H51       1.0  0.83070  0.53100  0.19700  1.0000 0.1185130178
H   H52       1.0  0.16930  0.46900  0.19700  1.0000 0.1185130178
H   H53       1.0  0.46900  0.83070  0.80300  1.0000 0.1185130178
H   H54       1.0  0.53100  0.16930  0.80300  1.0000 0.1185130178
H   H55       1.0  0.03100  0.33070  0.69700  1.0000 0.1185130178
H   H56       1.0  0.96900  0.66930  0.69700  1.0000 0.1185130178
H   H57       1.0  0.36200  0.02950  0.59540  1.0000 0.1185130178
H   H58       1.0  0.63800  0.97050  0.59540  1.0000 0.1185130178
H   H59       1.0  0.86200  0.47050  0.90460  1.0000 0.1185130178
H   H60       1.0  0.13800  0.52950  0.90460  1.0000 0.1185130178
H   H61       1.0  0.52950  0.86200  0.09540  1.0000 0.1185130178
H   H62       1.0  0.47050  0.13800  0.09540  1.0000 0.1185130178
H   H63       1.0  0.97050  0.36200  0.40460  1.0000 0.1185130178
H   H64       1.0  0.02950  0.63800  0.40460  1.0000 0.1185130178
H   H65       1.0  0.47190  0.82400  0.50310  1.0000 0.1386814926
H   H66       1.0  0.52810  0.17600  0.50310  1.0000 0.1386814926
H   H67       1.0  0.97190  0.67600  0.99690  1.0000 0.1386814926
H   H68       1.0  0.02810  0.32400  0.99690  1.0000 0.1386814926
H   H69       1.0  0.32400  0.97190  0.00310  1.0000 0.1386814926
H   H70       1.0  0.67600  0.02810  0.00310  1.0000 0.1386814926
H   H71       1.0  0.17600  0.47190  0.49690  1.0000 0.1386814926
H   H72       1.0  0.82400  0.52810  0.49690  1.0000 0.1386814926
H   H73       1.0  0.52760  0.87260  0.41510  1.0000 0.1339582055
H   H74       1.0  0.47240  0.12740  0.41510  1.0000 0.1339582055
H   H75       1.0  0.02760  0.62740  0.08490  1.0000 0.1339582055
H   H76       1.0  0.97240  0.37260  0.08490  1.0000 0.1339582055
H   H77       1.0  0.37260  0.02760  0.91510  1.0000 0.1339582055
H   H78       1.0  0.62740  0.97240  0.91510  1.0000 0.1339582055
H   H79       1.0  0.12740  0.52760  0.58490  1.0000 0.1339582055
H   H80       1.0  0.87260  0.47240  0.58490  1.0000 0.1339582055
H   H81       1.0  0.24740  0.05780  0.22390  1.0000 0.1386814926
H   H82       1.0  0.75260  0.94220  0.22390  1.0000 0.1386814926
H   H83       1.0  0.74740  0.44220  0.27610  1.0000 0.1386814926
H   H84       1.0  0.25260  0.55780  0.27610  1.0000 0.1386814926
H   H85       1.0  0.55780  0.74740  0.72390  1.0000 0.1386814926
H   H86       1.0  0.44220  0.25260  0.72390  1.0000 0.1386814926
H   H87       1.0  0.94220  0.24740  0.77610  1.0000 0.1386814926
H   H88       1.0  0.05780  0.75260  0.77610  1.0000 0.1386814926
H   H89       1.0  0.31930  0.97210  0.40450  1.0000 0.1386814926
H   H90       1.0  0.68070  0.02790  0.40450  1.0000 0.1386814926
H   H91       1.0  0.81930  0.52790  0.09550  1.0000 0.1386814926
H   H92       1.0  0.18070  0.47210  0.09550  1.0000 0.1386814926
H   H93       1.0  0.47210  0.81930  0.90450  1.0000 0.1386814926
H   H94       1.0  0.52790  0.18070  0.90450  1.0000 0.1386814926
H   H95       1.0  0.02790  0.31930  0.59550  1.0000 0.1386814926
H   H96       1.0  0.97210  0.68070  0.59550  1.0000 0.1386814926
C   C1        1.0  0.41840  0.92420  0.48640  1.0000 0.1035502676
C   C2        1.0  0.58160  0.07580  0.48640  1.0000 0.1035502676
C   C3        1.0  0.91840  0.57580  0.01360  1.0000 0.1035502676
C   C4        1.0  0.08160  0.42420  0.01360  1.0000 0.1035502676
C   C5        1.0  0.42420  0.91840  0.98640  1.0000 0.1035502676
C   C6        1.0  0.57580  0.08160  0.98640  1.0000 0.1035502676
C   C7        1.0  0.07580  0.41840  0.51360  1.0000 0.1035502676
C   C8        1.0  0.92420  0.58160  0.51360  1.0000 0.1035502676
C   C9        1.0  0.42250  0.92270  0.42140  1.0000 0.1035502676
C   C10       1.0  0.57750  0.07730  0.42140  1.0000 0.1035502676
C   C11       1.0  0.92250  0.57730  0.07860  1.0000 0.1035502676
C   C12       1.0  0.07750  0.42270  0.07860  1.0000 0.1035502676
C   C13       1.0  0.42270  0.92250  0.92140  1.0000 0.1035502676
C   C14       1.0  0.57730  0.07750  0.92140  1.0000 0.1035502676
C   C15       1.0  0.07730  0.42250  0.57860  1.0000 0.1035502676
C   C16       1.0  0.92270  0.57750  0.57860  1.0000 0.1035502676
C   C17       1.0  0.39310  0.08750  0.20970  1.0000 0.5760680697
C   C18       1.0  0.60690  0.91250  0.20970  1.0000 0.5760680697
C   C19       1.0  0.89310  0.41250  0.29030  1.0000 0.5760680697
C   C20       1.0  0.10690  0.58750  0.29030  1.0000 0.5760680697
C   C21       1.0  0.58750  0.89310  0.70970  1.0000 0.5760680697
C   C22       1.0  0.41250  0.10690  0.70970  1.0000 0.5760680697
C   C23       1.0  0.91250  0.39310  0.79030  1.0000 0.5760680697
C   C24       1.0  0.08750  0.60690  0.79030  1.0000 0.5760680697
C   C25       1.0  0.38410  0.98500  0.51650  1.0000 -0.2097718214
C   C26       1.0  0.61590  0.01500  0.51650  1.0000 -0.2097718214
C   C27       1.0  0.88410  0.51500  0.98350  1.0000 -0.2097718214
C   C28       1.0  0.11590  0.48500  0.98350  1.0000 -0.2097718214
C   C29       1.0  0.48500  0.88410  0.01650  1.0000 -0.2097718214
C   C30       1.0  0.51500  0.11590  0.01650  1.0000 -0.2097718214
C   C31       1.0  0.01500  0.38410  0.48350  1.0000 -0.2097718214
C   C32       1.0  0.98500  0.61590  0.48350  1.0000 -0.2097718214
C   C33       1.0  0.33000  0.14040  0.22680  1.0000 -0.1683181804
C   C34       1.0  0.67000  0.85960  0.22680  1.0000 -0.1683181804
C   C35       1.0  0.83000  0.35960  0.27320  1.0000 -0.1683181804
C   C36       1.0  0.17000  0.64040  0.27320  1.0000 -0.1683181804
C   C37       1.0  0.64040  0.83000  0.72680  1.0000 -0.1683181804
C   C38       1.0  0.35960  0.17000  0.72680  1.0000 -0.1683181804
C   C39       1.0  0.85960  0.33000  0.77320  1.0000 -0.1683181804
C   C40       1.0  0.14040  0.67000  0.77320  1.0000 -0.1683181804
C   C41       1.0  0.28190  0.26280  0.25640  1.0000 -0.2097718214
C   C42       1.0  0.71810  0.73720  0.25640  1.0000 -0.2097718214
C   C43       1.0  0.78190  0.23720  0.24360  1.0000 -0.2097718214
C   C44       1.0  0.21810  0.76280  0.24360  1.0000 -0.2097718214
C   C45       1.0  0.76280  0.78190  0.75640  1.0000 -0.2097718214
C   C46       1.0  0.23720  0.21810  0.75640  1.0000 -0.2097718214
C   C47       1.0  0.73720  0.28190  0.74360  1.0000 -0.2097718214
C   C48       1.0  0.26280  0.71810  0.74360  1.0000 -0.2097718214
C   C49       1.0  0.34320  0.21800  0.23920  1.0000 0.2696802987
C   C50       1.0  0.65680  0.78200  0.23920  1.0000 0.2696802987
C   C51       1.0  0.84320  0.28200  0.26080  1.0000 0.2696802987
C   C52       1.0  0.15680  0.71800  0.26080  1.0000 0.2696802987
C   C53       1.0  0.71800  0.84320  0.73920  1.0000 0.2696802987
C   C54       1.0  0.28200  0.15680  0.73920  1.0000 0.2696802987
C   C55       1.0  0.78200  0.34320  0.76080  1.0000 0.2696802987
C   C56       1.0  0.21800  0.65680  0.76080  1.0000 0.2696802987
C   C57       1.0  0.20820  0.23330  0.26110  1.0000 -0.1417062917
C   C58       1.0  0.79180  0.76670  0.26110  1.0000 -0.1417062917
C   C59       1.0  0.70820  0.26670  0.23890  1.0000 -0.1417062917
C   C60       1.0  0.29180  0.73330  0.23890  1.0000 -0.1417062917
C   C61       1.0  0.73330  0.70820  0.76110  1.0000 -0.1417062917
C   C62       1.0  0.26670  0.29180  0.76110  1.0000 -0.1417062917
C   C63       1.0  0.76670  0.20820  0.73890  1.0000 -0.1417062917
C   C64       1.0  0.23330  0.79180  0.73890  1.0000 -0.1417062917
C   C65       1.0  0.48870  0.89350  0.33290  1.0000 0.0891282678
C   C66       1.0  0.51130  0.10650  0.33290  1.0000 0.0891282678
C   C67       1.0  0.98870  0.60650  0.16710  1.0000 0.0891282678
C   C68       1.0  0.01130  0.39350  0.16710  1.0000 0.0891282678
C   C69       1.0  0.39350  0.98870  0.83290  1.0000 0.0891282678
C   C70       1.0  0.60650  0.01130  0.83290  1.0000 0.0891282678
C   C71       1.0  0.10650  0.48870  0.66710  1.0000 0.0891282678
C   C72       1.0  0.89350  0.51130  0.66710  1.0000 0.0891282678
C   C73       1.0  0.44710  0.87220  0.58130  1.0000 0.0891282678
C   C74       1.0  0.55290  0.12780  0.58130  1.0000 0.0891282678
C   C75       1.0  0.94710  0.62780  0.91870  1.0000 0.0891282678
C   C76       1.0  0.05290  0.37220  0.91870  1.0000 0.0891282678
C   C77       1.0  0.37220  0.94710  0.08130  1.0000 0.0891282678
C   C78       1.0  0.62780  0.05290  0.08130  1.0000 0.0891282678
C   C79       1.0  0.12780  0.44710  0.41870  1.0000 0.0891282678
C   C80       1.0  0.87220  0.55290  0.41870  1.0000 0.0891282678
C   C81       1.0  0.37130  0.94940  0.32640  1.0000 0.0891282678
C   C82       1.0  0.62870  0.05060  0.32640  1.0000 0.0891282678
C   C83       1.0  0.87130  0.55060  0.17360  1.0000 0.0891282678
C   C84       1.0  0.12870  0.44940  0.17360  1.0000 0.0891282678
C   C85       1.0  0.44940  0.87130  0.82640  1.0000 0.0891282678
C   C86       1.0  0.55060  0.12870  0.82640  1.0000 0.0891282678
C   C87       1.0  0.05060  0.37130  0.67360  1.0000 0.0891282678
C   C88       1.0  0.94940  0.62870  0.67360  1.0000 0.0891282678
C   C89       1.0  0.38510  0.98700  0.57620  1.0000 0.0817835255
C   C90       1.0  0.61490  0.01300  0.57620  1.0000 0.0817835255
C   C91       1.0  0.88510  0.51300  0.92380  1.0000 0.0817835255
C   C92       1.0  0.11490  0.48700  0.92380  1.0000 0.0817835255
C   C93       1.0  0.48700  0.88510  0.07620  1.0000 0.0817835255
C   C94       1.0  0.51300  0.11490  0.07620  1.0000 0.0817835255
C   C95       1.0  0.01300  0.38510  0.42380  1.0000 0.0817835255
C   C96       1.0  0.98700  0.61490  0.42380  1.0000 0.0817835255
C   C97       1.0  0.44900  0.86740  0.52120  1.0000 -0.1978278242
C   C98       1.0  0.55100  0.13260  0.52120  1.0000 -0.1978278242
C   C99       1.0  0.94900  0.63260  0.97880  1.0000 -0.1978278242
C   C100      1.0  0.05100  0.36740  0.97880  1.0000 -0.1978278242
C   C101      1.0  0.36740  0.94900  0.02120  1.0000 -0.1978278242
C   C102      1.0  0.63260  0.05100  0.02120  1.0000 -0.1978278242
C   C103      1.0  0.13260  0.44900  0.47880  1.0000 -0.1978278242
C   C104      1.0  0.86740  0.55100  0.47880  1.0000 -0.1978278242
C   C105      1.0  0.19580  0.15550  0.24860  1.0000 0.2617224826
C   C106      1.0  0.80420  0.84450  0.24860  1.0000 0.2617224826
C   C107      1.0  0.69580  0.34450  0.25140  1.0000 0.2617224826
C   C108      1.0  0.30420  0.65550  0.25140  1.0000 0.2617224826
C   C109      1.0  0.65550  0.69580  0.74860  1.0000 0.2617224826
C   C110      1.0  0.34450  0.30420  0.74860  1.0000 0.2617224826
C   C111      1.0  0.84450  0.19580  0.75140  1.0000 0.2617224826
C   C112      1.0  0.15550  0.80420  0.75140  1.0000 0.2617224826
C   C113      1.0  0.48620  0.89300  0.39300  1.0000 -0.1978278242
C   C114      1.0  0.51380  0.10700  0.39300  1.0000 -0.1978278242
C   C115      1.0  0.98620  0.60700  0.10700  1.0000 -0.1978278242
C   C116      1.0  0.01380  0.39300  0.10700  1.0000 -0.1978278242
C   C117      1.0  0.39300  0.98620  0.89300  1.0000 -0.1978278242
C   C118      1.0  0.60700  0.01380  0.89300  1.0000 -0.1978278242
C   C119      1.0  0.10700  0.48620  0.60700  1.0000 -0.1978278242
C   C120      1.0  0.89300  0.51380  0.60700  1.0000 -0.1978278242
C   C121      1.0  0.25600  0.11040  0.23200  1.0000 -0.2276515067
C   C122      1.0  0.74400  0.88960  0.23200  1.0000 -0.2276515067
C   C123      1.0  0.75600  0.38960  0.26800  1.0000 -0.2276515067
C   C124      1.0  0.24400  0.61040  0.26800  1.0000 -0.2276515067
C   C125      1.0  0.61040  0.75600  0.73200  1.0000 -0.2276515067
C   C126      1.0  0.38960  0.24400  0.73200  1.0000 -0.2276515067
C   C127      1.0  0.88960  0.25600  0.76800  1.0000 -0.2276515067
C   C128      1.0  0.11040  0.74400  0.76800  1.0000 -0.2276515067
C   C129      1.0  0.36400  0.95130  0.38680  1.0000 -0.1978278242
C   C130      1.0  0.63600  0.04870  0.38680  1.0000 -0.1978278242
C   C131      1.0  0.86400  0.54870  0.11320  1.0000 -0.1978278242
C   C132      1.0  0.13600  0.45130  0.11320  1.0000 -0.1978278242
C   C133      1.0  0.45130  0.86400  0.88680  1.0000 -0.1978278242
C   C134      1.0  0.54870  0.13600  0.88680  1.0000 -0.1978278242
C   C135      1.0  0.04870  0.36400  0.61320  1.0000 -0.1978278242
C   C136      1.0  0.95130  0.63600  0.61320  1.0000 -0.1978278242
C   C137      1.0  0.14510  0.28470  0.27870  1.0000 0.5760680697
C   C138      1.0  0.85490  0.71530  0.27870  1.0000 0.5760680697
C   C139      1.0  0.64510  0.21530  0.22130  1.0000 0.5760680697
C   C140      1.0  0.35490  0.78470  0.22130  1.0000 0.5760680697
C   C141      1.0  0.78470  0.64510  0.77870  1.0000 0.5760680697
C   C142      1.0  0.21530  0.35490  0.77870  1.0000 0.5760680697
C   C143      1.0  0.71530  0.14510  0.72130  1.0000 0.5760680697
C   C144      1.0  0.28470  0.85490  0.72130  1.0000 0.5760680697
N   N1        1.0  0.43300  0.92140  0.29910  1.0000 -0.2162797452
N   N2        1.0  0.56700  0.07860  0.29910  1.0000 -0.2162797452
N   N3        1.0  0.93300  0.57860  0.20090  1.0000 -0.2162797452
N   N4        1.0  0.06700  0.42140  0.20090  1.0000 -0.2162797452
N   N5        1.0  0.42140  0.93300  0.79910  1.0000 -0.2162797452
N   N6        1.0  0.57860  0.06700  0.79910  1.0000 -0.2162797452
N   N7        1.0  0.07860  0.43300  0.70090  1.0000 -0.2162797452
N   N8        1.0  0.92140  0.56700  0.70090  1.0000 -0.2162797452
N   N9        1.0  0.41690  0.93220  0.60970  1.0000 -0.2097718214
N   N10       1.0  0.58310  0.06780  0.60970  1.0000 -0.2097718214
N   N11       1.0  0.91690  0.56780  0.89030  1.0000 -0.2097718214
N   N12       1.0  0.08310  0.43220  0.89030  1.0000 -0.2097718214
N   N13       1.0  0.43220  0.91690  0.10970  1.0000 -0.2097718214
N   N14       1.0  0.56780  0.08310  0.10970  1.0000 -0.2097718214
N   N15       1.0  0.06780  0.41690  0.39030  1.0000 -0.2097718214
N   N16       1.0  0.93220  0.58310  0.39030  1.0000 -0.2097718214
O   O1        1.0  0.37790  0.01860  0.20270  1.0000 -0.5313120299
O   O2        1.0  0.62210  0.98140  0.20270  1.0000 -0.5313120299
O   O3        1.0  0.87790  0.48140  0.29730  1.0000 -0.5313120299
O   O4        1.0  0.12210  0.51860  0.29730  1.0000 -0.5313120299
O   O5        1.0  0.51860  0.87790  0.70270  1.0000 -0.5313120299
O   O6        1.0  0.48140  0.12210  0.70270  1.0000 -0.5313120299
O   O7        1.0  0.98140  0.37790  0.79730  1.0000 -0.5313120299
O   O8        1.0  0.01860  0.62210  0.79730  1.0000 -0.5313120299
O   O9        1.0  0.41160  0.25310  0.23630  1.0000 -0.4187917785
O   O10       1.0  0.58840  0.74690  0.23630  1.0000 -0.4187917785
O   O11       1.0  0.91160  0.24690  0.26370  1.0000 -0.4187917785
O   O12       1.0  0.08840  0.75310  0.26370  1.0000 -0.4187917785
O   O13       1.0  0.75310  0.91160  0.73630  1.0000 -0.4187917785
O   O14       1.0  0.24690  0.08840  0.73630  1.0000 -0.4187917785
O   O15       1.0  0.74690  0.41160  0.76370  1.0000 -0.4187917785
O   O16       1.0  0.25310  0.58840  0.76370  1.0000 -0.4187917785
O   O17       1.0  0.12400  0.12360  0.25080  1.0000 -0.4495312275
O   O18       1.0  0.87600  0.87640  0.25080  1.0000 -0.4495312275
O   O19       1.0  0.62400  0.37640  0.24920  1.0000 -0.4495312275
O   O20       1.0  0.37600  0.62360  0.24920  1.0000 -0.4495312275
O   O21       1.0  0.62360  0.62400  0.75080  1.0000 -0.4495312275
O   O22       1.0  0.37640  0.37600  0.75080  1.0000 -0.4495312275
O   O23       1.0  0.87640  0.12400  0.74920  1.0000 -0.4495312275
O   O24       1.0  0.12360  0.87600  0.74920  1.0000 -0.4495312275
O   O25       1.0  0.45890  0.11700  0.20510  1.0000 -0.5585699604
O   O26       1.0  0.54110  0.88300  0.20510  1.0000 -0.5585699604
O   O27       1.0  0.95890  0.38300  0.29490  1.0000 -0.5585699604
O   O28       1.0  0.04110  0.61700  0.29490  1.0000 -0.5585699604
O   O29       1.0  0.61700  0.95890  0.70510  1.0000 -0.5585699604
O   O30       1.0  0.38300  0.04110  0.70510  1.0000 -0.5585699604
O   O31       1.0  0.88300  0.45890  0.79490  1.0000 -0.5585699604
O   O32       1.0  0.11700  0.54110  0.79490  1.0000 -0.5585699604
O   O33       1.0  0.16150  0.35210  0.29180  1.0000 -0.5313120299
O   O34       1.0  0.83850  0.64790  0.29180  1.0000 -0.5313120299
O   O35       1.0  0.66150  0.14790  0.20820  1.0000 -0.5313120299
O   O36       1.0  0.33850  0.85210  0.20820  1.0000 -0.5313120299
O   O37       1.0  0.85210  0.66150  0.79180  1.0000 -0.5313120299
O   O38       1.0  0.14790  0.33850  0.79180  1.0000 -0.5313120299
O   O39       1.0  0.64790  0.16150  0.70820  1.0000 -0.5313120299
O   O40       1.0  0.35210  0.83850  0.70820  1.0000 -0.5313120299
O   O41       1.0  0.07730  0.25960  0.27890  1.0000 -0.567778729
O   O42       1.0  0.92270  0.74040  0.27890  1.0000 -0.567778729
O   O43       1.0  0.57730  0.24040  0.22110  1.0000 -0.567778729
O   O44       1.0  0.42270  0.75960  0.22110  1.0000 -0.567778729
O   O45       1.0  0.75960  0.57730  0.77890  1.0000 -0.567778729
O   O46       1.0  0.24040  0.42270  0.77890  1.0000 -0.567778729
O   O47       1.0  0.74040  0.07730  0.72110  1.0000 -0.567778729
O   O48       1.0  0.25960  0.92270  0.72110  1.0000 -0.567778729
