# DDEC6 charges by PACMAN v1.1 (https://github.com/mtap-research/PACMAN-charge/)
data_2010[HoAg][nan]3[ASR]1
_chemical_formula_sum              "Ho8 Ag8 H64 C144 N32 O64"
_cell_length_a       8.4884
_cell_length_b       17.806
_cell_length_c       25.37
_cell_angle_alpha    90
_cell_angle_beta     90
_cell_angle_gamma    90

_symmetry_space_group_name_H-M    "P 1"
_symmetry_Int_Tables_number       1

loop_
  _symmetry_equiv_pos_as_xyz
  'x, y, z'

loop_
  _atom_site_type_symbol
  _atom_site_label
  _atom_site_symmetry_multiplicity
  _atom_site_fract_x
  _atom_site_fract_y
  _atom_site_fract_z
  _atom_site_occupancy
  _atom_site_charge
Ho  Ho1       1.0  0.66574  0.78249  0.52336  1.0000 2.0802129333
Ho  Ho2       1.0  0.16574  0.71751  0.47664  1.0000 2.0802129333
Ho  Ho3       1.0  0.16574  0.21751  0.02336  1.0000 2.0802129333
Ho  Ho4       1.0  0.66574  0.28249  0.97664  1.0000 2.0802129333
Ho  Ho5       1.0  0.83426  0.78249  0.97664  1.0000 2.0802129333
Ho  Ho6       1.0  0.33426  0.71751  0.02336  1.0000 2.0802129333
Ho  Ho7       1.0  0.33426  0.21751  0.47664  1.0000 2.0802129333
Ho  Ho8       1.0  0.83426  0.28249  0.52336  1.0000 2.0802129333
Ag  Ag1       1.0  0.96163  0.95174  0.22731  1.0000 0.2880812113
Ag  Ag2       1.0  0.46163  0.54826  0.77269  1.0000 0.2880812113
Ag  Ag3       1.0  0.46163  0.04826  0.72731  1.0000 0.2880812113
Ag  Ag4       1.0  0.96163  0.45174  0.27269  1.0000 0.2880812113
Ag  Ag5       1.0  0.53837  0.95174  0.27269  1.0000 0.2880812113
Ag  Ag6       1.0  0.03837  0.54826  0.72731  1.0000 0.2880812113
Ag  Ag7       1.0  0.03837  0.04826  0.77269  1.0000 0.2880812113
Ag  Ag8       1.0  0.53837  0.45174  0.22731  1.0000 0.2880812113
H   H1        1.0  0.55980  0.35770  0.40370  1.0000 0.3176458676
H   H2        1.0  0.05980  0.14230  0.59630  1.0000 0.3176458676
H   H3        1.0  0.05980  0.64230  0.90370  1.0000 0.3176458676
H   H4        1.0  0.55980  0.85770  0.09630  1.0000 0.3176458676
H   H5        1.0  0.22080  0.10590  0.36930  1.0000 0.3176458676
H   H6        1.0  0.72080  0.39410  0.63070  1.0000 0.3176458676
H   H7        1.0  0.72080  0.89410  0.86930  1.0000 0.3176458676
H   H8        1.0  0.22080  0.60590  0.13070  1.0000 0.3176458676
H   H9        1.0  0.46470  0.49260  0.45490  1.0000 0.1386583149
H   H10       1.0  0.96470  0.00740  0.54510  1.0000 0.1386583149
H   H11       1.0  0.96470  0.50740  0.95490  1.0000 0.1386583149
H   H12       1.0  0.46470  0.99260  0.04510  1.0000 0.1386583149
H   H13       1.0  0.74690  0.32720  0.33790  1.0000 0.1308585678
H   H14       1.0  0.24690  0.17280  0.66210  1.0000 0.1308585678
H   H15       1.0  0.24690  0.67280  0.83790  1.0000 0.1308585678
H   H16       1.0  0.74690  0.82720  0.16210  1.0000 0.1308585678
H   H17       1.0  0.90110  0.58240  0.36070  1.0000 0.1386583149
H   H18       1.0  0.40110  0.91760  0.63930  1.0000 0.1386583149
H   H19       1.0  0.40110  0.41760  0.86070  1.0000 0.1386583149
H   H20       1.0  0.90110  0.08240  0.13930  1.0000 0.1386583149
H   H21       1.0  0.38280  0.99670  0.43290  1.0000 0.162698989
H   H22       1.0  0.88280  0.50330  0.56710  1.0000 0.162698989
H   H23       1.0  0.88280  0.00330  0.93290  1.0000 0.162698989
H   H24       1.0  0.38280  0.49670  0.06710  1.0000 0.162698989
H   H25       1.0  0.05650  0.10040  0.29490  1.0000 0.1203090961
H   H26       1.0  0.55650  0.39960  0.70510  1.0000 0.1203090961
H   H27       1.0  0.55650  0.89960  0.79490  1.0000 0.1203090961
H   H28       1.0  0.05650  0.60040  0.20510  1.0000 0.1203090961
H   H29       1.0  0.18790  0.84050  0.29810  1.0000 0.1386583149
H   H30       1.0  0.68790  0.65950  0.70190  1.0000 0.1386583149
H   H31       1.0  0.68790  0.15950  0.79810  1.0000 0.1386583149
H   H32       1.0  0.18790  0.34050  0.20190  1.0000 0.1386583149
H   H33       1.0  0.94020  0.35770  0.09630  1.0000 0.3176458676
H   H34       1.0  0.44020  0.14230  0.90370  1.0000 0.3176458676
H   H35       1.0  0.44020  0.64230  0.59630  1.0000 0.3176458676
H   H36       1.0  0.94020  0.85770  0.40370  1.0000 0.3176458676
H   H37       1.0  0.27920  0.10590  0.13070  1.0000 0.3176458676
H   H38       1.0  0.77920  0.39410  0.86930  1.0000 0.3176458676
H   H39       1.0  0.77920  0.89410  0.63070  1.0000 0.3176458676
H   H40       1.0  0.27920  0.60590  0.36930  1.0000 0.3176458676
H   H41       1.0  0.03530  0.49260  0.04510  1.0000 0.1386583149
H   H42       1.0  0.53530  0.00740  0.95490  1.0000 0.1386583149
H   H43       1.0  0.53530  0.50740  0.54510  1.0000 0.1386583149
H   H44       1.0  0.03530  0.99260  0.45490  1.0000 0.1386583149
H   H45       1.0  0.75310  0.32720  0.16210  1.0000 0.1308585678
H   H46       1.0  0.25310  0.17280  0.83790  1.0000 0.1308585678
H   H47       1.0  0.25310  0.67280  0.66210  1.0000 0.1308585678
H   H48       1.0  0.75310  0.82720  0.33790  1.0000 0.1308585678
H   H49       1.0  0.59890  0.58240  0.13930  1.0000 0.1386583149
H   H50       1.0  0.09890  0.91760  0.86070  1.0000 0.1386583149
H   H51       1.0  0.09890  0.41760  0.63930  1.0000 0.1386583149
H   H52       1.0  0.59890  0.08240  0.36070  1.0000 0.1386583149
H   H53       1.0  0.11720  0.99670  0.06710  1.0000 0.162698989
H   H54       1.0  0.61720  0.50330  0.93290  1.0000 0.162698989
H   H55       1.0  0.61720  0.00330  0.56710  1.0000 0.162698989
H   H56       1.0  0.11720  0.49670  0.43290  1.0000 0.162698989
H   H57       1.0  0.44350  0.10040  0.20510  1.0000 0.1203090961
H   H58       1.0  0.94350  0.39960  0.79490  1.0000 0.1203090961
H   H59       1.0  0.94350  0.89960  0.70510  1.0000 0.1203090961
H   H60       1.0  0.44350  0.60040  0.29490  1.0000 0.1203090961
H   H61       1.0  0.31210  0.84050  0.20190  1.0000 0.1386583149
H   H62       1.0  0.81210  0.65950  0.79810  1.0000 0.1386583149
H   H63       1.0  0.81210  0.15950  0.70190  1.0000 0.1386583149
H   H64       1.0  0.31210  0.34050  0.29810  1.0000 0.1386583149
C   C1        1.0  0.51020  0.62930  0.48272  1.0000 0.650273097
C   C2        1.0  0.01020  0.87070  0.51728  1.0000 0.650273097
C   C3        1.0  0.01020  0.37070  0.98272  1.0000 0.650273097
C   C4        1.0  0.51020  0.12930  0.01728  1.0000 0.650273097
C   C5        1.0  0.60540  0.58320  0.44435  1.0000 -0.0337536211
C   C6        1.0  0.10540  0.91680  0.55565  1.0000 -0.0337536211
C   C7        1.0  0.10540  0.41680  0.94435  1.0000 -0.0337536211
C   C8        1.0  0.60540  0.08320  0.05565  1.0000 -0.0337536211
C   C9        1.0  0.55350  0.51030  0.43741  1.0000 -0.1947975035
C   C10       1.0  0.05350  0.98970  0.56259  1.0000 -0.1947975035
C   C11       1.0  0.05350  0.48970  0.93741  1.0000 -0.1947975035
C   C12       1.0  0.55350  0.01030  0.06259  1.0000 -0.1947975035
C   C13       1.0  0.63830  0.46420  0.40334  1.0000 0.1517945056
C   C14       1.0  0.13830  0.03580  0.59666  1.0000 0.1517945056
C   C15       1.0  0.13830  0.53580  0.90334  1.0000 0.1517945056
C   C16       1.0  0.63830  0.96420  0.09666  1.0000 0.1517945056
C   C17       1.0  0.73230  0.37440  0.35281  1.0000 0.1765401896
C   C18       1.0  0.23230  0.12560  0.64719  1.0000 0.1765401896
C   C19       1.0  0.23230  0.62560  0.85281  1.0000 0.1765401896
C   C20       1.0  0.73230  0.87440  0.14719  1.0000 0.1765401896
C   C21       1.0  0.76070  0.49210  0.37250  1.0000 0.1203090961
C   C22       1.0  0.26070  0.00790  0.62750  1.0000 0.1203090961
C   C23       1.0  0.26070  0.50790  0.87250  1.0000 0.1203090961
C   C24       1.0  0.76070  0.99210  0.12750  1.0000 0.1203090961
C   C25       1.0  0.81570  0.56450  0.37999  1.0000 -0.1811940165
C   C26       1.0  0.31570  0.93550  0.62001  1.0000 -0.1811940165
C   C27       1.0  0.31570  0.43550  0.87999  1.0000 -0.1811940165
C   C28       1.0  0.81570  0.06450  0.12001  1.0000 -0.1811940165
C   C29       1.0  0.74110  0.61000  0.41690  1.0000 -0.0522411528
C   C30       1.0  0.24110  0.89000  0.58310  1.0000 -0.0522411528
C   C31       1.0  0.24110  0.39000  0.91690  1.0000 -0.0522411528
C   C32       1.0  0.74110  0.11000  0.08310  1.0000 -0.0522411528
C   C33       1.0  0.81080  0.68590  0.42663  1.0000 0.650273097
C   C34       1.0  0.31080  0.81410  0.57337  1.0000 0.650273097
C   C35       1.0  0.31080  0.31410  0.92663  1.0000 0.650273097
C   C36       1.0  0.81080  0.18590  0.07337  1.0000 0.650273097
C   C37       1.0  0.45200  0.85400  0.45335  1.0000 0.6031305914
C   C38       1.0  0.95200  0.64600  0.54665  1.0000 0.6031305914
C   C39       1.0  0.95200  0.14600  0.95335  1.0000 0.6031305914
C   C40       1.0  0.45200  0.35400  0.04665  1.0000 0.6031305914
C   C41       1.0  0.36600  0.88790  0.40770  1.0000 -0.0420765529
C   C42       1.0  0.86600  0.61210  0.59230  1.0000 -0.0420765529
C   C43       1.0  0.86600  0.11210  0.90770  1.0000 -0.0420765529
C   C44       1.0  0.36600  0.38790  0.09230  1.0000 -0.0420765529
C   C45       1.0  0.34170  0.96560  0.40684  1.0000 -0.1811940165
C   C46       1.0  0.84170  0.53440  0.59316  1.0000 -0.1811940165
C   C47       1.0  0.84170  0.03440  0.90684  1.0000 -0.1811940165
C   C48       1.0  0.34170  0.46560  0.09316  1.0000 -0.1811940165
C   C49       1.0  0.25310  0.99430  0.36514  1.0000 0.1203090961
C   C50       1.0  0.75310  0.50570  0.63486  1.0000 0.1203090961
C   C51       1.0  0.75310  0.00570  0.86514  1.0000 0.1203090961
C   C52       1.0  0.25310  0.49430  0.13486  1.0000 0.1203090961
C   C53       1.0  0.10830  0.05980  0.31011  1.0000 0.1765401896
C   C54       1.0  0.60830  0.44020  0.68989  1.0000 0.1765401896
C   C55       1.0  0.60830  0.94020  0.81011  1.0000 0.1765401896
C   C56       1.0  0.10830  0.55980  0.18989  1.0000 0.1765401896
C   C57       1.0  0.19140  0.94760  0.32586  1.0000 0.1097389974
C   C58       1.0  0.69140  0.55240  0.67414  1.0000 0.1097389974
C   C59       1.0  0.69140  0.05240  0.82586  1.0000 0.1097389974
C   C60       1.0  0.19140  0.44760  0.17414  1.0000 0.1097389974
C   C61       1.0  0.22340  0.87090  0.32545  1.0000 -0.2272477672
C   C62       1.0  0.72340  0.62910  0.67455  1.0000 -0.2272477672
C   C63       1.0  0.72340  0.12910  0.82545  1.0000 -0.2272477672
C   C64       1.0  0.22340  0.37090  0.17455  1.0000 -0.2272477672
C   C65       1.0  0.30900  0.84090  0.36670  1.0000 -0.0420765529
C   C66       1.0  0.80900  0.65910  0.63330  1.0000 -0.0420765529
C   C67       1.0  0.80900  0.15910  0.86670  1.0000 -0.0420765529
C   C68       1.0  0.30900  0.34090  0.13330  1.0000 -0.0420765529
C   C69       1.0  0.34270  0.75780  0.36473  1.0000 0.6130248432
C   C70       1.0  0.84270  0.74220  0.63527  1.0000 0.6130248432
C   C71       1.0  0.84270  0.24220  0.86473  1.0000 0.6130248432
C   C72       1.0  0.34270  0.25780  0.13527  1.0000 0.6130248432
C   C73       1.0  0.98980  0.62930  0.01728  1.0000 0.650273097
C   C74       1.0  0.48980  0.87070  0.98272  1.0000 0.650273097
C   C75       1.0  0.48980  0.37070  0.51728  1.0000 0.650273097
C   C76       1.0  0.98980  0.12930  0.48272  1.0000 0.650273097
C   C77       1.0  0.89460  0.58320  0.05565  1.0000 -0.0337536211
C   C78       1.0  0.39460  0.91680  0.94435  1.0000 -0.0337536211
C   C79       1.0  0.39460  0.41680  0.55565  1.0000 -0.0337536211
C   C80       1.0  0.89460  0.08320  0.44435  1.0000 -0.0337536211
C   C81       1.0  0.94650  0.51030  0.06259  1.0000 -0.1947975035
C   C82       1.0  0.44650  0.98970  0.93741  1.0000 -0.1947975035
C   C83       1.0  0.44650  0.48970  0.56259  1.0000 -0.1947975035
C   C84       1.0  0.94650  0.01030  0.43741  1.0000 -0.1947975035
C   C85       1.0  0.86170  0.46420  0.09666  1.0000 0.1517945056
C   C86       1.0  0.36170  0.03580  0.90334  1.0000 0.1517945056
C   C87       1.0  0.36170  0.53580  0.59666  1.0000 0.1517945056
C   C88       1.0  0.86170  0.96420  0.40334  1.0000 0.1517945056
C   C89       1.0  0.76770  0.37440  0.14719  1.0000 0.1765401896
C   C90       1.0  0.26770  0.12560  0.85281  1.0000 0.1765401896
C   C91       1.0  0.26770  0.62560  0.64719  1.0000 0.1765401896
C   C92       1.0  0.76770  0.87440  0.35281  1.0000 0.1765401896
C   C93       1.0  0.73930  0.49210  0.12750  1.0000 0.1203090961
C   C94       1.0  0.23930  0.00790  0.87250  1.0000 0.1203090961
C   C95       1.0  0.23930  0.50790  0.62750  1.0000 0.1203090961
C   C96       1.0  0.73930  0.99210  0.37250  1.0000 0.1203090961
C   C97       1.0  0.68430  0.56450  0.12001  1.0000 -0.1811940165
C   C98       1.0  0.18430  0.93550  0.87999  1.0000 -0.1811940165
C   C99       1.0  0.18430  0.43550  0.62001  1.0000 -0.1811940165
C   C100      1.0  0.68430  0.06450  0.37999  1.0000 -0.1811940165
C   C101      1.0  0.75890  0.61000  0.08310  1.0000 -0.0522411528
C   C102      1.0  0.25890  0.89000  0.91690  1.0000 -0.0522411528
C   C103      1.0  0.25890  0.39000  0.58310  1.0000 -0.0522411528
C   C104      1.0  0.75890  0.11000  0.41690  1.0000 -0.0522411528
C   C105      1.0  0.68920  0.68590  0.07337  1.0000 0.650273097
C   C106      1.0  0.18920  0.81410  0.92663  1.0000 0.650273097
C   C107      1.0  0.18920  0.31410  0.57337  1.0000 0.650273097
C   C108      1.0  0.68920  0.18590  0.42663  1.0000 0.650273097
C   C109      1.0  0.04800  0.85400  0.04665  1.0000 0.6031305914
C   C110      1.0  0.54800  0.64600  0.95335  1.0000 0.6031305914
C   C111      1.0  0.54800  0.14600  0.54665  1.0000 0.6031305914
C   C112      1.0  0.04800  0.35400  0.45335  1.0000 0.6031305914
C   C113      1.0  0.13400  0.88790  0.09230  1.0000 -0.0420765529
C   C114      1.0  0.63400  0.61210  0.90770  1.0000 -0.0420765529
C   C115      1.0  0.63400  0.11210  0.59230  1.0000 -0.0420765529
C   C116      1.0  0.13400  0.38790  0.40770  1.0000 -0.0420765529
C   C117      1.0  0.15830  0.96560  0.09316  1.0000 -0.1811940165
C   C118      1.0  0.65830  0.53440  0.90684  1.0000 -0.1811940165
C   C119      1.0  0.65830  0.03440  0.59316  1.0000 -0.1811940165
C   C120      1.0  0.15830  0.46560  0.40684  1.0000 -0.1811940165
C   C121      1.0  0.24690  0.99430  0.13486  1.0000 0.1203090961
C   C122      1.0  0.74690  0.50570  0.86514  1.0000 0.1203090961
C   C123      1.0  0.74690  0.00570  0.63486  1.0000 0.1203090961
C   C124      1.0  0.24690  0.49430  0.36514  1.0000 0.1203090961
C   C125      1.0  0.39170  0.05980  0.18989  1.0000 0.1765401896
C   C126      1.0  0.89170  0.44020  0.81011  1.0000 0.1765401896
C   C127      1.0  0.89170  0.94020  0.68989  1.0000 0.1765401896
C   C128      1.0  0.39170  0.55980  0.31011  1.0000 0.1765401896
C   C129      1.0  0.30860  0.94760  0.17414  1.0000 0.1097389974
C   C130      1.0  0.80860  0.55240  0.82586  1.0000 0.1097389974
C   C131      1.0  0.80860  0.05240  0.67414  1.0000 0.1097389974
C   C132      1.0  0.30860  0.44760  0.32586  1.0000 0.1097389974
C   C133      1.0  0.27660  0.87090  0.17455  1.0000 -0.2272477672
C   C134      1.0  0.77660  0.62910  0.82545  1.0000 -0.2272477672
C   C135      1.0  0.77660  0.12910  0.67455  1.0000 -0.2272477672
C   C136      1.0  0.27660  0.37090  0.32545  1.0000 -0.2272477672
C   C137      1.0  0.19100  0.84090  0.13330  1.0000 -0.0420765529
C   C138      1.0  0.69100  0.65910  0.86670  1.0000 -0.0420765529
C   C139      1.0  0.69100  0.15910  0.63330  1.0000 -0.0420765529
C   C140      1.0  0.19100  0.34090  0.36670  1.0000 -0.0420765529
C   C141      1.0  0.15730  0.75780  0.13527  1.0000 0.6130248432
C   C142      1.0  0.65730  0.74220  0.86473  1.0000 0.6130248432
C   C143      1.0  0.65730  0.24220  0.63527  1.0000 0.6130248432
C   C144      1.0  0.15730  0.25780  0.36473  1.0000 0.6130248432
N   N1        1.0  0.62510  0.38929  0.39028  1.0000 -0.2272477672
N   N2        1.0  0.12510  0.11071  0.60972  1.0000 -0.2272477672
N   N3        1.0  0.12510  0.61071  0.89028  1.0000 -0.2272477672
N   N4        1.0  0.62510  0.88929  0.10972  1.0000 -0.2272477672
N   N5        1.0  0.81460  0.43452  0.33955  1.0000 -0.308289266
N   N6        1.0  0.31460  0.06548  0.66045  1.0000 -0.308289266
N   N7        1.0  0.31460  0.56548  0.83955  1.0000 -0.308289266
N   N8        1.0  0.81460  0.93452  0.16045  1.0000 -0.308289266
N   N9        1.0  0.09950  0.99055  0.29178  1.0000 -0.308289266
N   N10       1.0  0.59950  0.50945  0.70822  1.0000 -0.308289266
N   N11       1.0  0.59950  0.00945  0.79178  1.0000 -0.308289266
N   N12       1.0  0.09950  0.49055  0.20822  1.0000 -0.308289266
N   N13       1.0  0.19920  0.06521  0.35255  1.0000 -0.2272477672
N   N14       1.0  0.69920  0.43479  0.64745  1.0000 -0.2272477672
N   N15       1.0  0.69920  0.93479  0.85255  1.0000 -0.2272477672
N   N16       1.0  0.19920  0.56521  0.14745  1.0000 -0.2272477672
N   N17       1.0  0.87490  0.38929  0.10972  1.0000 -0.2272477672
N   N18       1.0  0.37490  0.11071  0.89028  1.0000 -0.2272477672
N   N19       1.0  0.37490  0.61071  0.60972  1.0000 -0.2272477672
N   N20       1.0  0.87490  0.88929  0.39028  1.0000 -0.2272477672
N   N21       1.0  0.68540  0.43452  0.16045  1.0000 -0.308289266
N   N22       1.0  0.18540  0.06548  0.83955  1.0000 -0.308289266
N   N23       1.0  0.18540  0.56548  0.66045  1.0000 -0.308289266
N   N24       1.0  0.68540  0.93452  0.33955  1.0000 -0.308289266
N   N25       1.0  0.40050  0.99055  0.20822  1.0000 -0.308289266
N   N26       1.0  0.90050  0.50945  0.79178  1.0000 -0.308289266
N   N27       1.0  0.90050  0.00945  0.70822  1.0000 -0.308289266
N   N28       1.0  0.40050  0.49055  0.29178  1.0000 -0.308289266
N   N29       1.0  0.30080  0.06521  0.14745  1.0000 -0.2272477672
N   N30       1.0  0.80080  0.43479  0.85255  1.0000 -0.2272477672
N   N31       1.0  0.80080  0.93479  0.64745  1.0000 -0.2272477672
N   N32       1.0  0.30080  0.56521  0.35255  1.0000 -0.2272477672
O   O1        1.0  0.57790  0.66116  0.52106  1.0000 -0.6865078088
O   O2        1.0  0.07790  0.83884  0.47894  1.0000 -0.6865078088
O   O3        1.0  0.07790  0.33884  0.02106  1.0000 -0.6865078088
O   O4        1.0  0.57790  0.16116  0.97894  1.0000 -0.6865078088
O   O5        1.0  0.36390  0.62882  0.47599  1.0000 -0.6343158509
O   O6        1.0  0.86390  0.87118  0.52401  1.0000 -0.6343158509
O   O7        1.0  0.86390  0.37118  0.97599  1.0000 -0.6343158509
O   O8        1.0  0.36390  0.12882  0.02401  1.0000 -0.6343158509
O   O9        1.0  0.72440  0.74011  0.44015  1.0000 -0.6607938806
O   O10       1.0  0.22440  0.75989  0.55985  1.0000 -0.6607938806
O   O11       1.0  0.22440  0.25989  0.94015  1.0000 -0.6607938806
O   O12       1.0  0.72440  0.24011  0.05985  1.0000 -0.6607938806
O   O13       1.0  0.95780  0.69172  0.42025  1.0000 -0.6607938806
O   O14       1.0  0.45780  0.80828  0.57975  1.0000 -0.6607938806
O   O15       1.0  0.45780  0.30828  0.92025  1.0000 -0.6607938806
O   O16       1.0  0.95780  0.19172  0.07975  1.0000 -0.6607938806
O   O17       1.0  0.56460  0.88761  0.47478  1.0000 -0.5913907166
O   O18       1.0  0.06460  0.61239  0.52522  1.0000 -0.5913907166
O   O19       1.0  0.06460  0.11239  0.97478  1.0000 -0.5913907166
O   O20       1.0  0.56460  0.38761  0.02522  1.0000 -0.5913907166
O   O21       1.0  0.41190  0.78855  0.46901  1.0000 -0.7242405515
O   O22       1.0  0.91190  0.71145  0.53099  1.0000 -0.7242405515
O   O23       1.0  0.91190  0.21145  0.96901  1.0000 -0.7242405515
O   O24       1.0  0.41190  0.28855  0.03099  1.0000 -0.7242405515
O   O25       1.0  0.24780  0.71460  0.38979  1.0000 -0.6865078088
O   O26       1.0  0.74780  0.78540  0.61021  1.0000 -0.6865078088
O   O27       1.0  0.74780  0.28540  0.88979  1.0000 -0.6865078088
O   O28       1.0  0.24780  0.21460  0.11021  1.0000 -0.6865078088
O   O29       1.0  0.44970  0.73435  0.33663  1.0000 -0.535155433
O   O30       1.0  0.94970  0.76565  0.66337  1.0000 -0.535155433
O   O31       1.0  0.94970  0.26565  0.83663  1.0000 -0.535155433
O   O32       1.0  0.44970  0.23435  0.16337  1.0000 -0.535155433
O   O33       1.0  0.92210  0.66116  0.97894  1.0000 -0.6865078088
O   O34       1.0  0.42210  0.83884  0.02106  1.0000 -0.6865078088
O   O35       1.0  0.42210  0.33884  0.47894  1.0000 -0.6865078088
O   O36       1.0  0.92210  0.16116  0.52106  1.0000 -0.6865078088
O   O37       1.0  0.13610  0.62882  0.02401  1.0000 -0.6343158509
O   O38       1.0  0.63610  0.87118  0.97599  1.0000 -0.6343158509
O   O39       1.0  0.63610  0.37118  0.52401  1.0000 -0.6343158509
O   O40       1.0  0.13610  0.12882  0.47599  1.0000 -0.6343158509
O   O41       1.0  0.77560  0.74011  0.05985  1.0000 -0.6607938806
O   O42       1.0  0.27560  0.75989  0.94015  1.0000 -0.6607938806
O   O43       1.0  0.27560  0.25989  0.55985  1.0000 -0.6607938806
O   O44       1.0  0.77560  0.24011  0.44015  1.0000 -0.6607938806
O   O45       1.0  0.54220  0.69172  0.07975  1.0000 -0.6607938806
O   O46       1.0  0.04220  0.80828  0.92025  1.0000 -0.6607938806
O   O47       1.0  0.04220  0.30828  0.57975  1.0000 -0.6607938806
O   O48       1.0  0.54220  0.19172  0.42025  1.0000 -0.6607938806
O   O49       1.0  0.93540  0.88761  0.02522  1.0000 -0.5913907166
O   O50       1.0  0.43540  0.61239  0.97478  1.0000 -0.5913907166
O   O51       1.0  0.43540  0.11239  0.52522  1.0000 -0.5913907166
O   O52       1.0  0.93540  0.38761  0.47478  1.0000 -0.5913907166
O   O53       1.0  0.08810  0.78855  0.03099  1.0000 -0.7242405515
O   O54       1.0  0.58810  0.71145  0.96901  1.0000 -0.7242405515
O   O55       1.0  0.58810  0.21145  0.53099  1.0000 -0.7242405515
O   O56       1.0  0.08810  0.28855  0.46901  1.0000 -0.7242405515
O   O57       1.0  0.25220  0.71460  0.11021  1.0000 -0.6865078088
O   O58       1.0  0.75220  0.78540  0.88979  1.0000 -0.6865078088
O   O59       1.0  0.75220  0.28540  0.61021  1.0000 -0.6865078088
O   O60       1.0  0.25220  0.21460  0.38979  1.0000 -0.6865078088
O   O61       1.0  0.05030  0.73435  0.16337  1.0000 -0.535155433
O   O62       1.0  0.55030  0.76565  0.83663  1.0000 -0.535155433
O   O63       1.0  0.55030  0.26565  0.66337  1.0000 -0.535155433
O   O64       1.0  0.05030  0.23435  0.33663  1.0000 -0.535155433
