# DDEC6 charges by PACMAN v1.1 (https://github.com/mtap-research/PACMAN-charge/)
data_2010[Er][nan]3[ASR]1
_chemical_formula_sum              "Er4 H12 C36 O24"
_cell_length_a       10.27
_cell_length_b       10.27
_cell_length_c       14.46
_cell_angle_alpha    90
_cell_angle_beta     90
_cell_angle_gamma    90

_symmetry_space_group_name_H-M    "P 1"
_symmetry_Int_Tables_number       1

loop_
  _symmetry_equiv_pos_as_xyz
  'x, y, z'

loop_
  _atom_site_type_symbol
  _atom_site_label
  _atom_site_symmetry_multiplicity
  _atom_site_fract_x
  _atom_site_fract_y
  _atom_site_fract_z
  _atom_site_occupancy
  _atom_site_charge
Er  Er1       1.0  0.64867  0.35133  0.12500  1.0000 2.115171254
Er  Er2       1.0  0.35133  0.64867  0.62500  1.0000 2.113928974
Er  Er3       1.0  0.64867  0.64867  0.37500  1.0000 2.115171254
Er  Er4       1.0  0.35133  0.35133  0.87500  1.0000 2.113928974
H   H1        1.0  0.57510  0.94080  0.12840  1.0000 0.1381020251
H   H2        1.0  0.42490  0.05920  0.62840  1.0000 0.1381020251
H   H3        1.0  0.05920  0.57510  0.37840  1.0000 0.1381020251
H   H4        1.0  0.94080  0.42490  0.87840  1.0000 0.1381020251
H   H5        1.0  0.42490  0.94080  0.87160  1.0000 0.1381020251
H   H6        1.0  0.57510  0.05920  0.37160  1.0000 0.1381020251
H   H7        1.0  0.94080  0.57510  0.62160  1.0000 0.1381020251
H   H8        1.0  0.05920  0.42490  0.12160  1.0000 0.1381020251
H   H9        1.0  0.50000  0.60080  0.00000  1.0000 0.1091235506
H   H10       1.0  0.50000  0.39920  0.50000  1.0000 0.1091235506
H   H11       1.0  0.39920  0.50000  0.25000  1.0000 0.1091235506
H   H12       1.0  0.60080  0.50000  0.75000  1.0000 0.1091235506
C   C1        1.0  0.58780  0.68340  0.16070  1.0000 0.6500111374
C   C2        1.0  0.41220  0.31660  0.66070  1.0000 0.6500111374
C   C3        1.0  0.31660  0.58780  0.41070  1.0000 0.6500111374
C   C4        1.0  0.68340  0.41220  0.91070  1.0000 0.6500111374
C   C5        1.0  0.41220  0.68340  0.83930  1.0000 0.6500111374
C   C6        1.0  0.58780  0.31660  0.33930  1.0000 0.6500111374
C   C7        1.0  0.68340  0.58780  0.58930  1.0000 0.6500111374
C   C8        1.0  0.31660  0.41220  0.08930  1.0000 0.6500111374
C   C9        1.0  0.54460  0.89540  0.07720  1.0000 -0.1017993686
C   C10       1.0  0.45540  0.10460  0.57720  1.0000 -0.1017993686
C   C11       1.0  0.10460  0.54460  0.32720  1.0000 -0.1017993686
C   C12       1.0  0.89540  0.45540  0.82720  1.0000 -0.1017993686
C   C13       1.0  0.45540  0.89540  0.92280  1.0000 -0.1017993686
C   C14       1.0  0.54460  0.10460  0.42280  1.0000 -0.1017993686
C   C15       1.0  0.89540  0.54460  0.67280  1.0000 -0.1017993686
C   C16       1.0  0.10460  0.45540  0.17280  1.0000 -0.1017993686
C   C17       1.0  0.54320  0.76000  0.07730  1.0000 -0.0328838158
C   C18       1.0  0.45680  0.24000  0.57730  1.0000 -0.0328838158
C   C19       1.0  0.24000  0.54320  0.32730  1.0000 -0.0328838158
C   C20       1.0  0.76000  0.45680  0.82730  1.0000 -0.0328838158
C   C21       1.0  0.45680  0.76000  0.92270  1.0000 -0.0328838158
C   C22       1.0  0.54320  0.24000  0.42270  1.0000 -0.0328838158
C   C23       1.0  0.76000  0.54320  0.67270  1.0000 -0.0328838158
C   C24       1.0  0.24000  0.45680  0.17270  1.0000 -0.0328838158
C   C25       1.0  0.50000  0.11030  0.00000  1.0000 0.670957655
C   C26       1.0  0.50000  0.88970  0.50000  1.0000 0.670957655
C   C27       1.0  0.88970  0.50000  0.25000  1.0000 0.670957655
C   C28       1.0  0.11030  0.50000  0.75000  1.0000 0.670957655
C   C29       1.0  0.50000  0.96260  0.00000  1.0000 -0.0328838158
C   C30       1.0  0.50000  0.03740  0.50000  1.0000 -0.0328838158
C   C31       1.0  0.03740  0.50000  0.25000  1.0000 -0.0328838158
C   C32       1.0  0.96260  0.50000  0.75000  1.0000 -0.0328838158
C   C33       1.0  0.50000  0.69130  0.00000  1.0000 -0.1077729796
C   C34       1.0  0.50000  0.30870  0.50000  1.0000 -0.1077729796
C   C35       1.0  0.30870  0.50000  0.25000  1.0000 -0.1077729796
C   C36       1.0  0.69130  0.50000  0.75000  1.0000 -0.1077729796
O   O1        1.0  0.57230  0.16390  0.05800  1.0000 -0.6807404642
O   O2        1.0  0.42770  0.83610  0.55800  1.0000 -0.6807404642
O   O3        1.0  0.83610  0.57230  0.30800  1.0000 -0.6807404642
O   O4        1.0  0.16390  0.42770  0.80800  1.0000 -0.6807404642
O   O5        1.0  0.42770  0.16390  0.94200  1.0000 -0.6807404642
O   O6        1.0  0.57230  0.83610  0.44200  1.0000 -0.6807404642
O   O7        1.0  0.16390  0.57230  0.69200  1.0000 -0.6807404642
O   O8        1.0  0.83610  0.42770  0.19200  1.0000 -0.6807404642
O   O9        1.0  0.61140  0.56690  0.15010  1.0000 -0.6807404642
O   O10       1.0  0.38860  0.43310  0.65010  1.0000 -0.6807404642
O   O11       1.0  0.43310  0.61140  0.40010  1.0000 -0.6807404642
O   O12       1.0  0.56690  0.38860  0.90010  1.0000 -0.6807404642
O   O13       1.0  0.38860  0.56690  0.84990  1.0000 -0.6807404642
O   O14       1.0  0.61140  0.43310  0.34990  1.0000 -0.6807404642
O   O15       1.0  0.56690  0.61140  0.59990  1.0000 -0.6807404642
O   O16       1.0  0.43310  0.38860  0.09990  1.0000 -0.6807404642
O   O17       1.0  0.59590  0.74170  0.23670  1.0000 -0.6689363119
O   O18       1.0  0.40410  0.25830  0.73670  1.0000 -0.6689363119
O   O19       1.0  0.25830  0.59590  0.48670  1.0000 -0.6689363119
O   O20       1.0  0.74170  0.40410  0.98670  1.0000 -0.6689363119
O   O21       1.0  0.40410  0.74170  0.76330  1.0000 -0.6689363119
O   O22       1.0  0.59590  0.25830  0.26330  1.0000 -0.6689363119
O   O23       1.0  0.74170  0.59590  0.51330  1.0000 -0.6689363119
O   O24       1.0  0.25830  0.40410  0.01330  1.0000 -0.6689363119
