# DDEC6 charges by PACMAN v1.1 (https://github.com/mtap-research/PACMAN-charge/)
data_2010[Eu][flu]3[ASR]1
_chemical_formula_sum              "Eu2 P2 H24 C42 O14"
_cell_length_a       10.724
_cell_length_b       11.831
_cell_length_c       14.593
_cell_angle_alpha    73.66
_cell_angle_beta     71.98
_cell_angle_gamma    66.9

_symmetry_space_group_name_H-M    "P 1"
_symmetry_Int_Tables_number       1

loop_
  _symmetry_equiv_pos_as_xyz
  'x, y, z'

loop_
  _atom_site_type_symbol
  _atom_site_label
  _atom_site_symmetry_multiplicity
  _atom_site_fract_x
  _atom_site_fract_y
  _atom_site_fract_z
  _atom_site_occupancy
  _atom_site_charge
Eu  Eu1       1.0  0.98757  0.55121  0.62777  1.0000 2.1225538842
Eu  Eu2       1.0  0.01243  0.44879  0.37223  1.0000 2.1225538842
P   P1        1.0  0.14274  0.71945  0.72620  1.0000 0.9023386232
P   P2        1.0  0.85726  0.28055  0.27380  1.0000 0.9023386232
H   H1        1.0  0.50770  0.63230  0.44260  1.0000 0.1197134733
H   H2        1.0  0.49230  0.36770  0.55740  1.0000 0.1197134733
H   H3        1.0  0.95420  0.89760  0.61620  1.0000 0.1197134733
H   H4        1.0  0.04580  0.10240  0.38380  1.0000 0.1197134733
H   H5        1.0  0.27990  0.67860  0.53500  1.0000 0.1269579134
H   H6        1.0  0.72010  0.32140  0.46500  1.0000 0.1269579134
H   H7        1.0  0.96860  0.82170  0.89590  1.0000 0.1197134733
H   H8        1.0  0.03140  0.17830  0.10410  1.0000 0.1197134733
H   H9        1.0  0.64150  0.61680  0.67820  1.0000 0.1269579134
H   H10       1.0  0.35850  0.38320  0.32180  1.0000 0.1269579134
H   H11       1.0  0.41090  0.67180  0.77140  1.0000 0.1116049952
H   H12       1.0  0.58910  0.32820  0.22860  1.0000 0.1116049952
H   H13       1.0  0.18740  0.91910  0.77990  1.0000 0.1116049952
H   H14       1.0  0.81260  0.08090  0.22010  1.0000 0.1116049952
H   H15       1.0  0.25070  0.42350  0.01690  1.0000 0.1269579134
H   H16       1.0  0.74930  0.57650  0.98310  1.0000 0.1269579134
H   H17       1.0  0.93580  0.74680  0.06320  1.0000 0.1269579134
H   H18       1.0  0.06420  0.25320  0.93680  1.0000 0.1269579134
H   H19       1.0  0.88590  0.11490  0.56540  1.0000 0.1197134733
H   H20       1.0  0.11410  0.88510  0.43460  1.0000 0.1197134733
H   H21       1.0  0.11130  0.13630  0.73370  1.0000 0.1355374969
H   H22       1.0  0.88870  0.86370  0.26630  1.0000 0.1355374969
H   H23       1.0  0.27590  0.49560  0.84820  1.0000 0.1269579134
H   H24       1.0  0.72410  0.50440  0.15180  1.0000 0.1269579134
C   C1        1.0  0.12870  0.66750  0.85570  1.0000 -0.1541094788
C   C2        1.0  0.87130  0.33250  0.14430  1.0000 -0.1541094788
C   C3        1.0  0.48820  0.63930  0.50920  1.0000 -0.0921545564
C   C4        1.0  0.51180  0.36070  0.49080  1.0000 -0.0921545564
C   C5        1.0  0.07820  0.88690  0.70270  1.0000 -0.158802648
C   C6        1.0  0.92180  0.11310  0.29730  1.0000 -0.158802648
C   C7        1.0  0.32250  0.67760  0.66270  1.0000 -0.158802648
C   C8        1.0  0.67750  0.32240  0.33730  1.0000 -0.158802648
C   C9        1.0  0.98780  0.94570  0.63890  1.0000 -0.0802492731
C   C10       1.0  0.01220  0.05430  0.36110  1.0000 -0.0802492731
C   C11       1.0  0.35290  0.66680  0.56420  1.0000 -0.0725934141
C   C12       1.0  0.64710  0.33320  0.43580  1.0000 -0.0725934141
C   C13       1.0  0.59520  0.62180  0.55140  1.0000 -0.0123664707
C   C14       1.0  0.40480  0.37820  0.44860  1.0000 -0.0123664707
C   C15       1.0  0.02590  0.74080  0.92030  1.0000 -0.0921545564
C   C16       1.0  0.97410  0.25920  0.07970  1.0000 -0.0921545564
C   C17       1.0  0.56720  0.63130  0.64930  1.0000 -0.0921545564
C   C18       1.0  0.43280  0.36870  0.35070  1.0000 -0.0921545564
C   C19       1.0  0.43040  0.66180  0.70550  1.0000 -0.0995609582
C   C20       1.0  0.56960  0.33820  0.29450  1.0000 -0.0995609582
C   C21       1.0  0.12550  0.95880  0.73690  1.0000 -0.0995609582
C   C22       1.0  0.87450  0.04120  0.26310  1.0000 -0.0995609582
C   C23       1.0  0.09080  0.57950  0.05620  1.0000 0.0059273952
C   C24       1.0  0.90920  0.42050  0.94380  1.0000 0.0059273952
C   C25       1.0  0.06720  0.53530  0.16540  1.0000 0.5618897668
C   C26       1.0  0.93280  0.46470  0.83460  1.0000 0.5618897668
C   C27       1.0  0.19290  0.50400  0.99230  1.0000 -0.0921545564
C   C28       1.0  0.80710  0.49600  0.00770  1.0000 -0.0921545564
C   C29       1.0  0.00710  0.69650  0.01930  1.0000 -0.0995609582
C   C30       1.0  0.99290  0.30350  0.98070  1.0000 -0.0995609582
C   C31       1.0  0.99570  0.14600  0.64210  1.0000 -0.0194259228
C   C32       1.0  0.00430  0.85400  0.35790  1.0000 -0.0194259228
C   C33       1.0  0.94720  0.07490  0.60890  1.0000 -0.0995609582
C   C34       1.0  0.05280  0.92510  0.39110  1.0000 -0.0995609582
C   C35       1.0  0.08210  0.08760  0.70820  1.0000 -0.0921545564
C   C36       1.0  0.91790  0.91240  0.29180  1.0000 -0.0921545564
C   C37       1.0  0.96130  0.28290  0.60230  1.0000 0.6364037983
C   C38       1.0  0.03870  0.71710  0.39770  1.0000 0.6364037983
C   C39       1.0  0.74160  0.58500  0.49280  1.0000 0.6185951225
C   C40       1.0  0.25840  0.41500  0.50720  1.0000 0.6185951225
C   C41       1.0  0.20910  0.54780  0.89240  1.0000 -0.0921545564
C   C42       1.0  0.79090  0.45220  0.10760  1.0000 -0.0921545564
O   O1        1.0  0.94680  0.57520  0.21640  1.0000 -0.5985564001
O   O2        1.0  0.05320  0.42480  0.78360  1.0000 -0.5985564001
O   O3        1.0  0.76430  0.56070  0.40950  1.0000 -0.5985564001
O   O4        1.0  0.23570  0.43930  0.59050  1.0000 -0.5985564001
O   O5        1.0  0.93270  0.31940  0.51770  1.0000 -0.6890179523
O   O6        1.0  0.06730  0.68060  0.48230  1.0000 -0.6890179523
O   O7        1.0  0.16780  0.45900  0.20370  1.0000 -0.6496230371
O   O8        1.0  0.83220  0.54100  0.79630  1.0000 -0.6496230371
O   O9        1.0  0.96650  0.35120  0.65270  1.0000 -0.6496230371
O   O10       1.0  0.03350  0.64880  0.34730  1.0000 -0.6496230371
O   O11       1.0  0.84030  0.57500  0.52850  1.0000 -0.7577235707
O   O12       1.0  0.15970  0.42500  0.47150  1.0000 -0.7577235707
O   O13       1.0  0.06410  0.67100  0.68700  1.0000 -0.7694781132
O   O14       1.0  0.93590  0.32900  0.31300  1.0000 -0.7694781132
