# DDEC6 charges by PACMAN v1.1 (https://github.com/mtap-research/PACMAN-charge/)
data_2010[Cd][nuc]3[ASR]1
_chemical_formula_sum              "Cd4 H144 C192 N48"
_cell_length_a       15.8539
_cell_length_b       15.8539
_cell_length_c       21.66
_cell_angle_alpha    90
_cell_angle_beta     90
_cell_angle_gamma    90

_symmetry_space_group_name_H-M    "P 1"
_symmetry_Int_Tables_number       1

loop_
  _symmetry_equiv_pos_as_xyz
  'x, y, z'

loop_
  _atom_site_type_symbol
  _atom_site_label
  _atom_site_symmetry_multiplicity
  _atom_site_fract_x
  _atom_site_fract_y
  _atom_site_fract_z
  _atom_site_occupancy
  _atom_site_charge
Cd  Cd1       1.0  0.05812  0.94188  0.25000  1.0000 0.6399346653
Cd  Cd2       1.0  0.94188  0.05812  0.75000  1.0000 0.6399346653
Cd  Cd3       1.0  0.55812  0.55812  0.50000  1.0000 0.6399346653
Cd  Cd4       1.0  0.44188  0.44188  0.00000  1.0000 0.6399346653
H   H1        1.0  0.53790  0.61070  0.34920  1.0000 0.1008877541
H   H2        1.0  0.46210  0.38930  0.84920  1.0000 0.1008877541
H   H3        1.0  0.88930  0.03790  0.59920  1.0000 0.1008877541
H   H4        1.0  0.11070  0.96210  0.09920  1.0000 0.1008877541
H   H5        1.0  0.96210  0.11070  0.90080  1.0000 0.1008877541
H   H6        1.0  0.03790  0.88930  0.40080  1.0000 0.1008877541
H   H7        1.0  0.61070  0.53790  0.65080  1.0000 0.1008877541
H   H8        1.0  0.38930  0.46210  0.15080  1.0000 0.1008877541
H   H9        1.0  0.58490  0.71430  0.28380  1.0000 0.1267973024
H   H10       1.0  0.41510  0.28570  0.78380  1.0000 0.1267973024
H   H11       1.0  0.78570  0.08490  0.53380  1.0000 0.1267973024
H   H12       1.0  0.21430  0.91510  0.03380  1.0000 0.1267973024
H   H13       1.0  0.91510  0.21430  0.96620  1.0000 0.1267973024
H   H14       1.0  0.08490  0.78570  0.46620  1.0000 0.1267973024
H   H15       1.0  0.71430  0.58490  0.71620  1.0000 0.1267973024
H   H16       1.0  0.28570  0.41510  0.21620  1.0000 0.1267973024
H   H17       1.0  0.78670  0.74140  0.39560  1.0000 0.1267973024
H   H18       1.0  0.21330  0.25860  0.89560  1.0000 0.1267973024
H   H19       1.0  0.75860  0.28670  0.64560  1.0000 0.1267973024
H   H20       1.0  0.24140  0.71330  0.14560  1.0000 0.1267973024
H   H21       1.0  0.71330  0.24140  0.85440  1.0000 0.1267973024
H   H22       1.0  0.28670  0.75860  0.35440  1.0000 0.1267973024
H   H23       1.0  0.74140  0.78670  0.60440  1.0000 0.1267973024
H   H24       1.0  0.25860  0.21330  0.10440  1.0000 0.1267973024
H   H25       1.0  0.72680  0.64210  0.46080  1.0000 0.0905004729
H   H26       1.0  0.27320  0.35790  0.96080  1.0000 0.0905004729
H   H27       1.0  0.85790  0.22680  0.71080  1.0000 0.0905004729
H   H28       1.0  0.14210  0.77320  0.21080  1.0000 0.0905004729
H   H29       1.0  0.77320  0.14210  0.78920  1.0000 0.0905004729
H   H30       1.0  0.22680  0.85790  0.28920  1.0000 0.0905004729
H   H31       1.0  0.64210  0.72680  0.53920  1.0000 0.0905004729
H   H32       1.0  0.35790  0.27320  0.03920  1.0000 0.0905004729
H   H33       1.0  0.65110  0.79810  0.22020  1.0000 0.0905004729
H   H34       1.0  0.34890  0.20190  0.72020  1.0000 0.0905004729
H   H35       1.0  0.70190  0.15110  0.47020  1.0000 0.0905004729
H   H36       1.0  0.29810  0.84890  0.97020  1.0000 0.0905004729
H   H37       1.0  0.84890  0.29810  0.02980  1.0000 0.0905004729
H   H38       1.0  0.15110  0.70190  0.52980  1.0000 0.0905004729
H   H39       1.0  0.79810  0.65110  0.77980  1.0000 0.0905004729
H   H40       1.0  0.20190  0.34890  0.27980  1.0000 0.0905004729
H   H41       1.0  0.70570  0.90730  0.16270  1.0000 0.108989606
H   H42       1.0  0.29430  0.09270  0.66270  1.0000 0.108989606
H   H43       1.0  0.59270  0.20570  0.41270  1.0000 0.108989606
H   H44       1.0  0.40730  0.79430  0.91270  1.0000 0.108989606
H   H45       1.0  0.79430  0.40730  0.08730  1.0000 0.108989606
H   H46       1.0  0.20570  0.59270  0.58730  1.0000 0.108989606
H   H47       1.0  0.90730  0.70570  0.83730  1.0000 0.108989606
H   H48       1.0  0.09270  0.29430  0.33730  1.0000 0.108989606
H   H49       1.0  0.80290  0.00280  0.20780  1.0000 0.108989606
H   H50       1.0  0.19710  0.99720  0.70780  1.0000 0.108989606
H   H51       1.0  0.49720  0.30290  0.45780  1.0000 0.108989606
H   H52       1.0  0.50280  0.69710  0.95780  1.0000 0.108989606
H   H53       1.0  0.69710  0.50280  0.04220  1.0000 0.108989606
H   H54       1.0  0.30290  0.49720  0.54220  1.0000 0.108989606
H   H55       1.0  0.00280  0.80290  0.79220  1.0000 0.108989606
H   H56       1.0  0.99720  0.19710  0.29220  1.0000 0.108989606
H   H57       1.0  0.79800  0.86490  0.36440  1.0000 0.108989606
H   H58       1.0  0.20200  0.13510  0.86440  1.0000 0.108989606
H   H59       1.0  0.63510  0.29800  0.61440  1.0000 0.108989606
H   H60       1.0  0.36490  0.70200  0.11440  1.0000 0.108989606
H   H61       1.0  0.70200  0.36490  0.88560  1.0000 0.108989606
H   H62       1.0  0.29800  0.63510  0.38560  1.0000 0.108989606
H   H63       1.0  0.86490  0.79800  0.63560  1.0000 0.108989606
H   H64       1.0  0.13510  0.20200  0.13560  1.0000 0.108989606
H   H65       1.0  0.04560  0.11890  0.46170  1.0000 0.108989606
H   H66       1.0  0.95440  0.88110  0.96170  1.0000 0.108989606
H   H67       1.0  0.38110  0.54560  0.71170  1.0000 0.108989606
H   H68       1.0  0.61890  0.45440  0.21170  1.0000 0.108989606
H   H69       1.0  0.45440  0.61890  0.78830  1.0000 0.108989606
H   H70       1.0  0.54560  0.38110  0.28830  1.0000 0.108989606
H   H71       1.0  0.11890  0.04560  0.53830  1.0000 0.108989606
H   H72       1.0  0.88110  0.95440  0.03830  1.0000 0.108989606
H   H73       1.0  0.06640  0.23130  0.52970  1.0000 0.108989606
H   H74       1.0  0.93360  0.76870  0.02970  1.0000 0.108989606
H   H75       1.0  0.26870  0.56640  0.77970  1.0000 0.108989606
H   H76       1.0  0.73130  0.43360  0.27970  1.0000 0.108989606
H   H77       1.0  0.43360  0.73130  0.72030  1.0000 0.108989606
H   H78       1.0  0.56640  0.26870  0.22030  1.0000 0.108989606
H   H79       1.0  0.23130  0.06640  0.47030  1.0000 0.108989606
H   H80       1.0  0.76870  0.93360  0.97030  1.0000 0.108989606
H   H81       1.0  0.96330  0.33510  0.54080  1.0000 0.108989606
H   H82       1.0  0.03670  0.66490  0.04080  1.0000 0.108989606
H   H83       1.0  0.16490  0.46330  0.79080  1.0000 0.108989606
H   H84       1.0  0.83510  0.53670  0.29080  1.0000 0.108989606
H   H85       1.0  0.53670  0.83510  0.70920  1.0000 0.108989606
H   H86       1.0  0.46330  0.16490  0.20920  1.0000 0.108989606
H   H87       1.0  0.33510  0.96330  0.45920  1.0000 0.108989606
H   H88       1.0  0.66490  0.03670  0.95920  1.0000 0.108989606
H   H89       1.0  0.82580  0.22370  0.40510  1.0000 0.1008877541
H   H90       1.0  0.17420  0.77630  0.90510  1.0000 0.1008877541
H   H91       1.0  0.27630  0.32580  0.65510  1.0000 0.1008877541
H   H92       1.0  0.72370  0.67420  0.15510  1.0000 0.1008877541
H   H93       1.0  0.67420  0.72370  0.84490  1.0000 0.1008877541
H   H94       1.0  0.32580  0.27630  0.34490  1.0000 0.1008877541
H   H95       1.0  0.22370  0.82580  0.59490  1.0000 0.1008877541
H   H96       1.0  0.77630  0.17420  0.09490  1.0000 0.1008877541
H   H97       1.0  0.76860  0.34760  0.39230  1.0000 0.1267973024
H   H98       1.0  0.23140  0.65240  0.89230  1.0000 0.1267973024
H   H99       1.0  0.15240  0.26860  0.64230  1.0000 0.1267973024
H   H100      1.0  0.84760  0.73140  0.14230  1.0000 0.1267973024
H   H101      1.0  0.73140  0.84760  0.85770  1.0000 0.1267973024
H   H102      1.0  0.26860  0.15240  0.35770  1.0000 0.1267973024
H   H103      1.0  0.34760  0.76860  0.60770  1.0000 0.1267973024
H   H104      1.0  0.65240  0.23140  0.10770  1.0000 0.1267973024
H   H105      1.0  0.66180  0.44490  0.40660  1.0000 0.1008877541
H   H106      1.0  0.33820  0.55510  0.90660  1.0000 0.1008877541
H   H107      1.0  0.05510  0.16180  0.65660  1.0000 0.1008877541
H   H108      1.0  0.94490  0.83820  0.15660  1.0000 0.1008877541
H   H109      1.0  0.83820  0.94490  0.84340  1.0000 0.1008877541
H   H110      1.0  0.16180  0.05510  0.34340  1.0000 0.1008877541
H   H111      1.0  0.44490  0.66180  0.59340  1.0000 0.1008877541
H   H112      1.0  0.55510  0.33820  0.09340  1.0000 0.1008877541
H   H113      1.0  0.73530  0.48990  0.57520  1.0000 0.0905004729
H   H114      1.0  0.26470  0.51010  0.07520  1.0000 0.0905004729
H   H115      1.0  0.01010  0.23530  0.82520  1.0000 0.0905004729
H   H116      1.0  0.98990  0.76470  0.32520  1.0000 0.0905004729
H   H117      1.0  0.76470  0.98990  0.67480  1.0000 0.0905004729
H   H118      1.0  0.23530  0.01010  0.17480  1.0000 0.0905004729
H   H119      1.0  0.48990  0.73530  0.42480  1.0000 0.0905004729
H   H120      1.0  0.51010  0.26470  0.92480  1.0000 0.0905004729
H   H121      1.0  0.84470  0.39480  0.56640  1.0000 0.1223431293
H   H122      1.0  0.15530  0.60520  0.06640  1.0000 0.1223431293
H   H123      1.0  0.10520  0.34470  0.81640  1.0000 0.1223431293
H   H124      1.0  0.89480  0.65530  0.31640  1.0000 0.1223431293
H   H125      1.0  0.65530  0.89480  0.68360  1.0000 0.1223431293
H   H126      1.0  0.34470  0.10520  0.18360  1.0000 0.1223431293
H   H127      1.0  0.39480  0.84470  0.43360  1.0000 0.1223431293
H   H128      1.0  0.60520  0.15530  0.93360  1.0000 0.1223431293
H   H129      1.0  0.74980  0.02980  0.40640  1.0000 0.2493109915
H   H130      1.0  0.25020  0.97020  0.90640  1.0000 0.2493109915
H   H131      1.0  0.47020  0.24980  0.65640  1.0000 0.2493109915
H   H132      1.0  0.52980  0.75020  0.15640  1.0000 0.2493109915
H   H133      1.0  0.75020  0.52980  0.84360  1.0000 0.2493109915
H   H134      1.0  0.24980  0.47020  0.34360  1.0000 0.2493109915
H   H135      1.0  0.02980  0.74980  0.59360  1.0000 0.2493109915
H   H136      1.0  0.97020  0.25020  0.09360  1.0000 0.2493109915
H   H137      1.0  0.73560  0.08290  0.35080  1.0000 0.2493109915
H   H138      1.0  0.26440  0.91710  0.85080  1.0000 0.2493109915
H   H139      1.0  0.41710  0.23560  0.60080  1.0000 0.2493109915
H   H140      1.0  0.58290  0.76440  0.10080  1.0000 0.2493109915
H   H141      1.0  0.76440  0.58290  0.89920  1.0000 0.2493109915
H   H142      1.0  0.23560  0.41710  0.39920  1.0000 0.2493109915
H   H143      1.0  0.08290  0.73560  0.64920  1.0000 0.2493109915
H   H144      1.0  0.91710  0.26440  0.14920  1.0000 0.2493109915
C   C1        1.0  0.58750  0.64070  0.36020  1.0000 0.0598491545
C   C2        1.0  0.41250  0.35930  0.86020  1.0000 0.0598491545
C   C3        1.0  0.85930  0.08750  0.61020  1.0000 0.0598491545
C   C4        1.0  0.14070  0.91250  0.11020  1.0000 0.0598491545
C   C5        1.0  0.91250  0.14070  0.88980  1.0000 0.0598491545
C   C6        1.0  0.08750  0.85930  0.38980  1.0000 0.0598491545
C   C7        1.0  0.64070  0.58750  0.63980  1.0000 0.0598491545
C   C8        1.0  0.35930  0.41250  0.13980  1.0000 0.0598491545
C   C9        1.0  0.61540  0.70210  0.32050  1.0000 -0.2182693269
C   C10       1.0  0.38460  0.29790  0.82050  1.0000 -0.2182693269
C   C11       1.0  0.79790  0.11540  0.57050  1.0000 -0.2112301262
C   C12       1.0  0.20210  0.88460  0.07050  1.0000 -0.2182693269
C   C13       1.0  0.88460  0.20210  0.92950  1.0000 -0.2182693269
C   C14       1.0  0.11540  0.79790  0.42950  1.0000 -0.2182693269
C   C15       1.0  0.70210  0.61540  0.67950  1.0000 -0.2182693269
C   C16       1.0  0.29790  0.38460  0.17950  1.0000 -0.2182693269
C   C17       1.0  0.68920  0.74680  0.33480  1.0000 0.108989606
C   C18       1.0  0.31080  0.25320  0.83480  1.0000 0.108989606
C   C19       1.0  0.75320  0.18920  0.58480  1.0000 0.108989606
C   C20       1.0  0.24680  0.81080  0.08480  1.0000 0.108989606
C   C21       1.0  0.81080  0.24680  0.91520  1.0000 0.108989606
C   C22       1.0  0.18920  0.75320  0.41520  1.0000 0.108989606
C   C23       1.0  0.74680  0.68920  0.66520  1.0000 0.108989606
C   C24       1.0  0.25320  0.31080  0.16520  1.0000 0.108989606
C   C25       1.0  0.73270  0.71880  0.38630  1.0000 -0.2112301262
C   C26       1.0  0.26730  0.28120  0.88630  1.0000 -0.2112301262
C   C27       1.0  0.78120  0.23270  0.63630  1.0000 -0.2112301262
C   C28       1.0  0.21880  0.76730  0.13630  1.0000 -0.2112301262
C   C29       1.0  0.76730  0.21880  0.86370  1.0000 -0.2112301262
C   C30       1.0  0.23270  0.78120  0.36370  1.0000 -0.2112301262
C   C31       1.0  0.71880  0.73270  0.61370  1.0000 -0.2112301262
C   C32       1.0  0.28120  0.26730  0.11370  1.0000 -0.2112301262
C   C33       1.0  0.69740  0.65770  0.42440  1.0000 0.0402084266
C   C34       1.0  0.30260  0.34230  0.92440  1.0000 0.0402084266
C   C35       1.0  0.84230  0.19740  0.67440  1.0000 0.0402084266
C   C36       1.0  0.15770  0.80260  0.17440  1.0000 0.0402084266
C   C37       1.0  0.80260  0.15770  0.82560  1.0000 0.0402084266
C   C38       1.0  0.19740  0.84230  0.32560  1.0000 0.0402084266
C   C39       1.0  0.65770  0.69740  0.57560  1.0000 0.0402084266
C   C40       1.0  0.34230  0.30260  0.07560  1.0000 0.0402084266
C   C41       1.0  0.72030  0.81820  0.29820  1.0000 0.0666110852
C   C42       1.0  0.27970  0.18180  0.79820  1.0000 0.0666110852
C   C43       1.0  0.68180  0.22030  0.54820  1.0000 0.0666110852
C   C44       1.0  0.31820  0.77970  0.04820  1.0000 0.0666110852
C   C45       1.0  0.77970  0.31820  0.95180  1.0000 0.0666110852
C   C46       1.0  0.22030  0.68180  0.45180  1.0000 0.0666110852
C   C47       1.0  0.81820  0.72030  0.70180  1.0000 0.0666110852
C   C48       1.0  0.18180  0.27970  0.20180  1.0000 0.0666110852
C   C49       1.0  0.69260  0.83390  0.23790  1.0000 -0.1625342622
C   C50       1.0  0.30740  0.16610  0.73790  1.0000 -0.1625342622
C   C51       1.0  0.66610  0.19260  0.48790  1.0000 -0.1625342622
C   C52       1.0  0.33390  0.80740  0.98790  1.0000 -0.1625342622
C   C53       1.0  0.80740  0.33390  0.01210  1.0000 -0.1625342622
C   C54       1.0  0.19260  0.66610  0.51210  1.0000 -0.1625342622
C   C55       1.0  0.83390  0.69260  0.76210  1.0000 -0.1625342622
C   C56       1.0  0.16610  0.30740  0.26210  1.0000 -0.1625342622
C   C57       1.0  0.72380  0.89940  0.20410  1.0000 -0.1042326784
C   C58       1.0  0.27620  0.10060  0.70410  1.0000 -0.1042326784
C   C59       1.0  0.60060  0.22380  0.45410  1.0000 -0.1042326784
C   C60       1.0  0.39940  0.77620  0.95410  1.0000 -0.1042326784
C   C61       1.0  0.77620  0.39940  0.04590  1.0000 -0.1042326784
C   C62       1.0  0.22380  0.60060  0.54590  1.0000 -0.1042326784
C   C63       1.0  0.89940  0.72380  0.79590  1.0000 -0.1042326784
C   C64       1.0  0.10060  0.27620  0.29590  1.0000 -0.1042326784
C   C65       1.0  0.78280  0.95550  0.23040  1.0000 -0.1670681212
C   C66       1.0  0.21720  0.04450  0.73040  1.0000 -0.1670681212
C   C67       1.0  0.54450  0.28280  0.48040  1.0000 -0.1670681212
C   C68       1.0  0.45550  0.71720  0.98040  1.0000 -0.1670681212
C   C69       1.0  0.71720  0.45550  0.01960  1.0000 -0.1670681212
C   C70       1.0  0.28280  0.54450  0.51960  1.0000 -0.1670681212
C   C71       1.0  0.95550  0.78280  0.76960  1.0000 -0.1670681212
C   C72       1.0  0.04450  0.21720  0.26960  1.0000 -0.1670681212
C   C73       1.0  0.81070  0.93990  0.29030  1.0000 0.0248151876
C   C74       1.0  0.18930  0.06010  0.79030  1.0000 0.0248151876
C   C75       1.0  0.56010  0.31070  0.54030  1.0000 0.0248151876
C   C76       1.0  0.43990  0.68930  0.04030  1.0000 0.0251399081
C   C77       1.0  0.68930  0.43990  0.95970  1.0000 0.0248151876
C   C78       1.0  0.31070  0.56010  0.45970  1.0000 0.0251399081
C   C79       1.0  0.93990  0.81070  0.70970  1.0000 0.0248151876
C   C80       1.0  0.06010  0.18930  0.20970  1.0000 0.0248151876
C   C81       1.0  0.77920  0.87350  0.32320  1.0000 -0.2016388152
C   C82       1.0  0.22080  0.12650  0.82320  1.0000 -0.2016388152
C   C83       1.0  0.62650  0.27920  0.57320  1.0000 -0.2016388152
C   C84       1.0  0.37350  0.72080  0.07320  1.0000 -0.2016388152
C   C85       1.0  0.72080  0.37350  0.92680  1.0000 -0.2016388152
C   C86       1.0  0.27920  0.62650  0.42680  1.0000 -0.2016388152
C   C87       1.0  0.87350  0.77920  0.67680  1.0000 -0.2016388152
C   C88       1.0  0.12650  0.22080  0.17680  1.0000 -0.2016388152
C   C89       1.0  0.87300  0.99660  0.32040  1.0000 0.1775764383
C   C90       1.0  0.12700  0.00340  0.82040  1.0000 0.1775764383
C   C91       1.0  0.50340  0.37300  0.57040  1.0000 0.1775764383
C   C92       1.0  0.49660  0.62700  0.07040  1.0000 0.1775764383
C   C93       1.0  0.62700  0.49660  0.92960  1.0000 0.1775764383
C   C94       1.0  0.37300  0.50340  0.42960  1.0000 0.1775764383
C   C95       1.0  0.99660  0.87300  0.67960  1.0000 0.1775764383
C   C96       1.0  0.00340  0.12700  0.17960  1.0000 0.1775764383
C   C97       1.0  0.92500  0.09220  0.38280  1.0000 0.1775764383
C   C98       1.0  0.07500  0.90780  0.88280  1.0000 0.1775764383
C   C99       1.0  0.40780  0.42500  0.63280  1.0000 0.1775764383
C   C100      1.0  0.59220  0.57500  0.13280  1.0000 0.1775764383
C   C101      1.0  0.57500  0.59220  0.86720  1.0000 0.1775764383
C   C102      1.0  0.42500  0.40780  0.36720  1.0000 0.1775764383
C   C103      1.0  0.09220  0.92500  0.61720  1.0000 0.1775764383
C   C104      1.0  0.90780  0.07500  0.11720  1.0000 0.1775764383
C   C105      1.0  0.93250  0.16150  0.42730  1.0000 0.0402084266
C   C106      1.0  0.06750  0.83850  0.92730  1.0000 0.0402084266
C   C107      1.0  0.33850  0.43250  0.67730  1.0000 0.0402084266
C   C108      1.0  0.66150  0.56750  0.17730  1.0000 0.0402084266
C   C109      1.0  0.56750  0.66150  0.82270  1.0000 0.0402084266
C   C110      1.0  0.43250  0.33850  0.32270  1.0000 0.0402084266
C   C111      1.0  0.16150  0.93250  0.57270  1.0000 0.0402084266
C   C112      1.0  0.83850  0.06750  0.07270  1.0000 0.0402084266
C   C113      1.0  0.00500  0.16280  0.46460  1.0000 -0.1625342622
C   C114      1.0  0.99500  0.83720  0.96460  1.0000 -0.1625342622
C   C115      1.0  0.33720  0.50500  0.71460  1.0000 -0.1625342622
C   C116      1.0  0.66280  0.49500  0.21460  1.0000 -0.1625342622
C   C117      1.0  0.49500  0.66280  0.78540  1.0000 -0.1625342622
C   C118      1.0  0.50500  0.33720  0.28540  1.0000 -0.1625342622
C   C119      1.0  0.16280  0.00500  0.53540  1.0000 -0.1625342622
C   C120      1.0  0.83720  0.99500  0.03540  1.0000 -0.1625342622
C   C121      1.0  0.01670  0.22890  0.50530  1.0000 -0.1111308738
C   C122      1.0  0.98330  0.77110  0.00530  1.0000 -0.1111308738
C   C123      1.0  0.27110  0.51670  0.75530  1.0000 -0.1111308738
C   C124      1.0  0.72890  0.48330  0.25530  1.0000 -0.1111308738
C   C125      1.0  0.48330  0.72890  0.74470  1.0000 -0.1111308738
C   C126      1.0  0.51670  0.27110  0.24470  1.0000 -0.1111308738
C   C127      1.0  0.22890  0.01670  0.49470  1.0000 -0.1111308738
C   C128      1.0  0.77110  0.98330  0.99470  1.0000 -0.1111308738
C   C129      1.0  0.95600  0.29190  0.51090  1.0000 -0.1625342622
C   C130      1.0  0.04400  0.70810  0.01090  1.0000 -0.1625342622
C   C131      1.0  0.20810  0.45600  0.76090  1.0000 -0.1625342622
C   C132      1.0  0.79190  0.54400  0.26090  1.0000 -0.1625342622
C   C133      1.0  0.54400  0.79190  0.73910  1.0000 -0.1625342622
C   C134      1.0  0.45600  0.20810  0.23910  1.0000 -0.1625342622
C   C135      1.0  0.29190  0.95600  0.48910  1.0000 -0.1625342622
C   C136      1.0  0.70810  0.04400  0.98910  1.0000 -0.1625342622
C   C137      1.0  0.88460  0.29230  0.47320  1.0000 0.0666110852
C   C138      1.0  0.11540  0.70770  0.97320  1.0000 0.0666110852
C   C139      1.0  0.20770  0.38460  0.72320  1.0000 0.0666110852
C   C140      1.0  0.79230  0.61540  0.22320  1.0000 0.0666110852
C   C141      1.0  0.61540  0.79230  0.77680  1.0000 0.0666110852
C   C142      1.0  0.38460  0.20770  0.27680  1.0000 0.0666110852
C   C143      1.0  0.29230  0.88460  0.52680  1.0000 0.0666110852
C   C144      1.0  0.70770  0.11540  0.02680  1.0000 0.0666110852
C   C145      1.0  0.87400  0.22500  0.43110  1.0000 -0.2016388152
C   C146      1.0  0.12600  0.77500  0.93110  1.0000 -0.2016388152
C   C147      1.0  0.27500  0.37400  0.68110  1.0000 -0.2016388152
C   C148      1.0  0.72500  0.62600  0.18110  1.0000 -0.2016388152
C   C149      1.0  0.62600  0.72500  0.81890  1.0000 -0.2016388152
C   C150      1.0  0.37400  0.27500  0.31890  1.0000 -0.2016388152
C   C151      1.0  0.22500  0.87400  0.56890  1.0000 -0.2016388152
C   C152      1.0  0.77500  0.12600  0.06890  1.0000 -0.2016388152
C   C153      1.0  0.81890  0.35790  0.47870  1.0000 0.108989606
C   C154      1.0  0.18110  0.64210  0.97870  1.0000 0.108989606
C   C155      1.0  0.14210  0.31890  0.72870  1.0000 0.108989606
C   C156      1.0  0.85790  0.68110  0.22870  1.0000 0.108989606
C   C157      1.0  0.68110  0.85790  0.77130  1.0000 0.108989606
C   C158      1.0  0.31890  0.14210  0.27130  1.0000 0.108989606
C   C159      1.0  0.35790  0.81890  0.52130  1.0000 0.108989606
C   C160      1.0  0.64210  0.18110  0.02130  1.0000 0.108989606
C   C161      1.0  0.76300  0.37540  0.43100  1.0000 -0.2016388152
C   C162      1.0  0.23700  0.62460  0.93100  1.0000 -0.2016388152
C   C163      1.0  0.12460  0.26300  0.68100  1.0000 -0.2016388152
C   C164      1.0  0.87540  0.73700  0.18100  1.0000 -0.2016388152
C   C165      1.0  0.73700  0.87540  0.81900  1.0000 -0.2016388152
C   C166      1.0  0.26300  0.12460  0.31900  1.0000 -0.2016388152
C   C167      1.0  0.37540  0.76300  0.56900  1.0000 -0.2016388152
C   C168      1.0  0.62460  0.23700  0.06900  1.0000 -0.2016388152
C   C169      1.0  0.69900  0.43380  0.44000  1.0000 0.0598491545
C   C170      1.0  0.30100  0.56620  0.94000  1.0000 0.0598491545
C   C171      1.0  0.06620  0.19900  0.69000  1.0000 0.0598491545
C   C172      1.0  0.93380  0.80100  0.19000  1.0000 0.0598491545
C   C173      1.0  0.80100  0.93380  0.81000  1.0000 0.0598491545
C   C174      1.0  0.19900  0.06620  0.31000  1.0000 0.0598491545
C   C175      1.0  0.43380  0.69900  0.56000  1.0000 0.0598491545
C   C176      1.0  0.56620  0.30100  0.06000  1.0000 0.0598491545
C   C177      1.0  0.74140  0.46000  0.53750  1.0000 0.0666110852
C   C178      1.0  0.25860  0.54000  0.03750  1.0000 0.0666110852
C   C179      1.0  0.04000  0.24140  0.78750  1.0000 0.0666110852
C   C180      1.0  0.96000  0.75860  0.28750  1.0000 0.0666110852
C   C181      1.0  0.75860  0.96000  0.71250  1.0000 0.0666110852
C   C182      1.0  0.24140  0.04000  0.21250  1.0000 0.0666110852
C   C183      1.0  0.46000  0.74140  0.46250  1.0000 0.0666110852
C   C184      1.0  0.54000  0.25860  0.96250  1.0000 0.0666110852
C   C185      1.0  0.80740  0.40290  0.53260  1.0000 -0.2112301262
C   C186      1.0  0.19260  0.59710  0.03260  1.0000 -0.2112301262
C   C187      1.0  0.09710  0.30740  0.78260  1.0000 -0.2112301262
C   C188      1.0  0.90290  0.69260  0.28260  1.0000 -0.2112301262
C   C189      1.0  0.69260  0.90290  0.71740  1.0000 -0.2112301262
C   C190      1.0  0.30740  0.09710  0.21740  1.0000 -0.2112301262
C   C191      1.0  0.40290  0.80740  0.46740  1.0000 -0.2112301262
C   C192      1.0  0.59710  0.19260  0.96740  1.0000 -0.2112301262
N   N1        1.0  0.62490  0.62030  0.41220  1.0000 -0.2182693269
N   N2        1.0  0.37510  0.37970  0.91220  1.0000 -0.2182693269
N   N3        1.0  0.87970  0.12490  0.66220  1.0000 -0.2182693269
N   N4        1.0  0.12030  0.87510  0.16220  1.0000 -0.2182693269
N   N5        1.0  0.87510  0.12030  0.83780  1.0000 -0.2182693269
N   N6        1.0  0.12490  0.87970  0.33780  1.0000 -0.2182693269
N   N7        1.0  0.62030  0.62490  0.58780  1.0000 -0.2182693269
N   N8        1.0  0.37970  0.37510  0.08780  1.0000 -0.2182693269
N   N9        1.0  0.95530  0.99430  0.31550  1.0000 -0.23927042
N   N10       1.0  0.04470  0.00570  0.81550  1.0000 -0.23927042
N   N11       1.0  0.50570  0.45530  0.56550  1.0000 -0.23927042
N   N12       1.0  0.49430  0.54470  0.06550  1.0000 -0.23927042
N   N13       1.0  0.54470  0.49430  0.93450  1.0000 -0.23927042
N   N14       1.0  0.45530  0.50570  0.43450  1.0000 -0.23927042
N   N15       1.0  0.99430  0.95530  0.68450  1.0000 -0.23927042
N   N16       1.0  0.00570  0.04470  0.18450  1.0000 -0.23927042
N   N17       1.0  0.98850  0.05490  0.35550  1.0000 -0.2854274001
N   N18       1.0  0.01150  0.94510  0.85550  1.0000 -0.2846061077
N   N19       1.0  0.44510  0.48850  0.60550  1.0000 -0.2846061077
N   N20       1.0  0.55490  0.51150  0.10550  1.0000 -0.2854274001
N   N21       1.0  0.51150  0.55490  0.89450  1.0000 -0.2854274001
N   N22       1.0  0.48850  0.44510  0.39450  1.0000 -0.2846061077
N   N23       1.0  0.05490  0.98850  0.64450  1.0000 -0.2854274001
N   N24       1.0  0.94510  0.01150  0.14450  1.0000 -0.2846061077
N   N25       1.0  0.85090  0.05710  0.36200  1.0000 0.0598491545
N   N26       1.0  0.14910  0.94290  0.86200  1.0000 0.0598491545
N   N27       1.0  0.44290  0.35090  0.61200  1.0000 0.0598491545
N   N28       1.0  0.55710  0.64910  0.11200  1.0000 0.0598491545
N   N29       1.0  0.64910  0.55710  0.88800  1.0000 0.0598491545
N   N30       1.0  0.35090  0.44290  0.38800  1.0000 0.0598491545
N   N31       1.0  0.05710  0.85090  0.63800  1.0000 0.0598491545
N   N32       1.0  0.94290  0.14910  0.13800  1.0000 0.0598491545
N   N33       1.0  0.76990  0.07390  0.38390  1.0000 -0.5106251922
N   N34       1.0  0.23010  0.92610  0.88390  1.0000 -0.5106251922
N   N35       1.0  0.42610  0.26990  0.63390  1.0000 -0.5106251922
N   N36       1.0  0.57390  0.73010  0.13390  1.0000 -0.5106251922
N   N37       1.0  0.73010  0.57390  0.86610  1.0000 -0.5106251922
N   N38       1.0  0.26990  0.42610  0.36610  1.0000 -0.5106251922
N   N39       1.0  0.07390  0.76990  0.61610  1.0000 -0.5106251922
N   N40       1.0  0.92610  0.23010  0.11610  1.0000 -0.5106251922
N   N41       1.0  0.68660  0.47550  0.49320  1.0000 -0.23927042
N   N42       1.0  0.31340  0.52450  0.99320  1.0000 -0.23927042
N   N43       1.0  0.02450  0.18660  0.74320  1.0000 -0.23927042
N   N44       1.0  0.97550  0.81340  0.24320  1.0000 -0.23927042
N   N45       1.0  0.81340  0.97550  0.75680  1.0000 -0.23927042
N   N46       1.0  0.18660  0.02450  0.25680  1.0000 -0.23927042
N   N47       1.0  0.47550  0.68660  0.50680  1.0000 -0.23927042
N   N48       1.0  0.52450  0.31340  0.00680  1.0000 -0.23927042
