# DDEC6 charges by PACMAN v1.1 (https://github.com/mtap-research/PACMAN-charge/)
data_2010[Cu][nia]3[ASR]1
_chemical_formula_sum              "Cu26 H276 C288 S18 N24 O96"
_cell_length_a       26.2486
_cell_length_b       26.2486
_cell_length_c       25.2139
_cell_angle_alpha    90
_cell_angle_beta     90
_cell_angle_gamma    120

_symmetry_space_group_name_H-M    "P 1"
_symmetry_Int_Tables_number       1

loop_
  _symmetry_equiv_pos_as_xyz
  'x, y, z'

loop_
  _atom_site_type_symbol
  _atom_site_label
  _atom_site_symmetry_multiplicity
  _atom_site_fract_x
  _atom_site_fract_y
  _atom_site_fract_z
  _atom_site_occupancy
  _atom_site_charge
Cu  Cu1       1.0  0.07774  0.02038  0.39660  1.0000 0.8468467901
Cu  Cu2       1.0  0.97962  0.05736  0.39660  1.0000 0.8468467901
Cu  Cu3       1.0  0.94264  0.92226  0.39660  1.0000 0.8468467901
Cu  Cu4       1.0  0.92226  0.97962  0.89660  1.0000 0.8468467901
Cu  Cu5       1.0  0.02038  0.94264  0.89660  1.0000 0.8468467901
Cu  Cu6       1.0  0.05736  0.07774  0.89660  1.0000 0.8468467901
Cu  Cu7       1.0  0.02038  0.07774  0.60340  1.0000 0.8468467901
Cu  Cu8       1.0  0.05736  0.97962  0.60340  1.0000 0.8468467901
Cu  Cu9       1.0  0.92226  0.94264  0.60340  1.0000 0.8468467901
Cu  Cu10      1.0  0.97962  0.92226  0.10340  1.0000 0.8468467901
Cu  Cu11      1.0  0.94264  0.02038  0.10340  1.0000 0.8468467901
Cu  Cu12      1.0  0.07774  0.05736  0.10340  1.0000 0.8468467901
Cu  Cu13      1.0  0.00000  0.00000  0.50000  1.0000 0.8868456691
Cu  Cu14      1.0  0.00000  0.00000  0.00000  1.0000 0.8868456691
Cu  Cu15      1.0  0.58055  0.29104  0.31491  1.0000 0.9968851566
Cu  Cu16      1.0  0.70896  0.28951  0.31491  1.0000 0.9968851566
Cu  Cu17      1.0  0.71049  0.41945  0.31491  1.0000 0.9968851566
Cu  Cu18      1.0  0.41945  0.70896  0.81491  1.0000 0.9968851566
Cu  Cu19      1.0  0.29104  0.71049  0.81491  1.0000 0.9968851566
Cu  Cu20      1.0  0.28951  0.58055  0.81491  1.0000 0.9935282528
Cu  Cu21      1.0  0.29104  0.58055  0.68509  1.0000 0.9935282528
Cu  Cu22      1.0  0.28951  0.70896  0.68509  1.0000 0.9935282528
Cu  Cu23      1.0  0.41945  0.71049  0.68509  1.0000 0.9935282528
Cu  Cu24      1.0  0.70896  0.41945  0.18509  1.0000 0.9968851566
Cu  Cu25      1.0  0.71049  0.29104  0.18509  1.0000 0.9968851566
Cu  Cu26      1.0  0.58055  0.28951  0.18509  1.0000 0.9968851566
H   H1        1.0  0.18960  0.94480  0.45460  1.0000 0.1389773455
H   H2        1.0  0.05520  0.24480  0.45460  1.0000 0.1389773455
H   H3        1.0  0.75520  0.81040  0.45460  1.0000 0.1389773455
H   H4        1.0  0.81040  0.05520  0.95460  1.0000 0.1389773455
H   H5        1.0  0.94480  0.75520  0.95460  1.0000 0.1389773455
H   H6        1.0  0.24480  0.18960  0.95460  1.0000 0.1389773455
H   H7        1.0  0.94480  0.18960  0.54540  1.0000 0.1389773455
H   H8        1.0  0.24480  0.05520  0.54540  1.0000 0.1389773455
H   H9        1.0  0.81040  0.75520  0.54540  1.0000 0.1389773455
H   H10       1.0  0.05520  0.81040  0.04540  1.0000 0.1389773455
H   H11       1.0  0.75520  0.94480  0.04540  1.0000 0.1389773455
H   H12       1.0  0.18960  0.24480  0.04540  1.0000 0.1389773455
H   H13       1.0  0.07250  0.78920  0.55300  1.0000 0.1301514642
H   H14       1.0  0.21080  0.28330  0.55300  1.0000 0.1301514642
H   H15       1.0  0.71670  0.92750  0.55300  1.0000 0.1301514642
H   H16       1.0  0.92750  0.21080  0.05300  1.0000 0.1301514642
H   H17       1.0  0.78920  0.71670  0.05300  1.0000 0.1301514642
H   H18       1.0  0.28330  0.07250  0.05300  1.0000 0.1301514642
H   H19       1.0  0.78920  0.07250  0.44700  1.0000 0.1301514642
H   H20       1.0  0.28330  0.21080  0.44700  1.0000 0.1301514642
H   H21       1.0  0.92750  0.71670  0.44700  1.0000 0.1301514642
H   H22       1.0  0.21080  0.92750  0.94700  1.0000 0.1301514642
H   H23       1.0  0.71670  0.78920  0.94700  1.0000 0.1301514642
H   H24       1.0  0.07250  0.28330  0.94700  1.0000 0.1301514642
H   H25       1.0  0.00840  0.76750  0.53290  1.0000 0.1301514642
H   H26       1.0  0.23250  0.24090  0.53290  1.0000 0.1301514642
H   H27       1.0  0.75910  0.99160  0.53290  1.0000 0.1301514642
H   H28       1.0  0.99160  0.23250  0.03290  1.0000 0.1301514642
H   H29       1.0  0.76750  0.75910  0.03290  1.0000 0.1301514642
H   H30       1.0  0.24090  0.00840  0.03290  1.0000 0.1301514642
H   H31       1.0  0.76750  0.00840  0.46710  1.0000 0.1301514642
H   H32       1.0  0.24090  0.23250  0.46710  1.0000 0.1301514642
H   H33       1.0  0.99160  0.75910  0.46710  1.0000 0.1301514642
H   H34       1.0  0.23250  0.99160  0.96710  1.0000 0.1301514642
H   H35       1.0  0.75910  0.76750  0.96710  1.0000 0.1301514642
H   H36       1.0  0.00840  0.24090  0.96710  1.0000 0.1301514642
H   H37       1.0  0.03330  0.81030  0.58160  1.0000 0.1389773455
H   H38       1.0  0.18970  0.22300  0.58160  1.0000 0.1389773455
H   H39       1.0  0.77700  0.96670  0.58160  1.0000 0.1389773455
H   H40       1.0  0.96670  0.18970  0.08160  1.0000 0.1389773455
H   H41       1.0  0.81030  0.77700  0.08160  1.0000 0.1389773455
H   H42       1.0  0.22300  0.03330  0.08160  1.0000 0.1389773455
H   H43       1.0  0.81030  0.03330  0.41840  1.0000 0.1389773455
H   H44       1.0  0.22300  0.18970  0.41840  1.0000 0.1389773455
H   H45       1.0  0.96670  0.77700  0.41840  1.0000 0.1389773455
H   H46       1.0  0.18970  0.96670  0.91840  1.0000 0.1389773455
H   H47       1.0  0.77700  0.81030  0.91840  1.0000 0.1389773455
H   H48       1.0  0.03330  0.22300  0.91840  1.0000 0.1389773455
H   H49       1.0  0.20050  0.87310  0.49470  1.0000 0.1301514642
H   H50       1.0  0.12690  0.32740  0.49470  1.0000 0.1301514642
H   H51       1.0  0.67260  0.79950  0.49470  1.0000 0.1301514642
H   H52       1.0  0.79950  0.12690  0.99470  1.0000 0.1301514642
H   H53       1.0  0.87310  0.67260  0.99470  1.0000 0.1301514642
H   H54       1.0  0.32740  0.20050  0.99470  1.0000 0.1301514642
H   H55       1.0  0.87310  0.20050  0.50530  1.0000 0.1301514642
H   H56       1.0  0.32740  0.12690  0.50530  1.0000 0.1301514642
H   H57       1.0  0.79950  0.67260  0.50530  1.0000 0.1301514642
H   H58       1.0  0.12690  0.79950  0.00530  1.0000 0.1301514642
H   H59       1.0  0.67260  0.87310  0.00530  1.0000 0.1301514642
H   H60       1.0  0.20050  0.32740  0.00530  1.0000 0.1301514642
H   H61       1.0  0.14400  0.81060  0.49350  1.0000 0.1389773455
H   H62       1.0  0.18940  0.33340  0.49350  1.0000 0.1389773455
H   H63       1.0  0.66667  0.85600  0.49350  1.0000 0.1389773455
H   H64       1.0  0.85600  0.18940  0.99350  1.0000 0.1389773455
H   H65       1.0  0.81060  0.66667  0.99350  1.0000 0.1389773455
H   H66       1.0  0.33340  0.14400  0.99350  1.0000 0.1389773455
H   H67       1.0  0.81060  0.14400  0.50650  1.0000 0.1389773455
H   H68       1.0  0.33340  0.18940  0.50650  1.0000 0.1389773455
H   H69       1.0  0.85600  0.66667  0.50650  1.0000 0.1389773455
H   H70       1.0  0.18940  0.85600  0.00650  1.0000 0.1389773455
H   H71       1.0  0.66667  0.81060  0.00650  1.0000 0.1389773455
H   H72       1.0  0.14400  0.33340  0.00650  1.0000 0.1389773455
H   H73       1.0  0.16370  0.84650  0.54660  1.0000 0.1194418237
H   H74       1.0  0.15350  0.31720  0.54660  1.0000 0.1194418237
H   H75       1.0  0.68280  0.83630  0.54660  1.0000 0.1194418237
H   H76       1.0  0.83630  0.15350  0.04660  1.0000 0.1194418237
H   H77       1.0  0.84650  0.68280  0.04660  1.0000 0.1194418237
H   H78       1.0  0.31720  0.16370  0.04660  1.0000 0.1194418237
H   H79       1.0  0.84650  0.16370  0.45340  1.0000 0.1194418237
H   H80       1.0  0.31720  0.15350  0.45340  1.0000 0.1194418237
H   H81       1.0  0.83630  0.68280  0.45340  1.0000 0.1194418237
H   H82       1.0  0.15350  0.83630  0.95340  1.0000 0.1194418237
H   H83       1.0  0.68280  0.84650  0.95340  1.0000 0.1194418237
H   H84       1.0  0.16370  0.31720  0.95340  1.0000 0.1194418237
H   H85       1.0  0.21790  0.02180  0.41360  1.0000 0.1112722116
H   H86       1.0  0.97820  0.19610  0.41360  1.0000 0.1112722116
H   H87       1.0  0.80390  0.78210  0.41360  1.0000 0.1112722116
H   H88       1.0  0.78210  0.97820  0.91360  1.0000 0.1112722116
H   H89       1.0  0.02180  0.80390  0.91360  1.0000 0.1112722116
H   H90       1.0  0.19610  0.21790  0.91360  1.0000 0.1112722116
H   H91       1.0  0.02180  0.21790  0.58640  1.0000 0.1112722116
H   H92       1.0  0.19610  0.97820  0.58640  1.0000 0.1112722116
H   H93       1.0  0.78210  0.80390  0.58640  1.0000 0.1112722116
H   H94       1.0  0.97820  0.78210  0.08640  1.0000 0.1112722116
H   H95       1.0  0.80390  0.02180  0.08640  1.0000 0.1112722116
H   H96       1.0  0.21790  0.19610  0.08640  1.0000 0.1112722116
H   H97       1.0  0.29420  0.21990  0.28610  1.0000 0.1112722116
H   H98       1.0  0.78010  0.07430  0.28610  1.0000 0.1112722116
H   H99       1.0  0.92570  0.70580  0.28610  1.0000 0.1112722116
H   H100      1.0  0.70580  0.78010  0.78610  1.0000 0.1112722116
H   H101      1.0  0.21990  0.92570  0.78610  1.0000 0.1112722116
H   H102      1.0  0.07430  0.29420  0.78610  1.0000 0.1112722116
H   H103      1.0  0.21990  0.29420  0.71390  1.0000 0.1112722116
H   H104      1.0  0.07430  0.78010  0.71390  1.0000 0.1112722116
H   H105      1.0  0.70580  0.92570  0.71390  1.0000 0.1112722116
H   H106      1.0  0.78010  0.70580  0.21390  1.0000 0.1112722116
H   H107      1.0  0.92570  0.21990  0.21390  1.0000 0.1112722116
H   H108      1.0  0.29420  0.07430  0.21390  1.0000 0.1112722116
H   H109      1.0  0.29740  0.09370  0.37380  1.0000 0.1194418237
H   H110      1.0  0.90630  0.20370  0.37380  1.0000 0.1194418237
H   H111      1.0  0.79630  0.70260  0.37380  1.0000 0.1194418237
H   H112      1.0  0.70260  0.90630  0.87380  1.0000 0.1194418237
H   H113      1.0  0.09370  0.79630  0.87380  1.0000 0.1194418237
H   H114      1.0  0.20370  0.29740  0.87380  1.0000 0.1194418237
H   H115      1.0  0.09370  0.29740  0.62620  1.0000 0.1194418237
H   H116      1.0  0.20370  0.90630  0.62620  1.0000 0.1194418237
H   H117      1.0  0.70260  0.79630  0.62620  1.0000 0.1194418237
H   H118      1.0  0.90630  0.70260  0.12620  1.0000 0.1194418237
H   H119      1.0  0.79630  0.09370  0.12620  1.0000 0.1194418237
H   H120      1.0  0.29740  0.20370  0.12620  1.0000 0.1194418237
H   H121      1.0  0.13060  0.22370  0.31000  1.0000 0.1389773455
H   H122      1.0  0.77630  0.90690  0.31000  1.0000 0.1389773455
H   H123      1.0  0.09310  0.86940  0.31000  1.0000 0.1389773455
H   H124      1.0  0.86940  0.77630  0.81000  1.0000 0.1389773455
H   H125      1.0  0.22370  0.09310  0.81000  1.0000 0.1389773455
H   H126      1.0  0.90690  0.13060  0.81000  1.0000 0.1389773455
H   H127      1.0  0.22370  0.13060  0.69000  1.0000 0.1389773455
H   H128      1.0  0.90690  0.77630  0.69000  1.0000 0.1389773455
H   H129      1.0  0.86940  0.09310  0.69000  1.0000 0.1389773455
H   H130      1.0  0.77630  0.86940  0.19000  1.0000 0.1389773455
H   H131      1.0  0.09310  0.22370  0.19000  1.0000 0.1389773455
H   H132      1.0  0.13060  0.90690  0.19000  1.0000 0.1389773455
H   H133      1.0  0.18030  0.23590  0.35110  1.0000 0.1389773455
H   H134      1.0  0.76410  0.94440  0.35110  1.0000 0.1389773455
H   H135      1.0  0.05560  0.81970  0.35110  1.0000 0.1389773455
H   H136      1.0  0.81970  0.76410  0.85110  1.0000 0.1389773455
H   H137      1.0  0.23590  0.05560  0.85110  1.0000 0.1389773455
H   H138      1.0  0.94440  0.18030  0.85110  1.0000 0.1389773455
H   H139      1.0  0.23590  0.18030  0.64890  1.0000 0.1389773455
H   H140      1.0  0.94440  0.76410  0.64890  1.0000 0.1389773455
H   H141      1.0  0.81970  0.05560  0.64890  1.0000 0.1389773455
H   H142      1.0  0.76410  0.81970  0.14890  1.0000 0.1389773455
H   H143      1.0  0.05560  0.23590  0.14890  1.0000 0.1389773455
H   H144      1.0  0.18030  0.94440  0.14890  1.0000 0.1389773455
H   H145      1.0  0.12360  0.17370  0.34850  1.0000 0.1389773455
H   H146      1.0  0.82630  0.94990  0.34850  1.0000 0.1389773455
H   H147      1.0  0.05010  0.87640  0.34850  1.0000 0.1389773455
H   H148      1.0  0.87640  0.82630  0.84850  1.0000 0.1389773455
H   H149      1.0  0.17370  0.05010  0.84850  1.0000 0.1389773455
H   H150      1.0  0.94990  0.12360  0.84850  1.0000 0.1389773455
H   H151      1.0  0.17370  0.12360  0.65150  1.0000 0.1389773455
H   H152      1.0  0.94990  0.82630  0.65150  1.0000 0.1389773455
H   H153      1.0  0.87640  0.05010  0.65150  1.0000 0.1389773455
H   H154      1.0  0.82630  0.87640  0.15150  1.0000 0.1389773455
H   H155      1.0  0.05010  0.17370  0.15150  1.0000 0.1389773455
H   H156      1.0  0.12360  0.94990  0.15150  1.0000 0.1389773455
H   H157      1.0  0.11380  0.15770  0.23210  1.0000 0.1389773455
H   H158      1.0  0.84230  0.95610  0.23210  1.0000 0.1389773455
H   H159      1.0  0.04390  0.88620  0.23210  1.0000 0.1389773455
H   H160      1.0  0.88620  0.84230  0.73210  1.0000 0.1389773455
H   H161      1.0  0.15770  0.04390  0.73210  1.0000 0.1389773455
H   H162      1.0  0.95610  0.11380  0.73210  1.0000 0.1389773455
H   H163      1.0  0.15770  0.11380  0.76790  1.0000 0.1389773455
H   H164      1.0  0.95610  0.84230  0.76790  1.0000 0.1389773455
H   H165      1.0  0.88620  0.04390  0.76790  1.0000 0.1389773455
H   H166      1.0  0.84230  0.88620  0.26790  1.0000 0.1389773455
H   H167      1.0  0.04390  0.15770  0.26790  1.0000 0.1389773455
H   H168      1.0  0.11380  0.95610  0.26790  1.0000 0.1389773455
H   H169      1.0  0.10800  0.10720  0.26930  1.0000 0.1501192609
H   H170      1.0  0.89280  0.00080  0.26930  1.0000 0.1501192609
H   H171      1.0  0.99920  0.89200  0.26930  1.0000 0.1501192609
H   H172      1.0  0.89200  0.89280  0.76930  1.0000 0.1501192609
H   H173      1.0  0.10720  0.99920  0.76930  1.0000 0.1501192609
H   H174      1.0  0.00080  0.10800  0.76930  1.0000 0.1501192609
H   H175      1.0  0.10720  0.10800  0.73070  1.0000 0.1501192609
H   H176      1.0  0.00080  0.89280  0.73070  1.0000 0.1501192609
H   H177      1.0  0.89200  0.99920  0.73070  1.0000 0.1501192609
H   H178      1.0  0.89280  0.89200  0.23070  1.0000 0.1501192609
H   H179      1.0  0.99920  0.10720  0.23070  1.0000 0.1501192609
H   H180      1.0  0.10800  0.00080  0.23070  1.0000 0.1501192609
H   H181      1.0  0.15450  0.13050  0.22330  1.0000 0.1301514642
H   H182      1.0  0.86950  0.02400  0.22330  1.0000 0.1301514642
H   H183      1.0  0.97600  0.84550  0.22330  1.0000 0.1301514642
H   H184      1.0  0.84550  0.86950  0.72330  1.0000 0.1301514642
H   H185      1.0  0.13050  0.97600  0.72330  1.0000 0.1301514642
H   H186      1.0  0.02400  0.15450  0.72330  1.0000 0.1301514642
H   H187      1.0  0.13050  0.15450  0.77670  1.0000 0.1301514642
H   H188      1.0  0.02400  0.86950  0.77670  1.0000 0.1301514642
H   H189      1.0  0.84550  0.97600  0.77670  1.0000 0.1301514642
H   H190      1.0  0.86950  0.84550  0.27670  1.0000 0.1301514642
H   H191      1.0  0.97600  0.13050  0.27670  1.0000 0.1301514642
H   H192      1.0  0.15450  0.02400  0.27670  1.0000 0.1301514642
H   H193      1.0  0.19950  0.25780  0.23730  1.0000 0.1301514642
H   H194      1.0  0.74220  0.94170  0.23730  1.0000 0.1301514642
H   H195      1.0  0.05830  0.80050  0.23730  1.0000 0.1301514642
H   H196      1.0  0.80050  0.74220  0.73730  1.0000 0.1301514642
H   H197      1.0  0.25780  0.05830  0.73730  1.0000 0.1301514642
H   H198      1.0  0.94170  0.19950  0.73730  1.0000 0.1301514642
H   H199      1.0  0.25780  0.19950  0.76270  1.0000 0.1301514642
H   H200      1.0  0.94170  0.74220  0.76270  1.0000 0.1301514642
H   H201      1.0  0.80050  0.05830  0.76270  1.0000 0.1301514642
H   H202      1.0  0.74220  0.80050  0.26270  1.0000 0.1301514642
H   H203      1.0  0.05830  0.25780  0.26270  1.0000 0.1301514642
H   H204      1.0  0.19950  0.94170  0.26270  1.0000 0.1301514642
H   H205      1.0  0.24060  0.23150  0.22640  1.0000 0.1194418237
H   H206      1.0  0.76850  0.00910  0.22640  1.0000 0.1194418237
H   H207      1.0  0.99090  0.75940  0.22640  1.0000 0.1194418237
H   H208      1.0  0.75940  0.76850  0.72640  1.0000 0.1194418237
H   H209      1.0  0.23150  0.99090  0.72640  1.0000 0.1194418237
H   H210      1.0  0.00910  0.24060  0.72640  1.0000 0.1194418237
H   H211      1.0  0.23150  0.24060  0.77360  1.0000 0.1194418237
H   H212      1.0  0.00910  0.76850  0.77360  1.0000 0.1194418237
H   H213      1.0  0.75940  0.99090  0.77360  1.0000 0.1194418237
H   H214      1.0  0.76850  0.75940  0.27360  1.0000 0.1194418237
H   H215      1.0  0.99090  0.23150  0.27360  1.0000 0.1194418237
H   H216      1.0  0.24060  0.00910  0.27360  1.0000 0.1194418237
H   H217      1.0  0.25170  0.27190  0.27590  1.0000 0.1194418237
H   H218      1.0  0.72810  0.97980  0.27590  1.0000 0.1194418237
H   H219      1.0  0.02020  0.74830  0.27590  1.0000 0.1194418237
H   H220      1.0  0.74830  0.72810  0.77590  1.0000 0.1194418237
H   H221      1.0  0.27190  0.02020  0.77590  1.0000 0.1194418237
H   H222      1.0  0.97980  0.25170  0.77590  1.0000 0.1194418237
H   H223      1.0  0.27190  0.25170  0.72410  1.0000 0.1194418237
H   H224      1.0  0.97980  0.72810  0.72410  1.0000 0.1194418237
H   H225      1.0  0.74830  0.02020  0.72410  1.0000 0.1194418237
H   H226      1.0  0.72810  0.74830  0.22410  1.0000 0.1194418237
H   H227      1.0  0.02020  0.27190  0.22410  1.0000 0.1194418237
H   H228      1.0  0.25170  0.97980  0.22410  1.0000 0.1194418237
H   H229      1.0  0.37920  0.11900  0.32840  1.0000 0.1389773455
H   H230      1.0  0.88100  0.26020  0.32840  1.0000 0.1389773455
H   H231      1.0  0.73980  0.62080  0.32840  1.0000 0.1389773455
H   H232      1.0  0.62080  0.88100  0.82840  1.0000 0.1389773455
H   H233      1.0  0.11900  0.73980  0.82840  1.0000 0.1389773455
H   H234      1.0  0.26020  0.37920  0.82840  1.0000 0.1389773455
H   H235      1.0  0.11900  0.37920  0.67160  1.0000 0.1389773455
H   H236      1.0  0.26020  0.88100  0.67160  1.0000 0.1389773455
H   H237      1.0  0.62080  0.73980  0.67160  1.0000 0.1389773455
H   H238      1.0  0.88100  0.62080  0.17160  1.0000 0.1389773455
H   H239      1.0  0.73980  0.11900  0.17160  1.0000 0.1389773455
H   H240      1.0  0.37920  0.26020  0.17160  1.0000 0.1389773455
H   H241      1.0  0.48120  0.16720  0.32690  1.0000 0.1389773455
H   H242      1.0  0.83280  0.31400  0.32690  1.0000 0.1389773455
H   H243      1.0  0.68600  0.51880  0.32690  1.0000 0.1389773455
H   H244      1.0  0.51880  0.83280  0.82690  1.0000 0.1389773455
H   H245      1.0  0.16720  0.68600  0.82690  1.0000 0.1389773455
H   H246      1.0  0.31400  0.48120  0.82690  1.0000 0.1389773455
H   H247      1.0  0.16720  0.48120  0.67310  1.0000 0.1389773455
H   H248      1.0  0.31400  0.83280  0.67310  1.0000 0.1389773455
H   H249      1.0  0.51880  0.68600  0.67310  1.0000 0.1389773455
H   H250      1.0  0.83280  0.51880  0.17310  1.0000 0.1389773455
H   H251      1.0  0.68600  0.16720  0.17310  1.0000 0.1389773455
H   H252      1.0  0.48120  0.31400  0.17310  1.0000 0.1389773455
H   H253      1.0  0.48680  0.32290  0.32060  1.0000 0.1389773455
H   H254      1.0  0.67710  0.16390  0.32060  1.0000 0.1389773455
H   H255      1.0  0.83610  0.51320  0.32060  1.0000 0.1389773455
H   H256      1.0  0.51320  0.67710  0.82060  1.0000 0.1389773455
H   H257      1.0  0.32290  0.83610  0.82060  1.0000 0.1389773455
H   H258      1.0  0.16390  0.48680  0.82060  1.0000 0.1389773455
H   H259      1.0  0.32290  0.48680  0.67940  1.0000 0.1389773455
H   H260      1.0  0.16390  0.67710  0.67940  1.0000 0.1389773455
H   H261      1.0  0.51320  0.83610  0.67940  1.0000 0.1389773455
H   H262      1.0  0.67710  0.51320  0.17940  1.0000 0.1389773455
H   H263      1.0  0.83610  0.32290  0.17940  1.0000 0.1389773455
H   H264      1.0  0.48680  0.16390  0.17940  1.0000 0.1389773455
H   H265      1.0  0.38480  0.27470  0.32210  1.0000 0.1389773455
H   H266      1.0  0.72530  0.11010  0.32210  1.0000 0.1389773455
H   H267      1.0  0.88990  0.61520  0.32210  1.0000 0.1389773455
H   H268      1.0  0.61520  0.72530  0.82210  1.0000 0.1389773455
H   H269      1.0  0.27470  0.88990  0.82210  1.0000 0.1389773455
H   H270      1.0  0.11010  0.38480  0.82210  1.0000 0.1389773455
H   H271      1.0  0.27470  0.38480  0.67790  1.0000 0.1389773455
H   H272      1.0  0.11010  0.72530  0.67790  1.0000 0.1389773455
H   H273      1.0  0.61520  0.88990  0.67790  1.0000 0.1389773455
H   H274      1.0  0.72530  0.61520  0.17790  1.0000 0.1389773455
H   H275      1.0  0.88990  0.27470  0.17790  1.0000 0.1389773455
H   H276      1.0  0.38480  0.11010  0.17790  1.0000 0.1389773455
C   C1        1.0  0.05934  0.92942  0.46532  1.0000 0.1639259144
C   C2        1.0  0.07058  0.12992  0.46532  1.0000 0.1639259144
C   C3        1.0  0.87008  0.94066  0.46532  1.0000 0.1639259144
C   C4        1.0  0.94066  0.07058  0.96532  1.0000 0.1639259144
C   C5        1.0  0.92942  0.87008  0.96532  1.0000 0.1639259144
C   C6        1.0  0.12992  0.05934  0.96532  1.0000 0.1639259144
C   C7        1.0  0.92942  0.05934  0.53468  1.0000 0.1639259144
C   C8        1.0  0.12992  0.07058  0.53468  1.0000 0.1639259144
C   C9        1.0  0.94066  0.87008  0.53468  1.0000 0.1639259144
C   C10       1.0  0.07058  0.94066  0.03468  1.0000 0.1639259144
C   C11       1.0  0.87008  0.92942  0.03468  1.0000 0.1639259144
C   C12       1.0  0.05934  0.12992  0.03468  1.0000 0.1639259144
C   C13       1.0  0.11782  0.95427  0.44989  1.0000 0.0858340987
C   C14       1.0  0.04573  0.16355  0.44989  1.0000 0.0858340987
C   C15       1.0  0.83645  0.88218  0.44989  1.0000 0.0858340987
C   C16       1.0  0.88218  0.04573  0.94989  1.0000 0.0858340987
C   C17       1.0  0.95427  0.83645  0.94989  1.0000 0.0858340987
C   C18       1.0  0.16355  0.11782  0.94989  1.0000 0.0858340987
C   C19       1.0  0.95427  0.11782  0.55011  1.0000 0.0858340987
C   C20       1.0  0.16355  0.04573  0.55011  1.0000 0.0858340987
C   C21       1.0  0.88218  0.83645  0.55011  1.0000 0.0858340987
C   C22       1.0  0.04573  0.88218  0.05011  1.0000 0.0858340987
C   C23       1.0  0.83645  0.95427  0.05011  1.0000 0.0858340987
C   C24       1.0  0.11782  0.16355  0.05011  1.0000 0.0858340987
C   C25       1.0  0.15043  0.92817  0.46493  1.0000 -0.2544860334
C   C26       1.0  0.07183  0.22226  0.46493  1.0000 -0.2606105079
C   C27       1.0  0.77774  0.84957  0.46493  1.0000 -0.2606105079
C   C28       1.0  0.84957  0.07183  0.96493  1.0000 -0.2606105079
C   C29       1.0  0.92817  0.77774  0.96493  1.0000 -0.2544860334
C   C30       1.0  0.22226  0.15043  0.96493  1.0000 -0.2606105079
C   C31       1.0  0.92817  0.15043  0.53507  1.0000 -0.2544860334
C   C32       1.0  0.22226  0.07183  0.53507  1.0000 -0.2544860334
C   C33       1.0  0.84957  0.77774  0.53507  1.0000 -0.2606105079
C   C34       1.0  0.07183  0.84957  0.03507  1.0000 -0.2606105079
C   C35       1.0  0.77774  0.92817  0.03507  1.0000 -0.2606105079
C   C36       1.0  0.15043  0.22226  0.03507  1.0000 -0.2544860334
C   C37       1.0  0.12455  0.87721  0.49541  1.0000 0.1301514642
C   C38       1.0  0.12279  0.24734  0.49541  1.0000 0.1301514642
C   C39       1.0  0.75266  0.87545  0.49541  1.0000 0.1301514642
C   C40       1.0  0.87545  0.12279  0.99541  1.0000 0.1301514642
C   C41       1.0  0.87721  0.75266  0.99541  1.0000 0.1301514642
C   C42       1.0  0.24734  0.12455  0.99541  1.0000 0.1301514642
C   C43       1.0  0.87721  0.12455  0.50459  1.0000 0.1301514642
C   C44       1.0  0.24734  0.12279  0.50459  1.0000 0.1301514642
C   C45       1.0  0.87545  0.75266  0.50459  1.0000 0.1301514642
C   C46       1.0  0.12279  0.87545  0.00459  1.0000 0.1301514642
C   C47       1.0  0.75266  0.87721  0.00459  1.0000 0.1301514642
C   C48       1.0  0.12455  0.24734  0.00459  1.0000 0.1301514642
C   C49       1.0  0.06607  0.85237  0.51084  1.0000 0.0767746277
C   C50       1.0  0.14763  0.21370  0.51084  1.0000 0.0767746277
C   C51       1.0  0.78630  0.93393  0.51084  1.0000 0.0767746277
C   C52       1.0  0.93393  0.14763  0.01084  1.0000 0.0767746277
C   C53       1.0  0.85237  0.78630  0.01084  1.0000 0.0767746277
C   C54       1.0  0.21370  0.06607  0.01084  1.0000 0.0767746277
C   C55       1.0  0.85237  0.06607  0.48916  1.0000 0.0767746277
C   C56       1.0  0.21370  0.14763  0.48916  1.0000 0.0767746277
C   C57       1.0  0.93393  0.78630  0.48916  1.0000 0.0767746277
C   C58       1.0  0.14763  0.93393  0.98916  1.0000 0.0767746277
C   C59       1.0  0.78630  0.85237  0.98916  1.0000 0.0767746277
C   C60       1.0  0.06607  0.21370  0.98916  1.0000 0.0767746277
C   C61       1.0  0.03346  0.87847  0.49580  1.0000 -0.0326005146
C   C62       1.0  0.12153  0.15499  0.49580  1.0000 -0.0326005146
C   C63       1.0  0.84501  0.96654  0.49580  1.0000 -0.0326005146
C   C64       1.0  0.96654  0.12153  0.99580  1.0000 -0.0326005146
C   C65       1.0  0.87847  0.84501  0.99580  1.0000 -0.0326005146
C   C66       1.0  0.15499  0.03346  0.99580  1.0000 -0.0326005146
C   C67       1.0  0.87847  0.03346  0.50420  1.0000 -0.0326005146
C   C68       1.0  0.15499  0.12153  0.50420  1.0000 -0.0326005146
C   C69       1.0  0.96654  0.84501  0.50420  1.0000 -0.0326005146
C   C70       1.0  0.12153  0.96654  0.00420  1.0000 -0.0326005146
C   C71       1.0  0.84501  0.87847  0.00420  1.0000 -0.0326005146
C   C72       1.0  0.03346  0.15499  0.00420  1.0000 -0.0326005146
C   C73       1.0  0.04290  0.80000  0.54800  1.0000 -0.4272022461
C   C74       1.0  0.20000  0.24290  0.54800  1.0000 -0.4272022461
C   C75       1.0  0.75710  0.95710  0.54800  1.0000 -0.4272022461
C   C76       1.0  0.95710  0.20000  0.04800  1.0000 -0.4272022461
C   C77       1.0  0.80000  0.75710  0.04800  1.0000 -0.4272022461
C   C78       1.0  0.24290  0.04290  0.04800  1.0000 -0.4272022461
C   C79       1.0  0.80000  0.04290  0.45200  1.0000 -0.4272022461
C   C80       1.0  0.24290  0.20000  0.45200  1.0000 -0.4272022461
C   C81       1.0  0.95710  0.75710  0.45200  1.0000 -0.4272022461
C   C82       1.0  0.20000  0.95710  0.95200  1.0000 -0.4272022461
C   C83       1.0  0.75710  0.80000  0.95200  1.0000 -0.4272022461
C   C84       1.0  0.04290  0.24290  0.95200  1.0000 -0.4272022461
C   C85       1.0  0.16160  0.84930  0.50880  1.0000 -0.4188680404
C   C86       1.0  0.15070  0.31230  0.50880  1.0000 -0.4188680404
C   C87       1.0  0.68770  0.83840  0.50880  1.0000 -0.4188680404
C   C88       1.0  0.83840  0.15070  0.00880  1.0000 -0.4188680404
C   C89       1.0  0.84930  0.68770  0.00880  1.0000 -0.4188680404
C   C90       1.0  0.31230  0.16160  0.00880  1.0000 -0.4188680404
C   C91       1.0  0.84930  0.16160  0.49120  1.0000 -0.4188680404
C   C92       1.0  0.31230  0.15070  0.49120  1.0000 -0.4188680404
C   C93       1.0  0.83840  0.68770  0.49120  1.0000 -0.4188680404
C   C94       1.0  0.15070  0.83840  0.99120  1.0000 -0.4188680404
C   C95       1.0  0.68770  0.84930  0.99120  1.0000 -0.4188680404
C   C96       1.0  0.16160  0.31230  0.99120  1.0000 -0.4188680404
C   C97       1.0  0.19220  0.03390  0.40150  1.0000 0.0740123511
C   C98       1.0  0.96610  0.15830  0.40150  1.0000 0.0740123511
C   C99       1.0  0.84170  0.80780  0.40150  1.0000 0.0740123511
C   C100      1.0  0.80780  0.96610  0.90150  1.0000 0.0740123511
C   C101      1.0  0.03390  0.84170  0.90150  1.0000 0.0740123511
C   C102      1.0  0.15830  0.19220  0.90150  1.0000 0.0740123511
C   C103      1.0  0.03390  0.19220  0.59850  1.0000 0.0740123511
C   C104      1.0  0.15830  0.96610  0.59850  1.0000 0.0740123511
C   C105      1.0  0.80780  0.84170  0.59850  1.0000 0.0740123511
C   C106      1.0  0.96610  0.80780  0.09850  1.0000 0.0767746277
C   C107      1.0  0.84170  0.03390  0.09850  1.0000 0.0740123511
C   C108      1.0  0.19220  0.15830  0.09850  1.0000 0.0740123511
C   C109      1.0  0.21638  0.08443  0.36752  1.0000 -0.0488465047
C   C110      1.0  0.91557  0.13195  0.36752  1.0000 -0.0488465047
C   C111      1.0  0.86805  0.78362  0.36752  1.0000 -0.0488465047
C   C112      1.0  0.78362  0.91557  0.86752  1.0000 -0.0488465047
C   C113      1.0  0.08443  0.86805  0.86752  1.0000 -0.0488465047
C   C114      1.0  0.13195  0.21638  0.86752  1.0000 -0.0488465047
C   C115      1.0  0.08443  0.21638  0.63248  1.0000 -0.0488465047
C   C116      1.0  0.13195  0.91557  0.63248  1.0000 -0.0488465047
C   C117      1.0  0.78362  0.86805  0.63248  1.0000 -0.0488465047
C   C118      1.0  0.91557  0.78362  0.13248  1.0000 -0.0488465047
C   C119      1.0  0.86805  0.08443  0.13248  1.0000 -0.0488465047
C   C120      1.0  0.21638  0.13195  0.13248  1.0000 -0.0488465047
C   C121      1.0  0.18532  0.10930  0.34546  1.0000 0.2146102683
C   C122      1.0  0.89070  0.07602  0.34546  1.0000 0.2146102683
C   C123      1.0  0.92398  0.81468  0.34546  1.0000 0.2146102683
C   C124      1.0  0.81468  0.89070  0.84546  1.0000 0.2146102683
C   C125      1.0  0.10930  0.92398  0.84546  1.0000 0.2146102683
C   C126      1.0  0.07602  0.18532  0.84546  1.0000 0.2153501868
C   C127      1.0  0.10930  0.18532  0.65454  1.0000 0.2146102683
C   C128      1.0  0.07602  0.89070  0.65454  1.0000 0.2146102683
C   C129      1.0  0.81468  0.92398  0.65454  1.0000 0.2146102683
C   C130      1.0  0.89070  0.81468  0.15454  1.0000 0.2146102683
C   C131      1.0  0.92398  0.10930  0.15454  1.0000 0.2146102683
C   C132      1.0  0.18532  0.07602  0.15454  1.0000 0.2146102683
C   C133      1.0  0.21450  0.16004  0.31495  1.0000 -0.0326005146
C   C134      1.0  0.83996  0.05446  0.31495  1.0000 -0.0326005146
C   C135      1.0  0.94554  0.78550  0.31495  1.0000 -0.0326005146
C   C136      1.0  0.78550  0.83996  0.81495  1.0000 -0.0326005146
C   C137      1.0  0.16004  0.94554  0.81495  1.0000 -0.0326005146
C   C138      1.0  0.05446  0.21450  0.81495  1.0000 -0.0326005146
C   C139      1.0  0.16004  0.21450  0.68505  1.0000 -0.0326005146
C   C140      1.0  0.05446  0.83996  0.68505  1.0000 -0.0326005146
C   C141      1.0  0.78550  0.94554  0.68505  1.0000 -0.0326005146
C   C142      1.0  0.83996  0.78550  0.18505  1.0000 -0.0326005146
C   C143      1.0  0.94554  0.16004  0.18505  1.0000 -0.0326005146
C   C144      1.0  0.21450  0.05446  0.18505  1.0000 -0.0326005146
C   C145      1.0  0.27472  0.18592  0.30651  1.0000 -0.1795762718
C   C146      1.0  0.81408  0.08880  0.30651  1.0000 -0.1795762718
C   C147      1.0  0.91120  0.72528  0.30651  1.0000 -0.1795762718
C   C148      1.0  0.72528  0.81408  0.80651  1.0000 -0.1795762718
C   C149      1.0  0.18592  0.91120  0.80651  1.0000 -0.1795762718
C   C150      1.0  0.08880  0.27472  0.80651  1.0000 -0.1795762718
C   C151      1.0  0.18592  0.27472  0.69349  1.0000 -0.1795762718
C   C152      1.0  0.08880  0.81408  0.69349  1.0000 -0.1795762718
C   C153      1.0  0.72528  0.91120  0.69349  1.0000 -0.1795762718
C   C154      1.0  0.81408  0.72528  0.19349  1.0000 -0.1795762718
C   C155      1.0  0.91120  0.18592  0.19349  1.0000 -0.1795762718
C   C156      1.0  0.27472  0.08880  0.19349  1.0000 -0.1795762718
C   C157      1.0  0.30578  0.16105  0.32857  1.0000 0.0417686611
C   C158      1.0  0.83895  0.14473  0.32857  1.0000 0.0417686611
C   C159      1.0  0.85527  0.69422  0.32857  1.0000 0.0417686611
C   C160      1.0  0.69422  0.83895  0.82857  1.0000 0.0417686611
C   C161      1.0  0.16105  0.85527  0.82857  1.0000 0.0417686611
C   C162      1.0  0.14473  0.30578  0.82857  1.0000 0.0417686611
C   C163      1.0  0.16105  0.30578  0.67143  1.0000 0.0417686611
C   C164      1.0  0.14473  0.83895  0.67143  1.0000 0.0417686611
C   C165      1.0  0.69422  0.85527  0.67143  1.0000 0.0417686611
C   C166      1.0  0.83895  0.69422  0.17143  1.0000 0.0417686611
C   C167      1.0  0.85527  0.16105  0.17143  1.0000 0.0417686611
C   C168      1.0  0.30578  0.14473  0.17143  1.0000 0.0417686611
C   C169      1.0  0.27660  0.11030  0.35908  1.0000 -0.1748651381
C   C170      1.0  0.88970  0.16630  0.35908  1.0000 -0.1748651381
C   C171      1.0  0.83370  0.72340  0.35908  1.0000 -0.1748651381
C   C172      1.0  0.72340  0.88970  0.85908  1.0000 -0.1748651381
C   C173      1.0  0.11030  0.83370  0.85908  1.0000 -0.1748651381
C   C174      1.0  0.16630  0.27660  0.85908  1.0000 -0.1748651381
C   C175      1.0  0.11030  0.27660  0.64092  1.0000 -0.1748651381
C   C176      1.0  0.16630  0.88970  0.64092  1.0000 -0.1748651381
C   C177      1.0  0.72340  0.83370  0.64092  1.0000 -0.1748651381
C   C178      1.0  0.88970  0.72340  0.14092  1.0000 -0.1748651381
C   C179      1.0  0.83370  0.11030  0.14092  1.0000 -0.1748651381
C   C180      1.0  0.27660  0.16630  0.14092  1.0000 -0.1748651381
C   C181      1.0  0.18090  0.18740  0.28730  1.0000 0.3041060129
C   C182      1.0  0.81260  0.99350  0.28730  1.0000 0.3041060129
C   C183      1.0  0.00650  0.81910  0.28730  1.0000 0.3041060129
C   C184      1.0  0.81910  0.81260  0.78730  1.0000 0.3041060129
C   C185      1.0  0.18740  0.00650  0.78730  1.0000 0.3041060129
C   C186      1.0  0.99350  0.18090  0.78730  1.0000 0.3041060129
C   C187      1.0  0.18740  0.18090  0.71270  1.0000 0.3041060129
C   C188      1.0  0.99350  0.81260  0.71270  1.0000 0.3041060129
C   C189      1.0  0.81910  0.00650  0.71270  1.0000 0.3041060129
C   C190      1.0  0.81260  0.81910  0.21270  1.0000 0.3041060129
C   C191      1.0  0.00650  0.18740  0.21270  1.0000 0.3041060129
C   C192      1.0  0.18090  0.99350  0.21270  1.0000 0.3041060129
C   C193      1.0  0.15110  0.20700  0.32800  1.0000 -0.4646052808
C   C194      1.0  0.79300  0.94410  0.32800  1.0000 -0.4646052808
C   C195      1.0  0.05590  0.84890  0.32800  1.0000 -0.4708626882
C   C196      1.0  0.84890  0.79300  0.82800  1.0000 -0.4646052808
C   C197      1.0  0.20700  0.05590  0.82800  1.0000 -0.4646052808
C   C198      1.0  0.94410  0.15110  0.82800  1.0000 -0.4646052808
C   C199      1.0  0.20700  0.15110  0.67200  1.0000 -0.4708626882
C   C200      1.0  0.94410  0.79300  0.67200  1.0000 -0.4708626882
C   C201      1.0  0.84890  0.05590  0.67200  1.0000 -0.4646052808
C   C202      1.0  0.79300  0.84890  0.17200  1.0000 -0.4646052808
C   C203      1.0  0.05590  0.20700  0.17200  1.0000 -0.4646052808
C   C204      1.0  0.15110  0.94410  0.17200  1.0000 -0.4708626882
C   C205      1.0  0.13500  0.14140  0.24940  1.0000 -0.4708626882
C   C206      1.0  0.85860  0.99360  0.24940  1.0000 -0.4708626882
C   C207      1.0  0.00640  0.86500  0.24940  1.0000 -0.4708626882
C   C208      1.0  0.86500  0.85860  0.74940  1.0000 -0.4708626882
C   C209      1.0  0.14140  0.00640  0.74940  1.0000 -0.4708626882
C   C210      1.0  0.99360  0.13500  0.74940  1.0000 -0.4708626882
C   C211      1.0  0.14140  0.13500  0.75060  1.0000 -0.4708626882
C   C212      1.0  0.99360  0.85860  0.75060  1.0000 -0.4708626882
C   C213      1.0  0.86500  0.00640  0.75060  1.0000 -0.4708626882
C   C214      1.0  0.85860  0.86500  0.25060  1.0000 -0.4708626882
C   C215      1.0  0.00640  0.14140  0.25060  1.0000 -0.4708626882
C   C216      1.0  0.13500  0.99360  0.25060  1.0000 -0.4708626882
C   C217      1.0  0.22210  0.24240  0.25350  1.0000 -0.4540117274
C   C218      1.0  0.75760  0.97970  0.25350  1.0000 -0.4540117274
C   C219      1.0  0.02030  0.77790  0.25350  1.0000 -0.4540117274
C   C220      1.0  0.77790  0.75760  0.75350  1.0000 -0.4540117274
C   C221      1.0  0.24240  0.02030  0.75350  1.0000 -0.4540117274
C   C222      1.0  0.97970  0.22210  0.75350  1.0000 -0.4540117274
C   C223      1.0  0.24240  0.22210  0.74650  1.0000 -0.4540117274
C   C224      1.0  0.97970  0.75760  0.74650  1.0000 -0.4540117274
C   C225      1.0  0.77790  0.02030  0.74650  1.0000 -0.4540117274
C   C226      1.0  0.75760  0.77790  0.24650  1.0000 -0.4540117274
C   C227      1.0  0.02030  0.24240  0.24650  1.0000 -0.4540117274
C   C228      1.0  0.22210  0.97970  0.24650  1.0000 -0.4540117274
C   C229      1.0  0.37187  0.19210  0.32540  1.0000 0.1194418237
C   C230      1.0  0.80790  0.17977  0.32540  1.0000 0.1194418237
C   C231      1.0  0.82023  0.62813  0.32540  1.0000 0.1194418237
C   C232      1.0  0.62813  0.80790  0.82540  1.0000 0.1194418237
C   C233      1.0  0.19210  0.82023  0.82540  1.0000 0.1194418237
C   C234      1.0  0.17977  0.37187  0.82540  1.0000 0.1194418237
C   C235      1.0  0.19210  0.37187  0.67460  1.0000 0.1194418237
C   C236      1.0  0.17977  0.80790  0.67460  1.0000 0.1194418237
C   C237      1.0  0.62813  0.82023  0.67460  1.0000 0.1194418237
C   C238      1.0  0.80790  0.62813  0.17460  1.0000 0.1194418237
C   C239      1.0  0.82023  0.19210  0.17460  1.0000 0.1194418237
C   C240      1.0  0.37187  0.17977  0.17460  1.0000 0.1194418237
C   C241      1.0  0.40076  0.15989  0.32680  1.0000 -0.2018967721
C   C242      1.0  0.84011  0.24087  0.32680  1.0000 -0.2018967721
C   C243      1.0  0.75913  0.59924  0.32680  1.0000 -0.2018967721
C   C244      1.0  0.59924  0.84011  0.82680  1.0000 -0.2018967721
C   C245      1.0  0.15989  0.75913  0.82680  1.0000 -0.2018967721
C   C246      1.0  0.24087  0.40076  0.82680  1.0000 -0.2018967721
C   C247      1.0  0.15989  0.40076  0.67320  1.0000 -0.2018967721
C   C248      1.0  0.24087  0.84011  0.67320  1.0000 -0.2018967721
C   C249      1.0  0.59924  0.75913  0.67320  1.0000 -0.2018967721
C   C250      1.0  0.84011  0.59924  0.17320  1.0000 -0.2018967721
C   C251      1.0  0.75913  0.15989  0.17320  1.0000 -0.2018967721
C   C252      1.0  0.40076  0.24087  0.17320  1.0000 -0.2018967721
C   C253      1.0  0.46186  0.18870  0.32590  1.0000 0.1112722116
C   C254      1.0  0.81130  0.27316  0.32590  1.0000 0.1112722116
C   C255      1.0  0.72684  0.53814  0.32590  1.0000 0.1112722116
C   C256      1.0  0.53814  0.81130  0.82590  1.0000 0.1112722116
C   C257      1.0  0.18870  0.72684  0.82590  1.0000 0.1112722116
C   C258      1.0  0.27316  0.46186  0.82590  1.0000 0.1112722116
C   C259      1.0  0.18870  0.46186  0.67410  1.0000 0.1112722116
C   C260      1.0  0.27316  0.81130  0.67410  1.0000 0.1112722116
C   C261      1.0  0.53814  0.72684  0.67410  1.0000 0.1112722116
C   C262      1.0  0.81130  0.53814  0.17410  1.0000 0.1112722116
C   C263      1.0  0.72684  0.18870  0.17410  1.0000 0.1112722116
C   C264      1.0  0.46186  0.27316  0.17410  1.0000 0.1112722116
C   C265      1.0  0.46521  0.28201  0.32220  1.0000 0.1194418237
C   C266      1.0  0.71799  0.18320  0.32220  1.0000 0.1194418237
C   C267      1.0  0.81680  0.53479  0.32220  1.0000 0.1194418237
C   C268      1.0  0.53479  0.71799  0.82220  1.0000 0.1194418237
C   C269      1.0  0.28201  0.81680  0.82220  1.0000 0.1194418237
C   C270      1.0  0.18320  0.46521  0.82220  1.0000 0.1194418237
C   C271      1.0  0.28201  0.46521  0.67780  1.0000 0.1194418237
C   C272      1.0  0.18320  0.71799  0.67780  1.0000 0.1194418237
C   C273      1.0  0.53479  0.81680  0.67780  1.0000 0.1194418237
C   C274      1.0  0.71799  0.53479  0.17780  1.0000 0.1194418237
C   C275      1.0  0.81680  0.28201  0.17780  1.0000 0.1194418237
C   C276      1.0  0.46521  0.18320  0.17780  1.0000 0.1194418237
C   C277      1.0  0.40410  0.25317  0.32310  1.0000 -0.2018967721
C   C278      1.0  0.74683  0.15093  0.32310  1.0000 -0.2018967721
C   C279      1.0  0.84907  0.59590  0.32310  1.0000 -0.2018967721
C   C280      1.0  0.59590  0.74683  0.82310  1.0000 -0.2018967721
C   C281      1.0  0.25317  0.84907  0.82310  1.0000 -0.2018967721
C   C282      1.0  0.15093  0.40410  0.82310  1.0000 -0.2018967721
C   C283      1.0  0.25317  0.40410  0.67690  1.0000 -0.2018967721
C   C284      1.0  0.15093  0.74683  0.67690  1.0000 -0.2018967721
C   C285      1.0  0.59590  0.84907  0.67690  1.0000 -0.2018967721
C   C286      1.0  0.74683  0.59590  0.17690  1.0000 -0.2018967721
C   C287      1.0  0.84907  0.25317  0.17690  1.0000 -0.2018967721
C   C288      1.0  0.40410  0.15093  0.17690  1.0000 -0.2018967721
S   S1        1.0  0.59564  0.40436  0.25000  1.0000 1.4168906221
S   S2        1.0  0.59564  0.19128  0.25000  1.0000 1.4168906221
S   S3        1.0  0.80872  0.40436  0.25000  1.0000 1.4168906221
S   S4        1.0  0.40436  0.59564  0.75000  1.0000 1.4168906221
S   S5        1.0  0.40436  0.80872  0.75000  1.0000 1.4168906221
S   S6        1.0  0.19128  0.59564  0.75000  1.0000 1.4168906221
S   S7        1.0  0.63460  0.36730  0.41140  1.0000 1.1809903483
S   S8        1.0  0.63270  0.26730  0.41140  1.0000 1.1809903483
S   S9        1.0  0.73270  0.36540  0.41140  1.0000 1.1809903483
S   S10       1.0  0.36540  0.63270  0.91140  1.0000 1.1809903483
S   S11       1.0  0.36730  0.73270  0.91140  1.0000 1.1809903483
S   S12       1.0  0.26730  0.63460  0.91140  1.0000 1.1864720791
S   S13       1.0  0.36730  0.63460  0.58860  1.0000 1.1809903483
S   S14       1.0  0.26730  0.63270  0.58860  1.0000 1.1809903483
S   S15       1.0  0.36540  0.73270  0.58860  1.0000 1.1809903483
S   S16       1.0  0.63270  0.36540  0.08860  1.0000 1.1809903483
S   S17       1.0  0.73270  0.36730  0.08860  1.0000 1.1809903483
S   S18       1.0  0.63460  0.26730  0.08860  1.0000 1.1809903483
N   N1        1.0  0.49409  0.24980  0.32360  1.0000 -0.2242532598
N   N2        1.0  0.75020  0.24429  0.32360  1.0000 -0.2242532598
N   N3        1.0  0.75571  0.50591  0.32360  1.0000 -0.2242532598
N   N4        1.0  0.50591  0.75020  0.82360  1.0000 -0.2242532598
N   N5        1.0  0.24980  0.75571  0.82360  1.0000 -0.2242532598
N   N6        1.0  0.24429  0.49409  0.82360  1.0000 -0.2259014637
N   N7        1.0  0.24980  0.49409  0.67640  1.0000 -0.2242532598
N   N8        1.0  0.24429  0.75020  0.67640  1.0000 -0.2242532598
N   N9        1.0  0.50591  0.75571  0.67640  1.0000 -0.2242532598
N   N10       1.0  0.75020  0.50591  0.17640  1.0000 -0.2242532598
N   N11       1.0  0.75571  0.24980  0.17640  1.0000 -0.2242532598
N   N12       1.0  0.49409  0.24429  0.17640  1.0000 -0.2242532598
N   N13       1.0  0.13850  0.00370  0.41684  1.0000 -0.2606105079
N   N14       1.0  0.99630  0.13480  0.41684  1.0000 -0.2606105079
N   N15       1.0  0.86520  0.86150  0.41684  1.0000 -0.2606105079
N   N16       1.0  0.86150  0.99630  0.91684  1.0000 -0.2606105079
N   N17       1.0  0.00370  0.86520  0.91684  1.0000 -0.2606105079
N   N18       1.0  0.13480  0.13850  0.91684  1.0000 -0.2606105079
N   N19       1.0  0.00370  0.13850  0.58316  1.0000 -0.2606105079
N   N20       1.0  0.13480  0.99630  0.58316  1.0000 -0.2606105079
N   N21       1.0  0.86150  0.86520  0.58316  1.0000 -0.2606105079
N   N22       1.0  0.99630  0.86150  0.08316  1.0000 -0.2606105079
N   N23       1.0  0.86520  0.00370  0.08316  1.0000 -0.2606105079
N   N24       1.0  0.13850  0.13480  0.08316  1.0000 -0.2606105079
O   O1        1.0  0.00000  0.00000  0.36410  1.0000 -0.766202727
O   O2        1.0  0.00000  0.00000  0.86410  1.0000 -0.766202727
O   O3        1.0  0.00000  0.00000  0.63590  1.0000 -0.766202727
O   O4        1.0  0.00000  0.00000  0.13590  1.0000 -0.766202727
O   O5        1.0  0.02913  0.95671  0.44872  1.0000 -0.599091221
O   O6        1.0  0.04329  0.07242  0.44872  1.0000 -0.599091221
O   O7        1.0  0.92758  0.97087  0.44872  1.0000 -0.599091221
O   O8        1.0  0.97087  0.04329  0.94872  1.0000 -0.599091221
O   O9        1.0  0.95671  0.92758  0.94872  1.0000 -0.599091221
O   O10       1.0  0.07242  0.02913  0.94872  1.0000 -0.599091221
O   O11       1.0  0.95671  0.02913  0.55128  1.0000 -0.599091221
O   O12       1.0  0.07242  0.04329  0.55128  1.0000 -0.599091221
O   O13       1.0  0.97087  0.92758  0.55128  1.0000 -0.599091221
O   O14       1.0  0.04329  0.97087  0.05128  1.0000 -0.599091221
O   O15       1.0  0.92758  0.95671  0.05128  1.0000 -0.599091221
O   O16       1.0  0.02913  0.07242  0.05128  1.0000 -0.599091221
O   O17       1.0  0.12715  0.08583  0.35389  1.0000 -0.5006408682
O   O18       1.0  0.91417  0.04132  0.35389  1.0000 -0.5006408682
O   O19       1.0  0.95868  0.87285  0.35389  1.0000 -0.5006408682
O   O20       1.0  0.87285  0.91417  0.85389  1.0000 -0.5006408682
O   O21       1.0  0.08583  0.95868  0.85389  1.0000 -0.5006408682
O   O22       1.0  0.04132  0.12715  0.85389  1.0000 -0.5006408682
O   O23       1.0  0.08583  0.12715  0.64611  1.0000 -0.5006408682
O   O24       1.0  0.04132  0.91417  0.64611  1.0000 -0.5006408682
O   O25       1.0  0.87285  0.95868  0.64611  1.0000 -0.5006408682
O   O26       1.0  0.91417  0.87285  0.14611  1.0000 -0.5006408682
O   O27       1.0  0.95868  0.08583  0.14611  1.0000 -0.5006408682
O   O28       1.0  0.12715  0.04132  0.14611  1.0000 -0.5006408682
O   O29       1.0  0.66667  0.33333  0.30120  1.0000 -0.792512098
O   O30       1.0  0.33333  0.66667  0.80120  1.0000 -0.792512098
O   O31       1.0  0.33333  0.66667  0.69880  1.0000 -0.792512098
O   O32       1.0  0.66667  0.33333  0.19880  1.0000 -0.792512098
O   O33       1.0  0.56970  0.33920  0.24830  1.0000 -0.7030714344
O   O34       1.0  0.66080  0.23050  0.24830  1.0000 -0.7030714344
O   O35       1.0  0.76950  0.43030  0.24830  1.0000 -0.7030714344
O   O36       1.0  0.43030  0.66080  0.74830  1.0000 -0.7030714344
O   O37       1.0  0.33920  0.76950  0.74830  1.0000 -0.7030714344
O   O38       1.0  0.23050  0.56970  0.74830  1.0000 -0.7030714344
O   O39       1.0  0.33920  0.56970  0.75170  1.0000 -0.7030714344
O   O40       1.0  0.23050  0.66080  0.75170  1.0000 -0.7030714344
O   O41       1.0  0.43030  0.76950  0.75170  1.0000 -0.7030714344
O   O42       1.0  0.66080  0.43030  0.25170  1.0000 -0.7030714344
O   O43       1.0  0.76950  0.33920  0.25170  1.0000 -0.7030714344
O   O44       1.0  0.56970  0.23050  0.25170  1.0000 -0.7030714344
O   O45       1.0  0.57750  0.42180  0.29840  1.0000 -0.6056747825
O   O46       1.0  0.57820  0.15570  0.29840  1.0000 -0.6056747825
O   O47       1.0  0.84430  0.42250  0.29840  1.0000 -0.6056747825
O   O48       1.0  0.42250  0.57820  0.79840  1.0000 -0.6056747825
O   O49       1.0  0.42180  0.84430  0.79840  1.0000 -0.6056747825
O   O50       1.0  0.15570  0.57750  0.79840  1.0000 -0.6056747825
O   O51       1.0  0.42180  0.57750  0.70160  1.0000 -0.6056747825
O   O52       1.0  0.15570  0.57820  0.70160  1.0000 -0.6056747825
O   O53       1.0  0.42250  0.84430  0.70160  1.0000 -0.6056747825
O   O54       1.0  0.57820  0.42250  0.20160  1.0000 -0.6056747825
O   O55       1.0  0.84430  0.42180  0.20160  1.0000 -0.6056747825
O   O56       1.0  0.57750  0.15570  0.20160  1.0000 -0.6056747825
O   O57       1.0  0.58470  0.34040  0.37410  1.0000 -0.4808805476
O   O58       1.0  0.65960  0.24430  0.37410  1.0000 -0.4808805476
O   O59       1.0  0.75570  0.41530  0.37410  1.0000 -0.4808805476
O   O60       1.0  0.41530  0.65960  0.87410  1.0000 -0.4808805476
O   O61       1.0  0.34040  0.75570  0.87410  1.0000 -0.4808805476
O   O62       1.0  0.24430  0.58470  0.87410  1.0000 -0.4808805476
O   O63       1.0  0.34040  0.58470  0.62590  1.0000 -0.4808805476
O   O64       1.0  0.24430  0.65960  0.62590  1.0000 -0.4808805476
O   O65       1.0  0.41530  0.75570  0.62590  1.0000 -0.4808805476
O   O66       1.0  0.65960  0.41530  0.12590  1.0000 -0.4808805476
O   O67       1.0  0.75570  0.34040  0.12590  1.0000 -0.4808805476
O   O68       1.0  0.58470  0.24430  0.12590  1.0000 -0.4808805476
O   O69       1.0  0.61730  0.38170  0.46350  1.0000 -0.439667219
O   O70       1.0  0.61830  0.23560  0.46350  1.0000 -0.439667219
O   O71       1.0  0.76440  0.38270  0.46350  1.0000 -0.439667219
O   O72       1.0  0.38270  0.61830  0.96350  1.0000 -0.439667219
O   O73       1.0  0.38170  0.76440  0.96350  1.0000 -0.439667219
O   O74       1.0  0.23560  0.61730  0.96350  1.0000 -0.439667219
O   O75       1.0  0.38170  0.61730  0.53650  1.0000 -0.439667219
O   O76       1.0  0.23560  0.61830  0.53650  1.0000 -0.439667219
O   O77       1.0  0.38270  0.76440  0.53650  1.0000 -0.439667219
O   O78       1.0  0.61830  0.38270  0.03650  1.0000 -0.439667219
O   O79       1.0  0.76440  0.38170  0.03650  1.0000 -0.439667219
O   O80       1.0  0.61730  0.23560  0.03650  1.0000 -0.439667219
O   O81       1.0  0.66667  0.33333  0.42200  1.0000 -0.4188680404
O   O82       1.0  0.33333  0.66667  0.92200  1.0000 -0.4188680404
O   O83       1.0  0.33333  0.66667  0.57800  1.0000 -0.4188680404
O   O84       1.0  0.66667  0.33333  0.07800  1.0000 -0.4188680404
O   O85       1.0  0.67610  0.42170  0.38110  1.0000 -0.5106848717
O   O86       1.0  0.57830  0.25440  0.38110  1.0000 -0.5106848717
O   O87       1.0  0.74560  0.32390  0.38110  1.0000 -0.5106848717
O   O88       1.0  0.32390  0.57830  0.88110  1.0000 -0.5106848717
O   O89       1.0  0.42170  0.74560  0.88110  1.0000 -0.5106848717
O   O90       1.0  0.25440  0.67610  0.88110  1.0000 -0.5106848717
O   O91       1.0  0.42170  0.67610  0.61890  1.0000 -0.5106848717
O   O92       1.0  0.25440  0.57830  0.61890  1.0000 -0.5106848717
O   O93       1.0  0.32390  0.74560  0.61890  1.0000 -0.5106848717
O   O94       1.0  0.57830  0.32390  0.11890  1.0000 -0.5106848717
O   O95       1.0  0.74560  0.42170  0.11890  1.0000 -0.5106848717
O   O96       1.0  0.67610  0.25440  0.11890  1.0000 -0.5106848717
