# DDEC6 charges by PACMAN v1.1 (https://github.com/mtap-research/PACMAN-charge/)
data_2010[La][flu]3[ASR]1
_chemical_formula_sum              "La2 H14 C30 O14"
_cell_length_a       9.376
_cell_length_b       9.94
_cell_length_c       11.377
_cell_angle_alpha    92.979
_cell_angle_beta     97.836
_cell_angle_gamma    110.33

_symmetry_space_group_name_H-M    "P 1"
_symmetry_Int_Tables_number       1

loop_
  _symmetry_equiv_pos_as_xyz
  'x, y, z'

loop_
  _atom_site_type_symbol
  _atom_site_label
  _atom_site_symmetry_multiplicity
  _atom_site_fract_x
  _atom_site_fract_y
  _atom_site_fract_z
  _atom_site_occupancy
  _atom_site_charge
La  La1       1.0  0.28444  0.04771  0.98322  1.0000 1.8830979311
La  La2       1.0  0.71556  0.95229  0.01678  1.0000 1.8830979311
H   H1        1.0  0.68270  0.50210  0.95990  1.0000 0.1399132627
H   H2        1.0  0.31730  0.49790  0.04010  1.0000 0.1399132627
H   H3        1.0  0.80780  0.21730  0.77810  1.0000 0.1399132627
H   H4        1.0  0.19220  0.78270  0.22190  1.0000 0.1399132627
H   H5        1.0  0.08620  0.63510  0.83680  1.0000 0.1399132627
H   H6        1.0  0.91380  0.36490  0.16320  1.0000 0.1399132627
H   H7        1.0  0.83000  0.40340  0.57100  1.0000 0.1302877956
H   H8        1.0  0.17000  0.59660  0.42900  1.0000 0.1302877956
H   H9        1.0  0.73880  0.27800  0.38110  1.0000 0.1172736187
H   H10       1.0  0.26120  0.72200  0.61890  1.0000 0.1172736187
H   H11       1.0  0.06970  0.10610  0.42630  1.0000 0.1172736187
H   H12       1.0  0.93030  0.89390  0.57370  1.0000 0.1172736187
H   H13       1.0  0.16020  0.23030  0.61580  1.0000 0.1487968408
H   H14       1.0  0.83980  0.76970  0.38420  1.0000 0.1487968408
C   C1        1.0  0.92570  0.74050  0.97010  1.0000 0.6283826672
C   C2        1.0  0.07430  0.25950  0.02990  1.0000 0.6283826672
C   C3        1.0  0.89300  0.59320  0.91130  1.0000 -0.0209534208
C   C4        1.0  0.10700  0.40680  0.08870  1.0000 -0.0209534208
C   C5        1.0  0.75420  0.48110  0.92030  1.0000 -0.1215157069
C   C6        1.0  0.24580  0.51890  0.07970  1.0000 -0.1215157069
C   C7        1.0  0.72150  0.34300  0.87300  1.0000 -0.0071156539
C   C8        1.0  0.27850  0.65700  0.12700  1.0000 -0.0071156539
C   C9        1.0  0.57700  0.22780  0.89370  1.0000 0.5962472402
C   C10       1.0  0.42300  0.77220  0.10630  1.0000 0.5962472402
C   C11       1.0  0.82590  0.31140  0.80890  1.0000 -0.2220128657
C   C12       1.0  0.17410  0.68860  0.19110  1.0000 -0.2220128657
C   C13       1.0  0.95650  0.42390  0.79290  1.0000 0.2346879386
C   C14       1.0  0.04350  0.57610  0.20710  1.0000 0.2346879386
C   C15       1.0  0.99440  0.56310  0.84540  1.0000 -0.1868088327
C   C16       1.0  0.00560  0.43690  0.15460  1.0000 -0.1868088327
C   C17       1.0  0.99940  0.32310  0.61120  1.0000 0.2442296066
C   C18       1.0  0.00060  0.67690  0.38880  1.0000 0.2442296066
C   C19       1.0  0.87600  0.34210  0.54220  1.0000 -0.2220128657
C   C20       1.0  0.12400  0.65790  0.45780  1.0000 -0.2220128657
C   C21       1.0  0.82230  0.26770  0.42900  1.0000 -0.0718764036
C   C22       1.0  0.17770  0.73230  0.57100  1.0000 -0.0718764036
C   C23       1.0  0.89450  0.17700  0.38700  1.0000 -0.0399813584
C   C24       1.0  0.10550  0.82300  0.61300  1.0000 -0.0399813584
C   C25       1.0  0.82880  0.09130  0.26740  1.0000 0.5591265403
C   C26       1.0  0.17120  0.90870  0.73260  1.0000 0.5591265403
C   C27       1.0  0.02060  0.16420  0.45580  1.0000 -0.0803239799
C   C28       1.0  0.97940  0.83580  0.54420  1.0000 -0.0803239799
C   C29       1.0  0.07460  0.23800  0.56890  1.0000 -0.1868088327
C   C30       1.0  0.92540  0.76200  0.43110  1.0000 -0.1868088327
O   O1        1.0  0.05930  0.83580  0.96890  1.0000 -0.6621362723
O   O2        1.0  0.94070  0.16420  0.03110  1.0000 -0.6621362723
O   O3        1.0  0.82240  0.76480  0.01750  1.0000 -0.610029713
O   O4        1.0  0.17760  0.23520  0.98250  1.0000 -0.610029713
O   O5        1.0  0.45510  0.25250  0.88180  1.0000 -0.5499900735
O   O6        1.0  0.54490  0.74750  0.11820  1.0000 -0.5499900735
O   O7        1.0  0.58210  0.10640  0.92140  1.0000 -0.6835584796
O   O8        1.0  0.41790  0.89360  0.07860  1.0000 -0.6835584796
O   O9        1.0  0.06080  0.39660  0.72590  1.0000 -0.2220128657
O   O10       1.0  0.93920  0.60340  0.27410  1.0000 -0.2220128657
O   O11       1.0  0.71460  0.10420  0.20370  1.0000 -0.5946349061
O   O12       1.0  0.28540  0.89580  0.79630  1.0000 -0.5946349061
O   O13       1.0  0.88600  0.00120  0.22930  1.0000 -0.5973713554
O   O14       1.0  0.11400  0.99880  0.77070  1.0000 -0.5973713554
