# DDEC6 charges by PACMAN v1.1 (https://github.com/mtap-research/PACMAN-charge/)
data_2010[Zn][neb]3[ASR]2
_chemical_formula_sum              "Zn8 H128 C192 S16 N32 O32"
_cell_length_a       7.5238
_cell_length_b       21.9578
_cell_length_c       33.012
_cell_angle_alpha    90
_cell_angle_beta     95.252
_cell_angle_gamma    90

_symmetry_space_group_name_H-M    "P 1"
_symmetry_Int_Tables_number       1

loop_
  _symmetry_equiv_pos_as_xyz
  'x, y, z'

loop_
  _atom_site_type_symbol
  _atom_site_label
  _atom_site_symmetry_multiplicity
  _atom_site_fract_x
  _atom_site_fract_y
  _atom_site_fract_z
  _atom_site_occupancy
  _atom_site_charge
Zn  Zn1       1.0  0.75333  0.14035  0.33310  1.0000 0.7603163933
Zn  Zn2       1.0  0.24667  0.85965  0.66690  1.0000 0.7603163933
Zn  Zn3       1.0  0.74667  0.64035  0.16690  1.0000 0.7603163933
Zn  Zn4       1.0  0.25333  0.35965  0.83310  1.0000 0.7603163933
Zn  Zn5       1.0  0.20839  0.37843  0.16770  1.0000 0.7535758679
Zn  Zn6       1.0  0.79161  0.62157  0.83230  1.0000 0.7535758679
Zn  Zn7       1.0  0.29161  0.87843  0.33230  1.0000 0.7535758679
Zn  Zn8       1.0  0.70839  0.12157  0.66770  1.0000 0.7535758679
H   H1        1.0  0.35935  0.19730  0.41246  1.0000 0.0820426931
H   H2        1.0  0.64065  0.80270  0.58754  1.0000 0.0820426931
H   H3        1.0  0.14065  0.69730  0.08754  1.0000 0.0820426931
H   H4        1.0  0.85935  0.30270  0.91246  1.0000 0.0820426931
H   H5        1.0  0.97498  0.32634  0.35862  1.0000 0.1113778147
H   H6        1.0  0.02502  0.67366  0.64138  1.0000 0.1113778147
H   H7        1.0  0.52502  0.82634  0.14138  1.0000 0.1113778147
H   H8        1.0  0.47498  0.17366  0.85862  1.0000 0.1113778147
H   H9        1.0  0.20689  0.40785  0.37101  1.0000 0.1011510439
H   H10       1.0  0.79311  0.59215  0.62899  1.0000 0.1011510439
H   H11       1.0  0.29311  0.90785  0.12899  1.0000 0.1011510439
H   H12       1.0  0.70689  0.09215  0.87101  1.0000 0.1011510439
H   H13       1.0  0.53196  0.59125  0.35724  1.0000 0.1113778147
H   H14       1.0  0.46804  0.40875  0.64276  1.0000 0.1113778147
H   H15       1.0  0.96804  0.09125  0.14276  1.0000 0.1113778147
H   H16       1.0  0.03196  0.90875  0.85724  1.0000 0.1113778147
H   H17       1.0  0.59776  0.62360  0.28688  1.0000 0.1011510439
H   H18       1.0  0.40224  0.37640  0.71312  1.0000 0.1011510439
H   H19       1.0  0.90224  0.12360  0.21312  1.0000 0.1011510439
H   H20       1.0  0.09776  0.87640  0.78688  1.0000 0.1011510439
H   H21       1.0  0.59253  0.43408  0.25330  1.0000 0.0696000075
H   H22       1.0  0.40747  0.56592  0.74670  1.0000 0.0696000075
H   H23       1.0  0.90747  0.93408  0.24670  1.0000 0.0696000075
H   H24       1.0  0.09253  0.06592  0.75330  1.0000 0.0696000075
H   H25       1.0  0.68555  0.18155  0.40865  1.0000 0.0906381646
H   H26       1.0  0.31445  0.81845  0.59135  1.0000 0.0906381646
H   H27       1.0  0.81445  0.68155  0.09135  1.0000 0.0906381646
H   H28       1.0  0.18555  0.31845  0.90865  1.0000 0.0906381646
H   H29       1.0  0.57372  0.14505  0.47344  1.0000 0.121408881
H   H30       1.0  0.42628  0.85495  0.52656  1.0000 0.121408881
H   H31       1.0  0.92628  0.64505  0.02656  1.0000 0.121408881
H   H32       1.0  0.07372  0.35495  0.97344  1.0000 0.121408881
H   H33       1.0  0.57388  0.96122  0.42322  1.0000 0.128085277
H   H34       1.0  0.42612  0.03878  0.57678  1.0000 0.128085277
H   H35       1.0  0.92612  0.46122  0.07678  1.0000 0.128085277
H   H36       1.0  0.07388  0.53878  0.92322  1.0000 0.128085277
H   H37       1.0  0.67465  0.00594  0.35975  1.0000 0.1113778147
H   H38       1.0  0.32535  0.99406  0.64025  1.0000 0.1113778147
H   H39       1.0  0.82535  0.50594  0.14025  1.0000 0.1113778147
H   H40       1.0  0.17465  0.49406  0.85975  1.0000 0.1113778147
H   H41       1.0  0.45936  0.06628  0.51237  1.0000 0.1011510439
H   H42       1.0  0.54064  0.93372  0.48763  1.0000 0.1011510439
H   H43       1.0  0.04064  0.56628  0.98763  1.0000 0.1011510439
H   H44       1.0  0.95936  0.43372  0.01237  1.0000 0.1011510439
H   H45       1.0  0.37754  0.10475  0.31135  1.0000 0.1011510439
H   H46       1.0  0.62246  0.89525  0.68865  1.0000 0.1011510439
H   H47       1.0  0.12246  0.60475  0.18865  1.0000 0.1011510439
H   H48       1.0  0.87754  0.39525  0.81135  1.0000 0.1011510439
H   H49       1.0  0.09817  0.15221  0.28039  1.0000 0.121408881
H   H50       1.0  0.90183  0.84779  0.71961  1.0000 0.121408881
H   H51       1.0  0.40183  0.65221  0.21961  1.0000 0.121408881
H   H52       1.0  0.59817  0.34779  0.78039  1.0000 0.121408881
H   H53       1.0  0.37119  0.32727  0.28742  1.0000 0.121408881
H   H54       1.0  0.62881  0.67273  0.71258  1.0000 0.121408881
H   H55       1.0  0.12881  0.82727  0.21258  1.0000 0.121408881
H   H56       1.0  0.87119  0.17273  0.78742  1.0000 0.121408881
H   H57       1.0  0.64286  0.27230  0.31973  1.0000 0.1011510439
H   H58       1.0  0.35714  0.72770  0.68027  1.0000 0.1011510439
H   H59       1.0  0.85714  0.77230  0.18027  1.0000 0.1011510439
H   H60       1.0  0.14286  0.22770  0.81973  1.0000 0.1011510439
H   H61       1.0  0.08344  0.32162  0.24923  1.0000 0.1011510439
H   H62       1.0  0.91656  0.67838  0.75077  1.0000 0.1011510439
H   H63       1.0  0.41656  0.82162  0.25077  1.0000 0.1011510439
H   H64       1.0  0.58344  0.17838  0.74923  1.0000 0.1011510439
H   H65       1.0  0.88198  0.19841  0.25342  1.0000 0.1011510439
H   H66       1.0  0.11802  0.80159  0.74658  1.0000 0.1011510439
H   H67       1.0  0.61802  0.69841  0.24658  1.0000 0.1011510439
H   H68       1.0  0.38198  0.30159  0.75342  1.0000 0.1011510439
H   H69       1.0  0.59137  0.19315  0.21815  1.0000 0.121408881
H   H70       1.0  0.40863  0.80685  0.78185  1.0000 0.121408881
H   H71       1.0  0.90863  0.69315  0.28185  1.0000 0.121408881
H   H72       1.0  0.09137  0.30685  0.71815  1.0000 0.121408881
H   H73       1.0  0.31841  0.24737  0.18479  1.0000 0.0906381646
H   H74       1.0  0.68159  0.75263  0.81521  1.0000 0.0906381646
H   H75       1.0  0.18159  0.74737  0.31521  1.0000 0.0906381646
H   H76       1.0  0.81841  0.25263  0.68479  1.0000 0.0906381646
H   H77       1.0  0.59199  0.41348  0.18723  1.0000 0.1011510439
H   H78       1.0  0.40801  0.58652  0.81277  1.0000 0.1011510439
H   H79       1.0  0.90801  0.91348  0.31277  1.0000 0.1011510439
H   H80       1.0  0.09199  0.08652  0.68723  1.0000 0.1011510439
H   H81       1.0  0.86879  0.36667  0.21905  1.0000 0.128085277
H   H82       1.0  0.13121  0.63333  0.78095  1.0000 0.128085277
H   H83       1.0  0.63121  0.86667  0.28095  1.0000 0.128085277
H   H84       1.0  0.36879  0.13333  0.71905  1.0000 0.128085277
H   H85       1.0  0.25588  0.34615  0.08592  1.0000 0.0820426931
H   H86       1.0  0.74412  0.65385  0.91408  1.0000 0.0820426931
H   H87       1.0  0.24412  0.84615  0.41408  1.0000 0.0820426931
H   H88       1.0  0.75588  0.15385  0.58592  1.0000 0.0820426931
H   H89       1.0  0.37544  0.39114  0.02429  1.0000 0.1113778147
H   H90       1.0  0.62456  0.60886  0.97571  1.0000 0.1113778147
H   H91       1.0  0.12456  0.89114  0.47571  1.0000 0.1113778147
H   H92       1.0  0.87544  0.10886  0.52429  1.0000 0.1113778147
H   H93       1.0  0.43767  0.56209  0.09093  1.0000 0.1414573406
H   H94       1.0  0.56233  0.43791  0.90907  1.0000 0.1414573406
H   H95       1.0  0.06233  0.06209  0.40907  1.0000 0.1414573406
H   H96       1.0  0.93767  0.93791  0.59093  1.0000 0.1414573406
H   H97       1.0  0.32874  0.50815  0.15087  1.0000 0.1113778147
H   H98       1.0  0.67126  0.49185  0.84913  1.0000 0.1113778147
H   H99       1.0  0.17126  0.00815  0.34913  1.0000 0.1113778147
H   H100      1.0  0.82874  0.99185  0.65087  1.0000 0.1113778147
H   H101      1.0  0.50372  0.56196  0.02272  1.0000 0.1011510439
H   H102      1.0  0.49628  0.43804  0.97728  1.0000 0.1011510439
H   H103      1.0  0.99628  0.06196  0.47728  1.0000 0.1011510439
H   H104      1.0  0.00372  0.93804  0.52272  1.0000 0.1011510439
H   H105      1.0  0.16261  0.58318  0.25674  1.0000 0.1011510439
H   H106      1.0  0.83739  0.41682  0.74326  1.0000 0.1011510439
H   H107      1.0  0.33739  0.08318  0.24326  1.0000 0.1011510439
H   H108      1.0  0.66261  0.91682  0.75674  1.0000 0.1011510439
H   H109      1.0  0.09667  0.61553  0.32756  1.0000 0.1113778147
H   H110      1.0  0.90333  0.38447  0.67244  1.0000 0.1113778147
H   H111      1.0  0.40333  0.11553  0.17244  1.0000 0.1113778147
H   H112      1.0  0.59667  0.88447  0.82756  1.0000 0.1113778147
H   H113      1.0  0.00592  0.40079  0.28640  1.0000 0.0820426931
H   H114      1.0  0.99408  0.59921  0.71360  1.0000 0.0820426931
H   H115      1.0  0.49408  0.90079  0.21360  1.0000 0.0820426931
H   H116      1.0  0.50592  0.09921  0.78640  1.0000 0.0820426931
H   H117      1.0  0.12971  0.74050  0.42426  1.0000 0.121408881
H   H118      1.0  0.87029  0.25950  0.57574  1.0000 0.121408881
H   H119      1.0  0.37029  0.24050  0.07574  1.0000 0.121408881
H   H120      1.0  0.62971  0.75950  0.92426  1.0000 0.121408881
H   H121      1.0  0.90495  0.82769  0.40906  1.0000 0.1011510439
H   H122      1.0  0.09505  0.17231  0.59094  1.0000 0.1011510439
H   H123      1.0  0.59505  0.32769  0.09094  1.0000 0.1011510439
H   H124      1.0  0.40495  0.67231  0.90906  1.0000 0.1011510439
H   H125      1.0  0.52665  0.69548  0.35900  1.0000 0.0820426931
H   H126      1.0  0.47335  0.30452  0.64100  1.0000 0.0820426931
H   H127      1.0  0.97335  0.19548  0.14100  1.0000 0.0820426931
H   H128      1.0  0.02665  0.80452  0.85900  1.0000 0.0820426931
C   C1        1.0  0.03146  0.20235  0.37567  1.0000 0.5607902174
C   C2        1.0  0.96854  0.79765  0.62433  1.0000 0.5607902174
C   C3        1.0  0.46854  0.70235  0.12433  1.0000 0.5607902174
C   C4        1.0  0.53146  0.29765  0.87567  1.0000 0.5607902174
C   C5        1.0  0.15244  0.25534  0.38492  1.0000 -0.0891658133
C   C6        1.0  0.84756  0.74466  0.61508  1.0000 -0.0891658133
C   C7        1.0  0.34756  0.75534  0.11508  1.0000 -0.0891658133
C   C8        1.0  0.65244  0.24466  0.88492  1.0000 -0.0891658133
C   C9        1.0  0.32462  0.24412  0.40326  1.0000 0.0906381646
C   C10       1.0  0.67538  0.75588  0.59674  1.0000 0.0906381646
C   C11       1.0  0.17538  0.74412  0.09674  1.0000 0.0906381646
C   C12       1.0  0.82462  0.25588  0.90326  1.0000 0.0906381646
C   C13       1.0  0.10796  0.31540  0.37328  1.0000 -0.0196441345
C   C14       1.0  0.89204  0.68460  0.62672  1.0000 -0.0196441345
C   C15       1.0  0.39204  0.81540  0.12672  1.0000 -0.0196441345
C   C16       1.0  0.60796  0.18460  0.87328  1.0000 -0.0196441345
C   C17       1.0  0.23728  0.36070  0.37987  1.0000 -0.1863037432
C   C18       1.0  0.76272  0.63930  0.62013  1.0000 -0.1863037432
C   C19       1.0  0.26272  0.86070  0.12013  1.0000 -0.1863037432
C   C20       1.0  0.73728  0.13930  0.87987  1.0000 -0.1863037432
C   C21       1.0  0.40809  0.34388  0.39691  1.0000 0.1914937303
C   C22       1.0  0.59191  0.65612  0.60309  1.0000 0.1952496683
C   C23       1.0  0.09191  0.84388  0.10309  1.0000 0.1914937303
C   C24       1.0  0.90809  0.15612  0.89691  1.0000 0.1914937303
C   C25       1.0  0.52500  0.49559  0.34100  1.0000 0.1914937303
C   C26       1.0  0.47500  0.50441  0.65900  1.0000 0.1914937303
C   C27       1.0  0.97500  0.99559  0.15900  1.0000 0.1914937303
C   C28       1.0  0.02500  0.00441  0.84100  1.0000 0.1914937303
C   C29       1.0  0.54059  0.55803  0.33281  1.0000 -0.1794167645
C   C30       1.0  0.45941  0.44197  0.66719  1.0000 -0.1794167645
C   C31       1.0  0.95941  0.05803  0.16719  1.0000 -0.1794167645
C   C32       1.0  0.04059  0.94197  0.83281  1.0000 -0.1794167645
C   C33       1.0  0.57807  0.57563  0.29405  1.0000 -0.0341736764
C   C34       1.0  0.42193  0.42437  0.70595  1.0000 -0.0341736764
C   C35       1.0  0.92193  0.07563  0.20595  1.0000 -0.0341736764
C   C36       1.0  0.07807  0.92437  0.79405  1.0000 -0.0355967442
C   C37       1.0  0.59951  0.53105  0.26440  1.0000 -0.0827317291
C   C38       1.0  0.40049  0.46895  0.73560  1.0000 -0.0827317291
C   C39       1.0  0.90049  0.03105  0.23560  1.0000 -0.0827317291
C   C40       1.0  0.09951  0.96895  0.76440  1.0000 -0.0827317291
C   C41       1.0  0.57636  0.46999  0.27571  1.0000 0.1011510439
C   C42       1.0  0.42364  0.53001  0.72429  1.0000 0.1011510439
C   C43       1.0  0.92364  0.96999  0.22429  1.0000 0.1011510439
C   C44       1.0  0.07636  0.03001  0.77571  1.0000 0.1011510439
C   C45       1.0  0.65477  0.54752  0.22319  1.0000 0.5734695261
C   C46       1.0  0.34523  0.45248  0.77681  1.0000 0.5734695261
C   C47       1.0  0.84523  0.04752  0.27681  1.0000 0.5734695261
C   C48       1.0  0.15477  0.95248  0.72319  1.0000 0.5734695261
C   C49       1.0  0.65776  0.13307  0.41348  1.0000 0.0906381646
C   C50       1.0  0.34224  0.86693  0.58652  1.0000 0.0906381646
C   C51       1.0  0.84224  0.63307  0.08652  1.0000 0.0906381646
C   C52       1.0  0.15776  0.36693  0.91348  1.0000 0.0906381646
C   C53       1.0  0.59782  0.11228  0.44947  1.0000 -0.1794167645
C   C54       1.0  0.40218  0.88772  0.55053  1.0000 -0.1794167645
C   C55       1.0  0.90218  0.61228  0.05053  1.0000 -0.1794167645
C   C56       1.0  0.09782  0.38772  0.94947  1.0000 -0.1794167645
C   C57       1.0  0.56663  0.04939  0.45482  1.0000 0.1414573406
C   C58       1.0  0.43337  0.95061  0.54518  1.0000 0.1414573406
C   C59       1.0  0.93337  0.54939  0.04518  1.0000 0.1414573406
C   C60       1.0  0.06663  0.45061  0.95482  1.0000 0.1414573406
C   C61       1.0  0.59673  0.01038  0.42210  1.0000 -0.1614271784
C   C62       1.0  0.40327  0.98962  0.57790  1.0000 -0.1695688824
C   C63       1.0  0.90327  0.51038  0.07790  1.0000 -0.1614271784
C   C64       1.0  0.09673  0.48962  0.92210  1.0000 -0.1695688824
C   C65       1.0  0.65203  0.03437  0.38624  1.0000 0.1113778147
C   C66       1.0  0.34797  0.96563  0.61376  1.0000 0.1113778147
C   C67       1.0  0.84797  0.53437  0.11376  1.0000 0.1113778147
C   C68       1.0  0.15203  0.46563  0.88624  1.0000 0.1113778147
C   C69       1.0  0.50359  0.02912  0.49332  1.0000 -0.1123684746
C   C70       1.0  0.49641  0.97088  0.50668  1.0000 -0.1123684746
C   C71       1.0  0.99641  0.52912  0.00668  1.0000 -0.1123684746
C   C72       1.0  0.00359  0.47088  0.99332  1.0000 -0.1123684746
C   C73       1.0  0.37086  0.15408  0.30562  1.0000 0.0820426931
C   C74       1.0  0.62914  0.84592  0.69438  1.0000 0.0820426931
C   C75       1.0  0.12914  0.65408  0.19438  1.0000 0.0820426931
C   C76       1.0  0.87086  0.34592  0.80562  1.0000 0.0820426931
C   C77       1.0  0.21581  0.18077  0.28787  1.0000 -0.1614271784
C   C78       1.0  0.78419  0.81923  0.71213  1.0000 -0.1614271784
C   C79       1.0  0.28419  0.68077  0.21213  1.0000 -0.1614271784
C   C80       1.0  0.71581  0.31923  0.78787  1.0000 -0.1614271784
C   C81       1.0  0.21355  0.24377  0.27958  1.0000 0.1414573406
C   C82       1.0  0.78645  0.75623  0.72042  1.0000 0.1414573406
C   C83       1.0  0.28645  0.74377  0.22042  1.0000 0.1414573406
C   C84       1.0  0.71355  0.25623  0.77958  1.0000 0.1414573406
C   C85       1.0  0.36794  0.27787  0.29231  1.0000 -0.1695688824
C   C86       1.0  0.63206  0.72213  0.70769  1.0000 -0.1695688824
C   C87       1.0  0.13206  0.77787  0.20769  1.0000 -0.1695688824
C   C88       1.0  0.86794  0.22213  0.79231  1.0000 -0.1695688824
C   C89       1.0  0.51877  0.24811  0.30995  1.0000 0.0906381646
C   C90       1.0  0.48123  0.75189  0.69005  1.0000 0.0906381646
C   C91       1.0  0.98123  0.74811  0.19005  1.0000 0.0906381646
C   C92       1.0  0.01877  0.25189  0.80995  1.0000 0.0906381646
C   C93       1.0  0.06144  0.27376  0.25710  1.0000 -0.1153140078
C   C94       1.0  0.93856  0.72624  0.74290  1.0000 -0.1153140078
C   C95       1.0  0.43856  0.77376  0.24290  1.0000 -0.1153140078
C   C96       1.0  0.56144  0.22624  0.75710  1.0000 -0.1153140078
C   C97       1.0  0.90410  0.24603  0.24496  1.0000 -0.1153140078
C   C98       1.0  0.09590  0.75397  0.75504  1.0000 -0.1123684746
C   C99       1.0  0.59590  0.74603  0.25504  1.0000 -0.1153140078
C   C100      1.0  0.40410  0.25397  0.74496  1.0000 -0.1153140078
C   C101      1.0  0.75200  0.27566  0.22224  1.0000 0.1414573406
C   C102      1.0  0.24800  0.72434  0.77776  1.0000 0.1414573406
C   C103      1.0  0.74800  0.77566  0.27776  1.0000 0.1414573406
C   C104      1.0  0.25200  0.22434  0.72224  1.0000 0.1414573406
C   C105      1.0  0.59534  0.24188  0.21097  1.0000 -0.1794167645
C   C106      1.0  0.40466  0.75812  0.78903  1.0000 -0.1794167645
C   C107      1.0  0.90466  0.74188  0.28903  1.0000 -0.1794167645
C   C108      1.0  0.09534  0.25812  0.71097  1.0000 -0.1794167645
C   C109      1.0  0.44440  0.27134  0.19309  1.0000 0.0906381646
C   C110      1.0  0.55560  0.72866  0.80691  1.0000 0.0906381646
C   C111      1.0  0.05560  0.77134  0.30691  1.0000 0.0906381646
C   C112      1.0  0.94440  0.22866  0.69309  1.0000 0.0906381646
C   C113      1.0  0.59569  0.36448  0.19422  1.0000 0.0906381646
C   C114      1.0  0.40431  0.63552  0.80578  1.0000 0.0906381646
C   C115      1.0  0.90431  0.86448  0.30578  1.0000 0.0906381646
C   C116      1.0  0.09569  0.13552  0.69422  1.0000 0.0906381646
C   C117      1.0  0.75068  0.33806  0.21232  1.0000 -0.1614271784
C   C118      1.0  0.24932  0.66194  0.78768  1.0000 -0.1614271784
C   C119      1.0  0.74932  0.83806  0.28768  1.0000 -0.1614271784
C   C120      1.0  0.25068  0.16194  0.71232  1.0000 -0.1614271784
C   C121      1.0  0.30201  0.39355  0.08554  1.0000 0.0820426931
C   C122      1.0  0.69799  0.60645  0.91446  1.0000 0.0820426931
C   C123      1.0  0.19799  0.89355  0.41446  1.0000 0.0820426931
C   C124      1.0  0.80201  0.10645  0.58554  1.0000 0.0820426931
C   C125      1.0  0.36730  0.41903  0.05149  1.0000 -0.1794167645
C   C126      1.0  0.63270  0.58097  0.94851  1.0000 -0.1794167645
C   C127      1.0  0.13270  0.91903  0.44851  1.0000 -0.1794167645
C   C128      1.0  0.86730  0.08097  0.55149  1.0000 -0.1794167645
C   C129      1.0  0.41814  0.48101  0.05235  1.0000 0.1414573406
C   C130      1.0  0.58186  0.51899  0.94765  1.0000 0.1414573406
C   C131      1.0  0.08186  0.98101  0.44765  1.0000 0.1414573406
C   C132      1.0  0.91814  0.01899  0.55235  1.0000 0.1414573406
C   C133      1.0  0.40321  0.51361  0.08858  1.0000 -0.1614271784
C   C134      1.0  0.59679  0.48639  0.91142  1.0000 -0.1614271784
C   C135      1.0  0.09679  0.01361  0.41142  1.0000 -0.1614271784
C   C136      1.0  0.90321  0.98639  0.58858  1.0000 -0.1614271784
C   C137      1.0  0.34218  0.48466  0.12205  1.0000 0.1113778147
C   C138      1.0  0.65782  0.51534  0.87795  1.0000 0.1113778147
C   C139      1.0  0.15782  0.98466  0.37795  1.0000 0.1113778147
C   C140      1.0  0.84218  0.01534  0.62205  1.0000 0.1113778147
C   C141      1.0  0.48307  0.51285  0.01788  1.0000 -0.1123684746
C   C142      1.0  0.51693  0.48715  0.98212  1.0000 -0.1123684746
C   C143      1.0  0.01693  0.01285  0.48212  1.0000 -0.1123684746
C   C144      1.0  0.98307  0.98715  0.51788  1.0000 -0.1123684746
C   C145      1.0  0.13555  0.46953  0.22505  1.0000 0.576259396
C   C146      1.0  0.86445  0.53047  0.77495  1.0000 0.576259396
C   C147      1.0  0.36445  0.96953  0.27495  1.0000 0.576259396
C   C148      1.0  0.63555  0.03047  0.72505  1.0000 0.576259396
C   C149      1.0  0.08966  0.48959  0.26610  1.0000 -0.0827317291
C   C150      1.0  0.91034  0.51041  0.73390  1.0000 -0.0827317291
C   C151      1.0  0.41034  0.98959  0.23390  1.0000 -0.0827317291
C   C152      1.0  0.58966  0.01041  0.76610  1.0000 -0.0827317291
C   C153      1.0  0.11345  0.55063  0.27819  1.0000 -0.0196441345
C   C154      1.0  0.88655  0.44937  0.72181  1.0000 -0.0196441345
C   C155      1.0  0.38655  0.05063  0.22181  1.0000 -0.0196441345
C   C156      1.0  0.61345  0.94937  0.77819  1.0000 -0.0196441345
C   C157      1.0  0.07767  0.56841  0.31713  1.0000 -0.1863037432
C   C158      1.0  0.92233  0.43159  0.68287  1.0000 -0.1863037432
C   C159      1.0  0.42233  0.06841  0.18287  1.0000 -0.1863037432
C   C160      1.0  0.57767  0.93159  0.81713  1.0000 -0.1863037432
C   C161      1.0  0.02077  0.52365  0.34334  1.0000 0.1914937303
C   C162      1.0  0.97923  0.47635  0.65666  1.0000 0.1914937303
C   C163      1.0  0.47923  0.02365  0.15666  1.0000 0.1914937303
C   C164      1.0  0.52077  0.97635  0.84334  1.0000 0.1914937303
C   C165      1.0  0.02755  0.44894  0.29434  1.0000 0.1011510439
C   C166      1.0  0.97245  0.55106  0.70566  1.0000 0.1011510439
C   C167      1.0  0.47245  0.94894  0.20566  1.0000 0.1011510439
C   C168      1.0  0.52755  0.05106  0.79434  1.0000 0.1011510439
C   C169      1.0  0.93686  0.67320  0.39999  1.0000 0.1914937303
C   C170      1.0  0.06314  0.32680  0.60001  1.0000 0.1914937303
C   C171      1.0  0.56314  0.17320  0.10001  1.0000 0.1914937303
C   C172      1.0  0.43686  0.82680  0.89999  1.0000 0.1914937303
C   C173      1.0  0.99321  0.73275  0.41044  1.0000 -0.1863037432
C   C174      1.0  0.00679  0.26725  0.58956  1.0000 -0.1794167645
C   C175      1.0  0.50679  0.23275  0.08956  1.0000 -0.1794167645
C   C176      1.0  0.49321  0.76725  0.91044  1.0000 -0.1794167645
C   C177      1.0  0.87223  0.78004  0.40241  1.0000 -0.0341736764
C   C178      1.0  0.12777  0.21996  0.59759  1.0000 -0.0341736764
C   C179      1.0  0.62777  0.28004  0.09759  1.0000 -0.0341736764
C   C180      1.0  0.37223  0.71996  0.90241  1.0000 -0.0341736764
C   C181      1.0  0.70057  0.76749  0.38408  1.0000 -0.0827317291
C   C182      1.0  0.29943  0.23251  0.61592  1.0000 -0.0827317291
C   C183      1.0  0.79943  0.26749  0.11592  1.0000 -0.0827317291
C   C184      1.0  0.20057  0.73251  0.88408  1.0000 -0.0827317291
C   C185      1.0  0.65910  0.70674  0.37416  1.0000 0.0906381646
C   C186      1.0  0.34090  0.29326  0.62584  1.0000 0.0906381646
C   C187      1.0  0.84090  0.20674  0.12584  1.0000 0.0906381646
C   C188      1.0  0.15910  0.79326  0.87416  1.0000 0.0906381646
C   C189      1.0  0.57515  0.81942  0.37378  1.0000 0.5607902174
C   C190      1.0  0.42485  0.18058  0.62622  1.0000 0.5607902174
C   C191      1.0  0.92485  0.31942  0.12622  1.0000 0.5607902174
C   C192      1.0  0.07515  0.68058  0.87378  1.0000 0.5607902174
S   S1        1.0  0.09604  0.61430  0.41221  1.0000 -0.004450582
S   S2        1.0  0.90396  0.38570  0.58779  1.0000 -0.0057371362
S   S3        1.0  0.40396  0.11430  0.08779  1.0000 -0.004450582
S   S4        1.0  0.59604  0.88570  0.91221  1.0000 -0.0057371362
S   S5        1.0  0.59265  0.39418  0.40373  1.0000 0.0476099858
S   S6        1.0  0.40735  0.60582  0.59627  1.0000 0.0476099858
S   S7        1.0  0.90735  0.89418  0.09627  1.0000 0.0476099858
S   S8        1.0  0.09265  0.10582  0.90373  1.0000 0.0476099858
S   S9        1.0  0.48808  0.47824  0.39226  1.0000 0.0172723019
S   S10       1.0  0.51192  0.52176  0.60774  1.0000 0.0172723019
S   S11       1.0  0.01192  0.97824  0.10774  1.0000 0.0172723019
S   S12       1.0  0.98808  0.02176  0.89226  1.0000 0.0172723019
S   S13       1.0  0.97186  0.53559  0.39437  1.0000 0.0476099858
S   S14       1.0  0.02814  0.46441  0.60563  1.0000 0.0476099858
S   S15       1.0  0.52814  0.03559  0.10563  1.0000 0.0476099858
S   S16       1.0  0.47186  0.96441  0.89437  1.0000 0.0476099858
N   N1        1.0  0.53877  0.45124  0.31309  1.0000 -0.3201937015
N   N2        1.0  0.46123  0.54876  0.68691  1.0000 -0.3201937015
N   N3        1.0  0.96123  0.95124  0.18691  1.0000 -0.3201937015
N   N4        1.0  0.03877  0.04876  0.81309  1.0000 -0.3201937015
N   N5        1.0  0.45426  0.28664  0.40925  1.0000 -0.3278521831
N   N6        1.0  0.54574  0.71336  0.59075  1.0000 -0.3278521831
N   N7        1.0  0.04574  0.78664  0.09075  1.0000 -0.3278521831
N   N8        1.0  0.95426  0.21336  0.90925  1.0000 -0.3278521831
N   N9        1.0  0.68276  0.09501  0.38195  1.0000 -0.2504240871
N   N10       1.0  0.31724  0.90499  0.61805  1.0000 -0.2504240871
N   N11       1.0  0.81724  0.59501  0.11805  1.0000 -0.2504240871
N   N12       1.0  0.18276  0.40499  0.88195  1.0000 -0.2504240871
N   N13       1.0  0.52254  0.18666  0.31545  1.0000 -0.2504240871
N   N14       1.0  0.47746  0.81334  0.68455  1.0000 -0.2504240871
N   N15       1.0  0.97746  0.68666  0.18455  1.0000 -0.2504240871
N   N16       1.0  0.02254  0.31334  0.81545  1.0000 -0.2504240871
N   N17       1.0  0.44198  0.33237  0.18565  1.0000 -0.2504240871
N   N18       1.0  0.55802  0.66763  0.81435  1.0000 -0.2504240871
N   N19       1.0  0.05802  0.83237  0.31435  1.0000 -0.2504240871
N   N20       1.0  0.94198  0.16763  0.68565  1.0000 -0.2504240871
N   N21       1.0  0.28964  0.42545  0.12062  1.0000 -0.2504240871
N   N22       1.0  0.71036  0.57455  0.87938  1.0000 -0.2504240871
N   N23       1.0  0.21036  0.92545  0.37938  1.0000 -0.2504240871
N   N24       1.0  0.78964  0.07455  0.62062  1.0000 -0.2504240871
N   N25       1.0  0.99378  0.46474  0.33247  1.0000 -0.2960543344
N   N26       1.0  0.00622  0.53526  0.66753  1.0000 -0.2960543344
N   N27       1.0  0.50622  0.96474  0.16753  1.0000 -0.2960543344
N   N28       1.0  0.49378  0.03526  0.83247  1.0000 -0.2960543344
N   N29       1.0  0.77379  0.65959  0.38192  1.0000 -0.3201937015
N   N30       1.0  0.22621  0.34041  0.61808  1.0000 -0.3201937015
N   N31       1.0  0.72621  0.15959  0.11808  1.0000 -0.3201937015
N   N32       1.0  0.27379  0.84041  0.88192  1.0000 -0.3201937015
O   O1        1.0  0.89390  0.21355  0.34954  1.0000 -0.5539146001
O   O2        1.0  0.10610  0.78645  0.65046  1.0000 -0.5539146001
O   O3        1.0  0.60610  0.71355  0.15046  1.0000 -0.5539146001
O   O4        1.0  0.39390  0.28645  0.84954  1.0000 -0.5539146001
O   O5        1.0  0.06746  0.15119  0.39138  1.0000 -0.556523555
O   O6        1.0  0.93254  0.84881  0.60862  1.0000 -0.556523555
O   O7        1.0  0.43254  0.65119  0.10862  1.0000 -0.556523555
O   O8        1.0  0.56746  0.34881  0.89138  1.0000 -0.556523555
O   O9        1.0  0.67641  0.60658  0.21787  1.0000 -0.5808393056
O   O10       1.0  0.32359  0.39342  0.78213  1.0000 -0.5808393056
O   O11       1.0  0.82359  0.10658  0.28213  1.0000 -0.5808393056
O   O12       1.0  0.17641  0.89342  0.71787  1.0000 -0.5857176716
O   O13       1.0  0.67962  0.50740  0.19746  1.0000 -0.5331719453
O   O14       1.0  0.32038  0.49260  0.80254  1.0000 -0.5331719453
O   O15       1.0  0.82038  0.00740  0.30254  1.0000 -0.5331719453
O   O16       1.0  0.17962  0.99260  0.69746  1.0000 -0.5331719453
O   O17       1.0  0.42950  0.80481  0.35103  1.0000 -0.5723036165
O   O18       1.0  0.57050  0.19519  0.64897  1.0000 -0.5808393056
O   O19       1.0  0.07050  0.30481  0.14897  1.0000 -0.5808393056
O   O20       1.0  0.92950  0.69519  0.85103  1.0000 -0.5723036165
O   O21       1.0  0.61547  0.87228  0.38599  1.0000 -0.5539146001
O   O22       1.0  0.38453  0.12772  0.61401  1.0000 -0.5539146001
O   O23       1.0  0.88453  0.37228  0.11401  1.0000 -0.5539146001
O   O24       1.0  0.11547  0.62772  0.88599  1.0000 -0.5539146001
O   O25       1.0  0.12607  0.41032  0.21850  1.0000 -0.5723036165
O   O26       1.0  0.87393  0.58968  0.78150  1.0000 -0.5723036165
O   O27       1.0  0.37393  0.91032  0.28150  1.0000 -0.5723036165
O   O28       1.0  0.62607  0.08968  0.71850  1.0000 -0.5723036165
O   O29       1.0  0.18225  0.50797  0.20013  1.0000 -0.5377717549
O   O30       1.0  0.81775  0.49203  0.79987  1.0000 -0.5377717549
O   O31       1.0  0.31775  0.00797  0.29987  1.0000 -0.5377717549
O   O32       1.0  0.68225  0.99203  0.70013  1.0000 -0.5377717549
