# DDEC6 charges by PACMAN v1.1 (https://github.com/mtap-research/PACMAN-charge/)
data_2010[Mg][nan]3[ASR]1
_chemical_formula_sum              "Mg6 H18 C42 N6 O24"
_cell_length_a       11.4858
_cell_length_b       11.4858
_cell_length_c       14.756
_cell_angle_alpha    90
_cell_angle_beta     90
_cell_angle_gamma    120

_symmetry_space_group_name_H-M    "P 1"
_symmetry_Int_Tables_number       1

loop_
  _symmetry_equiv_pos_as_xyz
  'x, y, z'

loop_
  _atom_site_type_symbol
  _atom_site_label
  _atom_site_symmetry_multiplicity
  _atom_site_fract_x
  _atom_site_fract_y
  _atom_site_fract_z
  _atom_site_occupancy
  _atom_site_charge
Mg  Mg1       1.0  0.19347  0.80653  0.41667  1.0000 1.3527008789
Mg  Mg2       1.0  0.38694  0.19347  0.58333  1.0000 1.3527008789
Mg  Mg3       1.0  0.19347  0.38694  0.75000  1.0000 1.3527008789
Mg  Mg4       1.0  0.80653  0.19347  0.91667  1.0000 1.3527008789
Mg  Mg5       1.0  0.61306  0.80653  0.08333  1.0000 1.3527008789
Mg  Mg6       1.0  0.80653  0.61306  0.25000  1.0000 1.3527008789
H   H1        1.0  0.50685  0.01370  0.25000  1.0000 0.1289826504
H   H2        1.0  0.49315  0.50685  0.41667  1.0000 0.1289826504
H   H3        1.0  0.98630  0.49315  0.58333  1.0000 0.1289826504
H   H4        1.0  0.49315  0.98630  0.75000  1.0000 0.1289826504
H   H5        1.0  0.50685  0.49315  0.91667  1.0000 0.1289826504
H   H6        1.0  0.01370  0.50685  0.08333  1.0000 0.1289826504
H   H7        1.0  0.56750  0.36300  0.34800  1.0000 0.1017816486
H   H8        1.0  0.20450  0.56750  0.51467  1.0000 0.1017816486
H   H9        1.0  0.63700  0.20450  0.68133  1.0000 0.1017816486
H   H10       1.0  0.43250  0.63700  0.84800  1.0000 0.1017816486
H   H11       1.0  0.79550  0.43250  0.01467  1.0000 0.1017816486
H   H12       1.0  0.36300  0.79550  0.18133  1.0000 0.1017816486
H   H13       1.0  0.63700  0.43250  0.48533  1.0000 0.1017816486
H   H14       1.0  0.20450  0.63700  0.65200  1.0000 0.1017816486
H   H15       1.0  0.56750  0.20450  0.81867  1.0000 0.1017816486
H   H16       1.0  0.36300  0.56750  0.98533  1.0000 0.1017816486
H   H17       1.0  0.79550  0.36300  0.15200  1.0000 0.1017816486
H   H18       1.0  0.43250  0.79550  0.31867  1.0000 0.1017816486
C   C1        1.0  0.42080  0.10280  0.38760  1.0000 0.6382036405
C   C2        1.0  0.31800  0.42080  0.55427  1.0000 0.6382036405
C   C3        1.0  0.89720  0.31800  0.72093  1.0000 0.6382036405
C   C4        1.0  0.57920  0.89720  0.88760  1.0000 0.6382036405
C   C5        1.0  0.68200  0.57920  0.05427  1.0000 0.6382036405
C   C6        1.0  0.10280  0.68200  0.22093  1.0000 0.6382036405
C   C7        1.0  0.89720  0.57920  0.44573  1.0000 0.6382036405
C   C8        1.0  0.31800  0.89720  0.61240  1.0000 0.6382036405
C   C9        1.0  0.42080  0.31800  0.77907  1.0000 0.6382036405
C   C10       1.0  0.10280  0.42080  0.94573  1.0000 0.6382036405
C   C11       1.0  0.68200  0.10280  0.11240  1.0000 0.6382036405
C   C12       1.0  0.57920  0.68200  0.27907  1.0000 0.6382036405
C   C13       1.0  0.52340  0.17750  0.31400  1.0000 -0.0741819233
C   C14       1.0  0.34590  0.52340  0.48067  1.0000 -0.0741819233
C   C15       1.0  0.82250  0.34590  0.64733  1.0000 -0.0741819233
C   C16       1.0  0.47660  0.82250  0.81400  1.0000 -0.0741819233
C   C17       1.0  0.65410  0.47660  0.98067  1.0000 -0.0741819233
C   C18       1.0  0.17750  0.65410  0.14733  1.0000 -0.0741819233
C   C19       1.0  0.82250  0.47660  0.51933  1.0000 -0.0741819233
C   C20       1.0  0.34590  0.82250  0.68600  1.0000 -0.0741819233
C   C21       1.0  0.52340  0.34590  0.85267  1.0000 -0.0741819233
C   C22       1.0  0.17750  0.52340  0.01933  1.0000 -0.0741819233
C   C23       1.0  0.65410  0.17750  0.18600  1.0000 -0.0741819233
C   C24       1.0  0.47660  0.65410  0.35267  1.0000 -0.0741819233
C   C25       1.0  0.55320  0.10640  0.25000  1.0000 -0.0509646861
C   C26       1.0  0.44680  0.55320  0.41667  1.0000 -0.0509646861
C   C27       1.0  0.89360  0.44680  0.58333  1.0000 -0.0509646861
C   C28       1.0  0.44680  0.89360  0.75000  1.0000 -0.0509646861
C   C29       1.0  0.55320  0.44680  0.91667  1.0000 -0.0509646861
C   C30       1.0  0.10640  0.55320  0.08333  1.0000 -0.0509646861
C   C31       1.0  0.59220  0.31580  0.30870  1.0000 0.0669253279
C   C32       1.0  0.27640  0.59220  0.47537  1.0000 0.0669253279
C   C33       1.0  0.68420  0.27640  0.64203  1.0000 0.0669253279
C   C34       1.0  0.40780  0.68420  0.80870  1.0000 0.0669253279
C   C35       1.0  0.72360  0.40780  0.97537  1.0000 0.0669253279
C   C36       1.0  0.31580  0.72360  0.14203  1.0000 0.0669253279
C   C37       1.0  0.68420  0.40780  0.52463  1.0000 0.0669253279
C   C38       1.0  0.27640  0.68420  0.69130  1.0000 0.0669253279
C   C39       1.0  0.59220  0.27640  0.85797  1.0000 0.0669253279
C   C40       1.0  0.31580  0.59220  0.02463  1.0000 0.0669253279
C   C41       1.0  0.72360  0.31580  0.19130  1.0000 0.0669253279
C   C42       1.0  0.40780  0.72360  0.35797  1.0000 0.0669253279
N   N1        1.0  0.69325  0.38650  0.25000  1.0000 -0.3043209417
N   N2        1.0  0.30675  0.69325  0.41667  1.0000 -0.3043209417
N   N3        1.0  0.61350  0.30675  0.58333  1.0000 -0.3043209417
N   N4        1.0  0.30675  0.61350  0.75000  1.0000 -0.3043209417
N   N5        1.0  0.69325  0.30675  0.91667  1.0000 -0.3043209417
N   N6        1.0  0.38650  0.69325  0.08333  1.0000 -0.3043209417
O   O1        1.0  0.36640  0.97770  0.38710  1.0000 -0.6497017423
O   O2        1.0  0.38870  0.36640  0.55377  1.0000 -0.6437431591
O   O3        1.0  0.02230  0.38870  0.72043  1.0000 -0.6497017423
O   O4        1.0  0.63360  0.02230  0.88710  1.0000 -0.6437431591
O   O5        1.0  0.61130  0.63360  0.05377  1.0000 -0.6497017423
O   O6        1.0  0.97770  0.61130  0.22043  1.0000 -0.6437431591
O   O7        1.0  0.02230  0.63360  0.44623  1.0000 -0.6497017423
O   O8        1.0  0.38870  0.02230  0.61290  1.0000 -0.6437431591
O   O9        1.0  0.36640  0.38870  0.77957  1.0000 -0.6437431591
O   O10       1.0  0.97770  0.36640  0.94623  1.0000 -0.6437431591
O   O11       1.0  0.61130  0.97770  0.11290  1.0000 -0.6497017423
O   O12       1.0  0.63360  0.61130  0.27957  1.0000 -0.6437431591
O   O13       1.0  0.39860  0.17220  0.44330  1.0000 -0.6497017423
O   O14       1.0  0.22640  0.39860  0.60997  1.0000 -0.6497017423
O   O15       1.0  0.82780  0.22640  0.77663  1.0000 -0.6497017423
O   O16       1.0  0.60140  0.82780  0.94330  1.0000 -0.6497017423
O   O17       1.0  0.77360  0.60140  0.10997  1.0000 -0.6497017423
O   O18       1.0  0.17220  0.77360  0.27663  1.0000 -0.6497017423
O   O19       1.0  0.82780  0.60140  0.39003  1.0000 -0.6497017423
O   O20       1.0  0.22640  0.82780  0.55670  1.0000 -0.6497017423
O   O21       1.0  0.39860  0.22640  0.72337  1.0000 -0.6497017423
O   O22       1.0  0.17220  0.39860  0.89003  1.0000 -0.6497017423
O   O23       1.0  0.77360  0.17220  0.05670  1.0000 -0.6497017423
O   O24       1.0  0.60140  0.77360  0.22337  1.0000 -0.6497017423
