# DDEC6 charges by PACMAN v1.1 (https://github.com/mtap-research/PACMAN-charge/)
data_2010[Cu][nan]3[ASR]20
_chemical_formula_sum              "Cu8 H12 C32 S4 O32"
_cell_length_a       7.306
_cell_length_b       18.111
_cell_length_c       12.1026
_cell_angle_alpha    90
_cell_angle_beta     122.766
_cell_angle_gamma    90

_symmetry_space_group_name_H-M    "P 1"
_symmetry_Int_Tables_number       1

loop_
  _symmetry_equiv_pos_as_xyz
  'x, y, z'

loop_
  _atom_site_type_symbol
  _atom_site_label
  _atom_site_symmetry_multiplicity
  _atom_site_fract_x
  _atom_site_fract_y
  _atom_site_fract_z
  _atom_site_occupancy
  _atom_site_charge
Cu  Cu1       1.0  0.35135  0.09472  0.21590  1.0000 1.0379702337
Cu  Cu2       1.0  0.64865  0.59472  0.28410  1.0000 1.0379702337
Cu  Cu3       1.0  0.64865  0.90528  0.78410  1.0000 1.0379702337
Cu  Cu4       1.0  0.35135  0.40528  0.71590  1.0000 1.0379702337
Cu  Cu5       1.0  0.89028  0.06842  0.92979  1.0000 1.1387700922
Cu  Cu6       1.0  0.10972  0.56842  0.57021  1.0000 1.1387700922
Cu  Cu7       1.0  0.10972  0.93158  0.07021  1.0000 1.1387700922
Cu  Cu8       1.0  0.89028  0.43158  0.42979  1.0000 1.1387700922
H   H1        1.0  0.38540  0.30790  0.16430  1.0000 0.1514316648
H   H2        1.0  0.61460  0.80790  0.33570  1.0000 0.1514316648
H   H3        1.0  0.61460  0.69210  0.83570  1.0000 0.1514316648
H   H4        1.0  0.38540  0.19210  0.66430  1.0000 0.1514316648
H   H5        1.0  0.86160  0.29300  0.79750  1.0000 0.1514316648
H   H6        1.0  0.13840  0.79300  0.70250  1.0000 0.1514316648
H   H7        1.0  0.13840  0.70700  0.20250  1.0000 0.1514316648
H   H8        1.0  0.86160  0.20700  0.29750  1.0000 0.1514316648
H   H9        1.0  0.16370  0.48910  0.93660  1.0000 0.1514316648
H   H10       1.0  0.83630  0.98910  0.56340  1.0000 0.1514316648
H   H11       1.0  0.83630  0.51090  0.06340  1.0000 0.1514316648
H   H12       1.0  0.16370  0.01090  0.43660  1.0000 0.1514316648
C   C1        1.0  0.98980  0.39580  0.84840  1.0000 -0.0608677455
C   C2        1.0  0.01020  0.89580  0.65160  1.0000 -0.0608677455
C   C3        1.0  0.01020  0.60420  0.15160  1.0000 -0.0608677455
C   C4        1.0  0.98980  0.10420  0.34840  1.0000 -0.0608677455
C   C5        1.0  0.30290  0.40500  0.06900  1.0000 -0.0072715671
C   C6        1.0  0.69710  0.90500  0.43100  1.0000 -0.0072715671
C   C7        1.0  0.69710  0.59500  0.93100  1.0000 -0.0072715671
C   C8        1.0  0.30290  0.09500  0.56900  1.0000 -0.0072715671
C   C9        1.0  0.28510  0.33030  0.08470  1.0000 -0.0824151369
C   C10       1.0  0.71490  0.83030  0.41530  1.0000 -0.0824151369
C   C11       1.0  0.71490  0.66970  0.91530  1.0000 -0.0824151369
C   C12       1.0  0.28510  0.16970  0.58470  1.0000 -0.0824151369
C   C13       1.0  0.12080  0.28810  0.98430  1.0000 -0.0048321002
C   C14       1.0  0.87920  0.78810  0.51570  1.0000 -0.0048321002
C   C15       1.0  0.87920  0.71190  0.01570  1.0000 -0.0072715671
C   C16       1.0  0.12080  0.21190  0.48430  1.0000 -0.0072715671
C   C17       1.0  0.11030  0.20760  0.00880  1.0000 0.6244233883
C   C18       1.0  0.88970  0.70760  0.49120  1.0000 0.6244233883
C   C19       1.0  0.88970  0.79240  0.99120  1.0000 0.6244233883
C   C20       1.0  0.11030  0.29240  0.50880  1.0000 0.6244233883
C   C21       1.0  0.97220  0.32090  0.86540  1.0000 -0.0824151369
C   C22       1.0  0.02780  0.82090  0.63460  1.0000 -0.0824151369
C   C23       1.0  0.02780  0.67910  0.13460  1.0000 -0.0824151369
C   C24       1.0  0.97220  0.17910  0.36540  1.0000 -0.0824151369
C   C25       1.0  0.15380  0.43900  0.94900  1.0000 -0.0824151369
C   C26       1.0  0.84620  0.93900  0.55100  1.0000 -0.0824151369
C   C27       1.0  0.84620  0.56100  0.05100  1.0000 -0.0824151369
C   C28       1.0  0.15380  0.06100  0.44900  1.0000 -0.0824151369
C   C29       1.0  0.48580  0.44710  0.18000  1.0000 0.6125936843
C   C30       1.0  0.51420  0.94710  0.32000  1.0000 0.6125936843
C   C31       1.0  0.51420  0.55290  0.82000  1.0000 0.6125936843
C   C32       1.0  0.48580  0.05290  0.68000  1.0000 0.6125936843
S   S1        1.0  0.81422  0.43494  0.69043  1.0000 1.1824982948
S   S2        1.0  0.18578  0.93494  0.80957  1.0000 1.1824982948
S   S3        1.0  0.18578  0.56506  0.30957  1.0000 1.1824982948
S   S4        1.0  0.81422  0.06506  0.19043  1.0000 1.1824982948
O   O1        1.0  0.97040  0.16789  0.91440  1.0000 -0.5149012022
O   O2        1.0  0.02960  0.66789  0.58560  1.0000 -0.5149012022
O   O3        1.0  0.02960  0.83211  0.08560  1.0000 -0.5149012022
O   O4        1.0  0.97040  0.33211  0.41440  1.0000 -0.5149012022
O   O5        1.0  0.18890  0.03442  0.05830  1.0000 -0.9055990987
O   O6        1.0  0.81110  0.53442  0.44170  1.0000 -0.9055990987
O   O7        1.0  0.81110  0.96558  0.94170  1.0000 -0.9055990987
O   O8        1.0  0.18890  0.46558  0.55830  1.0000 -0.9049111419
O   O9        1.0  0.50580  0.51400  0.16180  1.0000 -0.5485896879
O   O10       1.0  0.49420  0.01400  0.33820  1.0000 -0.5485896879
O   O11       1.0  0.49420  0.48600  0.83820  1.0000 -0.5485896879
O   O12       1.0  0.50580  0.98600  0.66180  1.0000 -0.5485896879
O   O13       1.0  0.24710  0.18641  0.12440  1.0000 -0.5309368186
O   O14       1.0  0.75290  0.68641  0.37560  1.0000 -0.5309368186
O   O15       1.0  0.75290  0.81359  0.87560  1.0000 -0.5309368186
O   O16       1.0  0.24710  0.31359  0.62440  1.0000 -0.5309368186
O   O17       1.0  0.84210  0.51310  0.70040  1.0000 -0.5309368186
O   O18       1.0  0.15790  0.01310  0.79960  1.0000 -0.5309368186
O   O19       1.0  0.15790  0.48690  0.29960  1.0000 -0.5309368186
O   O20       1.0  0.84210  0.98690  0.20040  1.0000 -0.5244380646
O   O21       1.0  0.60410  0.41080  0.28290  1.0000 -0.4980332517
O   O22       1.0  0.39590  0.91080  0.21710  1.0000 -0.4980332517
O   O23       1.0  0.39590  0.58920  0.71710  1.0000 -0.4980332517
O   O24       1.0  0.60410  0.08920  0.78290  1.0000 -0.4980332517
O   O25       1.0  0.88540  0.40160  0.61110  1.0000 -0.639441412
O   O26       1.0  0.11460  0.90160  0.88890  1.0000 -0.639441412
O   O27       1.0  0.11460  0.59840  0.38890  1.0000 -0.639441412
O   O28       1.0  0.88540  0.09840  0.11110  1.0000 -0.639441412
O   O29       1.0  0.59840  0.40870  0.64730  1.0000 -0.5624725186
O   O30       1.0  0.40160  0.90870  0.85270  1.0000 -0.5624725186
O   O31       1.0  0.40160  0.59130  0.35270  1.0000 -0.5624725186
O   O32       1.0  0.59840  0.09130  0.14730  1.0000 -0.5624725186
