# DDEC6 charges by PACMAN v1.1 (https://github.com/mtap-research/PACMAN-charge/)
data_2010[Cu][nan]3[ASR]24
_chemical_formula_sum              "Cu8 H12 C32 S4 O32"
_cell_length_a       7.3354
_cell_length_b       18.14
_cell_length_c       12.0883
_cell_angle_alpha    90
_cell_angle_beta     122.898
_cell_angle_gamma    90

_symmetry_space_group_name_H-M    "P 1"
_symmetry_Int_Tables_number       1

loop_
  _symmetry_equiv_pos_as_xyz
  'x, y, z'

loop_
  _atom_site_type_symbol
  _atom_site_label
  _atom_site_symmetry_multiplicity
  _atom_site_fract_x
  _atom_site_fract_y
  _atom_site_fract_z
  _atom_site_occupancy
  _atom_site_charge
Cu  Cu1       1.0  0.35155  0.09449  0.21696  1.0000 1.0441974915
Cu  Cu2       1.0  0.64845  0.59449  0.28304  1.0000 1.0441974915
Cu  Cu3       1.0  0.64845  0.90551  0.78304  1.0000 1.0441974915
Cu  Cu4       1.0  0.35155  0.40551  0.71696  1.0000 1.0441974915
Cu  Cu5       1.0  0.88836  0.06850  0.93154  1.0000 1.139681629
Cu  Cu6       1.0  0.11164  0.56850  0.56846  1.0000 1.139681629
Cu  Cu7       1.0  0.11164  0.93150  0.06846  1.0000 1.139681629
Cu  Cu8       1.0  0.88836  0.43150  0.43154  1.0000 1.139681629
H   H1        1.0  0.38400  0.30770  0.16570  1.0000 0.1494221654
H   H2        1.0  0.61600  0.80770  0.33430  1.0000 0.1494221654
H   H3        1.0  0.61600  0.69230  0.83430  1.0000 0.1494221654
H   H4        1.0  0.38400  0.19230  0.66570  1.0000 0.1494221654
H   H5        1.0  0.85940  0.29330  0.79600  1.0000 0.1494221654
H   H6        1.0  0.14060  0.79330  0.70400  1.0000 0.1494221654
H   H7        1.0  0.14060  0.70670  0.20400  1.0000 0.1494221654
H   H8        1.0  0.85940  0.20670  0.29600  1.0000 0.1494221654
H   H9        1.0  0.15770  0.48890  0.93840  1.0000 0.1494221654
H   H10       1.0  0.84230  0.98890  0.56160  1.0000 0.1494221654
H   H11       1.0  0.84230  0.51110  0.06160  1.0000 0.1494221654
H   H12       1.0  0.15770  0.01110  0.43840  1.0000 0.1494221654
C   C1        1.0  0.98820  0.39590  0.84960  1.0000 -0.0585877587
C   C2        1.0  0.01180  0.89590  0.65040  1.0000 -0.0585877587
C   C3        1.0  0.01180  0.60410  0.15040  1.0000 -0.0585877587
C   C4        1.0  0.98820  0.10410  0.34960  1.0000 -0.0585877587
C   C5        1.0  0.29840  0.40500  0.06930  1.0000 -0.0012647178
C   C6        1.0  0.70160  0.90500  0.43070  1.0000 -0.0012647178
C   C7        1.0  0.70160  0.59500  0.93070  1.0000 -0.0012647178
C   C8        1.0  0.29840  0.09500  0.56930  1.0000 -0.0012647178
C   C9        1.0  0.28270  0.32990  0.08610  1.0000 -0.0838543297
C   C10       1.0  0.71730  0.82990  0.41390  1.0000 -0.0838543297
C   C11       1.0  0.71730  0.67010  0.91390  1.0000 -0.0838543297
C   C12       1.0  0.28270  0.17010  0.58610  1.0000 -0.0838543297
C   C13       1.0  0.11690  0.28760  0.98490  1.0000 -0.005660409
C   C14       1.0  0.88310  0.78760  0.51510  1.0000 -0.005660409
C   C15       1.0  0.88310  0.71240  0.01510  1.0000 -0.005660409
C   C16       1.0  0.11690  0.21240  0.48490  1.0000 -0.005660409
C   C17       1.0  0.10700  0.20720  0.00910  1.0000 0.6194170779
C   C18       1.0  0.89300  0.70720  0.49090  1.0000 0.6194170779
C   C19       1.0  0.89300  0.79280  0.99090  1.0000 0.6194170779
C   C20       1.0  0.10700  0.29280  0.50910  1.0000 0.6194170779
C   C21       1.0  0.96930  0.32080  0.86500  1.0000 -0.0838543297
C   C22       1.0  0.03070  0.82080  0.63500  1.0000 -0.0838543297
C   C23       1.0  0.03070  0.67920  0.13500  1.0000 -0.0838543297
C   C24       1.0  0.96930  0.17920  0.36500  1.0000 -0.0838543297
C   C25       1.0  0.14940  0.43860  0.95030  1.0000 -0.0897368816
C   C26       1.0  0.85060  0.93860  0.54970  1.0000 -0.0897368816
C   C27       1.0  0.85060  0.56140  0.04970  1.0000 -0.0897368816
C   C28       1.0  0.14940  0.06140  0.45030  1.0000 -0.0897368816
C   C29       1.0  0.48310  0.44650  0.18210  1.0000 0.6194170779
C   C30       1.0  0.51690  0.94650  0.31790  1.0000 0.6194170779
C   C31       1.0  0.51690  0.55350  0.81790  1.0000 0.6194170779
C   C32       1.0  0.48310  0.05350  0.68210  1.0000 0.6194170779
S   S1        1.0  0.81156  0.43462  0.69096  1.0000 1.1817686177
S   S2        1.0  0.18844  0.93462  0.80904  1.0000 1.1817686177
S   S3        1.0  0.18844  0.56538  0.30904  1.0000 1.1817686177
S   S4        1.0  0.81156  0.06538  0.19096  1.0000 1.1817686177
O   O1        1.0  0.96680  0.16803  0.91440  1.0000 -0.5133901619
O   O2        1.0  0.03320  0.66803  0.58560  1.0000 -0.5133901619
O   O3        1.0  0.03320  0.83197  0.08560  1.0000 -0.5133901619
O   O4        1.0  0.96680  0.33197  0.41440  1.0000 -0.5133901619
O   O5        1.0  0.18670  0.03480  0.05730  1.0000 -0.9017310821
O   O6        1.0  0.81330  0.53480  0.44270  1.0000 -0.9017310821
O   O7        1.0  0.81330  0.96520  0.94270  1.0000 -0.9017310821
O   O8        1.0  0.18670  0.46520  0.55730  1.0000 -0.9017310821
O   O9        1.0  0.50440  0.51352  0.16340  1.0000 -0.554971286
O   O10       1.0  0.49560  0.01352  0.33660  1.0000 -0.554971286
O   O11       1.0  0.49560  0.48648  0.83660  1.0000 -0.5615330818
O   O12       1.0  0.50440  0.98648  0.66340  1.0000 -0.5615330818
O   O13       1.0  0.24410  0.18608  0.12530  1.0000 -0.5371871822
O   O14       1.0  0.75590  0.68608  0.37470  1.0000 -0.5371871822
O   O15       1.0  0.75590  0.81392  0.87470  1.0000 -0.5371871822
O   O16       1.0  0.24410  0.31392  0.62530  1.0000 -0.5371871822
O   O17       1.0  0.83170  0.51280  0.70200  1.0000 -0.517050662
O   O18       1.0  0.16830  0.01280  0.79800  1.0000 -0.517050662
O   O19       1.0  0.16830  0.48720  0.29800  1.0000 -0.517050662
O   O20       1.0  0.83170  0.98720  0.20200  1.0000 -0.517050662
O   O21       1.0  0.60040  0.41026  0.28590  1.0000 -0.5003217542
O   O22       1.0  0.39960  0.91026  0.21410  1.0000 -0.5003217542
O   O23       1.0  0.39960  0.58974  0.71410  1.0000 -0.5003217542
O   O24       1.0  0.60040  0.08974  0.78590  1.0000 -0.5003217542
O   O25       1.0  0.88620  0.40280  0.61230  1.0000 -0.6403238558
O   O26       1.0  0.11380  0.90280  0.88770  1.0000 -0.6403238558
O   O27       1.0  0.11380  0.59720  0.38770  1.0000 -0.6403238558
O   O28       1.0  0.88620  0.09720  0.11230  1.0000 -0.6403238558
O   O29       1.0  0.59590  0.40740  0.64500  1.0000 -0.5615330818
O   O30       1.0  0.40410  0.90740  0.85500  1.0000 -0.5615330818
O   O31       1.0  0.40410  0.59260  0.35500  1.0000 -0.5615330818
O   O32       1.0  0.59590  0.09260  0.14500  1.0000 -0.5615330818
