# DDEC6 charges by PACMAN v1.1 (https://github.com/mtap-research/PACMAN-charge/)
data_2010[Mn][nan]3[ASR]5
_chemical_formula_sum              "Mn4 H32 C52 N4 O20"
_cell_length_a       12.6461
_cell_length_b       12.6461
_cell_length_c       12.564
_cell_angle_alpha    66.1301
_cell_angle_beta     113.87
_cell_angle_gamma    88.3629

_symmetry_space_group_name_H-M    "P 1"
_symmetry_Int_Tables_number       1

loop_
  _symmetry_equiv_pos_as_xyz
  'x, y, z'

loop_
  _atom_site_type_symbol
  _atom_site_label
  _atom_site_symmetry_multiplicity
  _atom_site_fract_x
  _atom_site_fract_y
  _atom_site_fract_z
  _atom_site_occupancy
  _atom_site_charge
Mn  Mn1       1.0  0.30390  0.30390  0.25000  1.0000 1.0476247928
Mn  Mn2       1.0  0.69610  0.69610  0.75000  1.0000 1.0476247928
Mn  Mn3       1.0  0.00000  0.50000  0.00000  1.0000 1.0476247928
Mn  Mn4       1.0  0.50000  0.00000  0.50000  1.0000 1.0476247928
H   H1        1.0  0.34540  0.42280  0.50480  1.0000 0.123012524
H   H2        1.0  0.42280  0.34540  0.99520  1.0000 0.123012524
H   H3        1.0  0.65460  0.57720  0.49520  1.0000 0.123012524
H   H4        1.0  0.57720  0.65460  0.00480  1.0000 0.123012524
H   H5        1.0  0.45090  0.53290  0.60060  1.0000 0.1297048888
H   H6        1.0  0.53290  0.45090  0.89940  1.0000 0.1297048888
H   H7        1.0  0.54910  0.46710  0.39940  1.0000 0.1297048888
H   H8        1.0  0.46710  0.54910  0.10060  1.0000 0.1297048888
H   H9        1.0  0.24600  0.83240  0.27690  1.0000 0.1095240692
H   H10       1.0  0.83240  0.24600  0.22310  1.0000 0.1095240692
H   H11       1.0  0.75400  0.16760  0.72310  1.0000 0.1095240692
H   H12       1.0  0.16760  0.75400  0.77690  1.0000 0.1095240692
H   H13       1.0  0.13430  0.72290  0.18760  1.0000 0.1095240692
H   H14       1.0  0.72290  0.13430  0.31240  1.0000 0.1095240692
H   H15       1.0  0.86570  0.27710  0.81240  1.0000 0.1095240692
H   H16       1.0  0.27710  0.86570  0.68760  1.0000 0.1095240692
H   H17       1.0  0.96430  0.21490  0.13660  1.0000 0.1297048888
H   H18       1.0  0.21490  0.96430  0.36340  1.0000 0.1297048888
H   H19       1.0  0.03570  0.78510  0.86340  1.0000 0.1297048888
H   H20       1.0  0.78510  0.03570  0.63660  1.0000 0.1297048888
H   H21       1.0  0.90730  0.06090  0.09130  1.0000 0.1384494937
H   H22       1.0  0.06090  0.90730  0.40870  1.0000 0.1384494937
H   H23       1.0  0.09270  0.93910  0.90870  1.0000 0.1384494937
H   H24       1.0  0.93910  0.09270  0.59130  1.0000 0.1384494937
H   H25       1.0  0.14340  0.07380  0.95340  1.0000 0.1384494937
H   H26       1.0  0.07380  0.14340  0.54660  1.0000 0.1384494937
H   H27       1.0  0.85660  0.92620  0.04660  1.0000 0.1384494937
H   H28       1.0  0.92620  0.85660  0.45340  1.0000 0.1384494937
H   H29       1.0  0.19900  0.22540  0.00450  1.0000 0.1486893966
H   H30       1.0  0.22540  0.19900  0.49550  1.0000 0.1486893966
H   H31       1.0  0.80100  0.77460  0.99550  1.0000 0.1486893966
H   H32       1.0  0.77460  0.80100  0.50450  1.0000 0.1486893966
C   C1        1.0  0.16720  0.48960  0.26840  1.0000 0.5917697511
C   C2        1.0  0.48960  0.16720  0.23160  1.0000 0.5917697511
C   C3        1.0  0.83280  0.51040  0.73160  1.0000 0.5917697511
C   C4        1.0  0.51040  0.83280  0.76840  1.0000 0.5917697511
C   C5        1.0  0.22965  0.56105  0.33390  1.0000 -0.0174528287
C   C6        1.0  0.56105  0.22965  0.16610  1.0000 -0.0174528287
C   C7        1.0  0.77035  0.43895  0.66610  1.0000 -0.0174528287
C   C8        1.0  0.43895  0.77035  0.83390  1.0000 -0.0174528287
C   C9        1.0  0.32490  0.50530  0.45890  1.0000 -0.0988197663
C   C10       1.0  0.50530  0.32490  0.04110  1.0000 -0.0988197663
C   C11       1.0  0.67510  0.49470  0.54110  1.0000 -0.0988197663
C   C12       1.0  0.49470  0.67510  0.95890  1.0000 -0.0988197663
C   C13       1.0  0.38950  0.57130  0.51580  1.0000 -0.0988197663
C   C14       1.0  0.57130  0.38950  0.98420  1.0000 -0.0988197663
C   C15       1.0  0.61050  0.42870  0.48420  1.0000 -0.0988197663
C   C16       1.0  0.42870  0.61050  0.01580  1.0000 -0.0988197663
C   C17       1.0  0.36290  0.69450  0.44670  1.0000 -0.0174528287
C   C18       1.0  0.69450  0.36290  0.05330  1.0000 -0.0174528287
C   C19       1.0  0.63710  0.30550  0.55330  1.0000 -0.0174528287
C   C20       1.0  0.30550  0.63710  0.94670  1.0000 -0.0174528287
C   C21       1.0  0.26630  0.74990  0.32340  1.0000 -0.1270607748
C   C22       1.0  0.74990  0.26630  0.17660  1.0000 -0.1270607748
C   C23       1.0  0.73370  0.25010  0.67660  1.0000 -0.1270607748
C   C24       1.0  0.25010  0.73370  0.82340  1.0000 -0.1270607748
C   C25       1.0  0.20010  0.68410  0.26930  1.0000 -0.1076760256
C   C26       1.0  0.68410  0.20010  0.23070  1.0000 -0.1076760256
C   C27       1.0  0.79990  0.31590  0.73070  1.0000 -0.1076760256
C   C28       1.0  0.31590  0.79990  0.76930  1.0000 -0.1076760256
C   C29       1.0  0.44100  0.76360  0.50630  1.0000 0.5917697511
C   C30       1.0  0.76360  0.44100  0.99370  1.0000 0.5917697511
C   C31       1.0  0.55900  0.23640  0.49370  1.0000 0.5917697511
C   C32       1.0  0.23640  0.55900  0.00630  1.0000 0.5917697511
C   C33       1.0  0.00140  0.18480  0.10090  1.0000 -0.0335933353
C   C34       1.0  0.18480  0.00140  0.39910  1.0000 -0.0335933353
C   C35       1.0  0.99860  0.81520  0.89910  1.0000 -0.0335933353
C   C36       1.0  0.81520  0.99860  0.60090  1.0000 -0.0335933353
C   C37       1.0  0.96650  0.09310  0.07270  1.0000 -0.2061626763
C   C38       1.0  0.09310  0.96650  0.42730  1.0000 -0.2061626763
C   C39       1.0  0.03350  0.90690  0.92730  1.0000 -0.2061626763
C   C40       1.0  0.90690  0.03350  0.57270  1.0000 -0.2061626763
C   C41       1.0  0.01890  0.04810  0.01660  1.0000 0.0829328409
C   C42       1.0  0.04810  0.01890  0.48340  1.0000 0.0829328409
C   C43       1.0  0.98110  0.95190  0.98340  1.0000 0.0829328409
C   C44       1.0  0.95190  0.98110  0.51660  1.0000 0.0829328409
C   C45       1.0  0.10650  0.10050  0.99160  1.0000 -0.1850794592
C   C46       1.0  0.10050  0.10650  0.50840  1.0000 -0.1850794592
C   C47       1.0  0.89350  0.89950  0.00840  1.0000 -0.1850794592
C   C48       1.0  0.89950  0.89350  0.49160  1.0000 -0.1850794592
C   C49       1.0  0.14010  0.19150  0.02220  1.0000 -0.0174528287
C   C50       1.0  0.19150  0.14010  0.47780  1.0000 -0.0174528287
C   C51       1.0  0.85990  0.80850  0.97780  1.0000 -0.0174528287
C   C52       1.0  0.80850  0.85990  0.52220  1.0000 -0.0174528287
N   N1        1.0  0.08802  0.23062  0.07730  1.0000 0.3148272074
N   N2        1.0  0.23062  0.08802  0.42270  1.0000 0.3148272074
N   N3        1.0  0.91198  0.76938  0.92270  1.0000 0.3148272074
N   N4        1.0  0.76938  0.91198  0.57730  1.0000 0.3148272074
O   O1        1.0  0.21322  0.37998  0.32300  1.0000 -0.5775497296
O   O2        1.0  0.37998  0.21322  0.17700  1.0000 -0.5775497296
O   O3        1.0  0.78678  0.62002  0.67700  1.0000 -0.5775497296
O   O4        1.0  0.62002  0.78678  0.82300  1.0000 -0.5775497296
O   O5        1.0  0.07248  0.54240  0.16260  1.0000 -0.5525565484
O   O6        1.0  0.54240  0.07248  0.33740  1.0000 -0.5525565484
O   O7        1.0  0.92752  0.45760  0.83740  1.0000 -0.5525565484
O   O8        1.0  0.45760  0.92752  0.66260  1.0000 -0.5525565484
O   O9        1.0  0.52406  0.70448  0.61870  1.0000 -0.5525565484
O   O10       1.0  0.70448  0.52406  0.88130  1.0000 -0.5525565484
O   O11       1.0  0.47594  0.29552  0.38130  1.0000 -0.5525565484
O   O12       1.0  0.29552  0.47594  0.11870  1.0000 -0.5525565484
O   O13       1.0  0.41729  0.87541  0.43690  1.0000 -0.5664014557
O   O14       1.0  0.87541  0.41729  0.06310  1.0000 -0.5664014557
O   O15       1.0  0.58271  0.12459  0.56310  1.0000 -0.5664014557
O   O16       1.0  0.12459  0.58271  0.93690  1.0000 -0.5664014557
O   O17       1.0  0.12189  0.31791  0.10700  1.0000 -0.4973485955
O   O18       1.0  0.31791  0.12189  0.39300  1.0000 -0.4973485955
O   O19       1.0  0.87811  0.68209  0.89300  1.0000 -0.4973485955
O   O20       1.0  0.68209  0.87811  0.60700  1.0000 -0.4973485955
