# DDEC6 charges by PACMAN v1.1 (https://github.com/mtap-research/PACMAN-charge/)
data_2010[Cd][nan]3[ASR]13
_chemical_formula_sum              "Cd2 H28 C48 N4 O8"
_cell_length_a       14.7297
_cell_length_b       14.7297
_cell_length_c       7.544
_cell_angle_alpha    75.5721
_cell_angle_beta     104.428
_cell_angle_gamma    116.916

_symmetry_space_group_name_H-M    "P 1"
_symmetry_Int_Tables_number       1

loop_
  _symmetry_equiv_pos_as_xyz
  'x, y, z'

loop_
  _atom_site_type_symbol
  _atom_site_label
  _atom_site_symmetry_multiplicity
  _atom_site_fract_x
  _atom_site_fract_y
  _atom_site_fract_z
  _atom_site_occupancy
  _atom_site_charge
Cd  Cd1       1.0  0.08110  0.86738  0.75157  1.0000 0.9227203233
Cd  Cd2       1.0  0.13262  0.91890  0.25157  1.0000 0.9227203233
H   H1        1.0  0.38470  0.16110  0.86140  1.0000 0.1286825155
H   H2        1.0  0.83890  0.61530  0.36140  1.0000 0.1286825155
H   H3        1.0  0.55430  0.27350  0.95870  1.0000 0.1094513767
H   H4        1.0  0.72650  0.44570  0.45870  1.0000 0.1094513767
H   H5        1.0  0.43030  0.92670  0.21410  1.0000 0.1216343333
H   H6        1.0  0.07330  0.56970  0.71410  1.0000 0.1216343333
H   H7        1.0  0.59720  0.03620  0.30630  1.0000 0.1216343333
H   H8        1.0  0.96380  0.40280  0.80630  1.0000 0.1216343333
H   H9        1.0  0.71060  0.36780  0.03100  1.0000 0.1216343333
H   H10       1.0  0.63220  0.28940  0.53100  1.0000 0.1216343333
H   H11       1.0  0.77830  0.52430  0.93760  1.0000 0.1286825155
H   H12       1.0  0.47570  0.22170  0.43760  1.0000 0.1286825155
H   H13       1.0  0.86300  0.69220  0.79670  1.0000 0.1216343333
H   H14       1.0  0.30780  0.13700  0.29670  1.0000 0.1216343333
H   H15       1.0  0.12680  0.69820  0.05850  1.0000 0.1216343333
H   H16       1.0  0.30180  0.87320  0.55850  1.0000 0.1216343333
H   H17       1.0  0.05130  0.53510  0.20420  1.0000 0.1286825155
H   H18       1.0  0.46490  0.94870  0.70420  1.0000 0.1286825155
H   H19       1.0  0.97950  0.38710  0.33780  1.0000 0.1216343333
H   H20       1.0  0.61290  0.02050  0.83780  1.0000 0.1216343333
H   H21       1.0  0.04890  0.32450  0.57710  1.0000 0.1094513767
H   H22       1.0  0.67550  0.95110  0.07710  1.0000 0.1094513767
H   H23       1.0  0.13890  0.23550  0.79550  1.0000 0.1216343333
H   H24       1.0  0.76450  0.86110  0.29550  1.0000 0.1216343333
H   H25       1.0  0.89130  0.96790  0.74980  1.0000 0.1286825155
H   H26       1.0  0.03210  0.10870  0.24980  1.0000 0.1286825155
H   H27       1.0  0.80180  0.05500  0.53300  1.0000 0.1216343333
H   H28       1.0  0.94500  0.19820  0.03300  1.0000 0.1216343333
C   C1        1.0  0.27940  0.96300  0.96430  1.0000 0.5594097179
C   C2        1.0  0.03700  0.72060  0.46430  1.0000 0.5594097179
C   C3        1.0  0.38910  0.03450  0.02810  1.0000 -0.0170195746
C   C4        1.0  0.96550  0.61090  0.52810  1.0000 -0.0170195746
C   C5        1.0  0.42700  0.13600  0.95220  1.0000 -0.1102039601
C   C6        1.0  0.86400  0.57300  0.45220  1.0000 -0.1102039601
C   C7        1.0  0.53010  0.20390  0.00950  1.0000 -0.1514716568
C   C8        1.0  0.79610  0.46990  0.50950  1.0000 -0.1514716568
C   C9        1.0  0.59490  0.16690  0.14100  1.0000 0.0407212981
C   C10       1.0  0.83310  0.40510  0.64100  1.0000 0.0407212981
C   C11       1.0  0.45490  0.99610  0.16270  1.0000 -0.1102039601
C   C12       1.0  0.00390  0.54510  0.66270  1.0000 -0.1102039601
C   C13       1.0  0.55470  0.06190  0.21680  1.0000 -0.1316435533
C   C14       1.0  0.93810  0.44530  0.71680  1.0000 -0.1316435533
C   C15       1.0  0.70520  0.23580  0.19940  1.0000 0.2071442408
C   C16       1.0  0.76420  0.29480  0.69940  1.0000 0.2071442408
C   C17       1.0  0.75030  0.33870  0.12020  1.0000 -0.2333451706
C   C18       1.0  0.66130  0.24970  0.62020  1.0000 -0.2333451706
C   C19       1.0  0.85360  0.39780  0.17290  1.0000 0.1094513767
C   C20       1.0  0.60220  0.14640  0.67290  1.0000 0.1094513767
C   C21       1.0  0.90500  0.50660  0.08630  1.0000 0.1094513767
C   C22       1.0  0.49340  0.09500  0.58630  1.0000 0.1094513767
C   C23       1.0  0.84970  0.55750  0.96400  1.0000 -0.1986751529
C   C24       1.0  0.44250  0.15030  0.46400  1.0000 -0.1986751529
C   C25       1.0  0.90190  0.65970  0.87940  1.0000 0.0970082385
C   C26       1.0  0.34030  0.09810  0.37940  1.0000 0.0970082385
C   C27       1.0  0.05550  0.66330  0.03200  1.0000 0.0970082385
C   C28       1.0  0.33670  0.94450  0.53200  1.0000 0.0970082385
C   C29       1.0  0.01020  0.56440  0.11980  1.0000 -0.1986751529
C   C30       1.0  0.43560  0.98980  0.61980  1.0000 -0.1986751529
C   C31       1.0  0.90910  0.35010  0.30280  1.0000 -0.2241244587
C   C32       1.0  0.64990  0.09090  0.80280  1.0000 -0.2241244587
C   C33       1.0  0.86170  0.24850  0.38160  1.0000 0.2183375162
C   C34       1.0  0.75150  0.13830  0.88160  1.0000 0.2183375162
C   C35       1.0  0.91770  0.19490  0.52660  1.0000 0.0407212981
C   C36       1.0  0.80510  0.08230  0.02660  1.0000 0.0407212981
C   C37       1.0  0.01810  0.25310  0.60850  1.0000 -0.1514716568
C   C38       1.0  0.74690  0.98190  0.10850  1.0000 -0.1514716568
C   C39       1.0  0.07140  0.19900  0.74180  1.0000 -0.0996750268
C   C40       1.0  0.80100  0.92860  0.24180  1.0000 -0.0996750268
C   C41       1.0  0.02400  0.09220  0.79280  1.0000 -0.0170195746
C   C42       1.0  0.90780  0.97600  0.29280  1.0000 -0.0170195746
C   C43       1.0  0.92400  0.03900  0.71510  1.0000 -0.0996750268
C   C44       1.0  0.96100  0.07600  0.21510  1.0000 -0.0996750268
C   C45       1.0  0.87020  0.09160  0.58240  1.0000 -0.1189570623
C   C46       1.0  0.90840  0.12980  0.08240  1.0000 -0.1189570623
C   C47       1.0  0.07790  0.03730  0.94350  1.0000 0.5594097179
C   C48       1.0  0.96270  0.92210  0.44350  1.0000 0.5594097179
N   N1        1.0  0.76150  0.19070  0.32690  1.0000 -0.326577385
N   N2        1.0  0.80930  0.23850  0.82690  1.0000 -0.326577385
N   N3        1.0  0.00360  0.71240  0.91160  1.0000 -0.2333451706
N   N4        1.0  0.28760  0.99640  0.41160  1.0000 -0.2333451706
O   O1        1.0  0.23920  0.98580  0.80570  1.0000 -0.5047798055
O   O2        1.0  0.01420  0.76080  0.30570  1.0000 -0.5047798055
O   O3        1.0  0.23150  0.88530  0.08270  1.0000 -0.6168011325
O   O4        1.0  0.11470  0.76850  0.58270  1.0000 -0.6168011325
O   O5        1.0  0.04050  0.93930  0.95780  1.0000 -0.5762237209
O   O6        1.0  0.06070  0.95950  0.45780  1.0000 -0.5762237209
O   O7        1.0  0.15410  0.08730  0.05330  1.0000 -0.5482026237
O   O8        1.0  0.91270  0.84590  0.55330  1.0000 -0.5482026237
