# DDEC6 charges by PACMAN v1.1 (https://github.com/mtap-research/PACMAN-charge/)
data_2010[Dy][nan]3[ASR]1
_chemical_formula_sum              "Dy4 H12 C36 O24"
_cell_length_a       10.32
_cell_length_b       10.32
_cell_length_c       14.5
_cell_angle_alpha    90
_cell_angle_beta     90
_cell_angle_gamma    90

_symmetry_space_group_name_H-M    "P 1"
_symmetry_Int_Tables_number       1

loop_
  _symmetry_equiv_pos_as_xyz
  'x, y, z'

loop_
  _atom_site_type_symbol
  _atom_site_label
  _atom_site_symmetry_multiplicity
  _atom_site_fract_x
  _atom_site_fract_y
  _atom_site_fract_z
  _atom_site_occupancy
  _atom_site_charge
Dy  Dy1       1.0  0.14787  0.14787  0.12500  1.0000 2.1105422689
Dy  Dy2       1.0  0.85213  0.85213  0.62500  1.0000 2.1105422689
Dy  Dy3       1.0  0.85213  0.14787  0.87500  1.0000 2.1105422689
Dy  Dy4       1.0  0.14787  0.85213  0.37500  1.0000 2.1105422689
H   H1        1.0  0.07150  0.55890  0.12890  1.0000 0.13598022
H   H2        1.0  0.92850  0.44110  0.62890  1.0000 0.13598022
H   H3        1.0  0.44110  0.07150  0.87890  1.0000 0.13598022
H   H4        1.0  0.55890  0.92850  0.37890  1.0000 0.13598022
H   H5        1.0  0.92850  0.55890  0.87110  1.0000 0.13598022
H   H6        1.0  0.07150  0.44110  0.37110  1.0000 0.13598022
H   H7        1.0  0.55890  0.07150  0.12110  1.0000 0.13598022
H   H8        1.0  0.44110  0.92850  0.62110  1.0000 0.13598022
H   H9        1.0  0.00000  0.89710  0.00000  1.0000 0.1076949103
H   H10       1.0  0.00000  0.10290  0.50000  1.0000 0.1076949103
H   H11       1.0  0.10290  0.00000  0.75000  1.0000 0.1076949103
H   H12       1.0  0.89710  0.00000  0.25000  1.0000 0.1076949103
C   C1        1.0  0.04310  0.60420  0.07730  1.0000 -0.100831972
C   C2        1.0  0.95690  0.39580  0.57730  1.0000 -0.100831972
C   C3        1.0  0.39580  0.04310  0.82730  1.0000 -0.100831972
C   C4        1.0  0.60420  0.95690  0.32730  1.0000 -0.100831972
C   C5        1.0  0.95690  0.60420  0.92270  1.0000 -0.100831972
C   C6        1.0  0.04310  0.39580  0.42270  1.0000 -0.100831972
C   C7        1.0  0.60420  0.04310  0.17270  1.0000 -0.100831972
C   C8        1.0  0.39580  0.95690  0.67270  1.0000 -0.100831972
C   C9        1.0  0.00000  0.53730  0.00000  1.0000 -0.0365720369
C   C10       1.0  0.00000  0.46270  0.50000  1.0000 -0.0365720369
C   C11       1.0  0.46270  0.00000  0.75000  1.0000 -0.0365720369
C   C12       1.0  0.53730  0.00000  0.25000  1.0000 -0.0365720369
C   C13       1.0  0.00000  0.38960  0.00000  1.0000 0.6644204272
C   C14       1.0  0.00000  0.61040  0.50000  1.0000 0.6644204272
C   C15       1.0  0.61040  0.00000  0.75000  1.0000 0.6644204272
C   C16       1.0  0.38960  0.00000  0.25000  1.0000 0.6644204272
C   C17       1.0  0.04360  0.73910  0.07710  1.0000 -0.030679477
C   C18       1.0  0.95640  0.26090  0.57710  1.0000 -0.030679477
C   C19       1.0  0.26090  0.04360  0.82710  1.0000 -0.030679477
C   C20       1.0  0.73910  0.95640  0.32710  1.0000 -0.030679477
C   C21       1.0  0.95640  0.73910  0.92290  1.0000 -0.030679477
C   C22       1.0  0.04360  0.26090  0.42290  1.0000 -0.030679477
C   C23       1.0  0.73910  0.04360  0.17290  1.0000 -0.030679477
C   C24       1.0  0.26090  0.95640  0.67290  1.0000 -0.030679477
C   C25       1.0  0.08700  0.81460  0.16110  1.0000 0.6366219161
C   C26       1.0  0.91300  0.18540  0.66110  1.0000 0.6366219161
C   C27       1.0  0.18540  0.08700  0.91110  1.0000 0.6366219161
C   C28       1.0  0.81460  0.91300  0.41110  1.0000 0.6366219161
C   C29       1.0  0.91300  0.81460  0.83890  1.0000 0.6366219161
C   C30       1.0  0.08700  0.18540  0.33890  1.0000 0.6366219161
C   C31       1.0  0.81460  0.08700  0.08890  1.0000 0.6366219161
C   C32       1.0  0.18540  0.91300  0.58890  1.0000 0.6366219161
C   C33       1.0  0.00000  0.80700  0.00000  1.0000 -0.1138801487
C   C34       1.0  0.00000  0.19300  0.50000  1.0000 -0.1138801487
C   C35       1.0  0.19300  0.00000  0.75000  1.0000 -0.1138801487
C   C36       1.0  0.80700  0.00000  0.25000  1.0000 -0.1138801487
O   O1        1.0  0.09520  0.75640  0.23570  1.0000 -0.6476909729
O   O2        1.0  0.90480  0.24360  0.73570  1.0000 -0.6476909729
O   O3        1.0  0.24360  0.09520  0.98570  1.0000 -0.6476909729
O   O4        1.0  0.75640  0.90480  0.48570  1.0000 -0.6476909729
O   O5        1.0  0.90480  0.75640  0.76430  1.0000 -0.6476909729
O   O6        1.0  0.09520  0.24360  0.26430  1.0000 -0.6476909729
O   O7        1.0  0.75640  0.09520  0.01430  1.0000 -0.6476909729
O   O8        1.0  0.24360  0.90480  0.51430  1.0000 -0.6476909729
O   O9        1.0  0.07090  0.33640  0.05840  1.0000 -0.6797512123
O   O10       1.0  0.92910  0.66360  0.55840  1.0000 -0.6797512123
O   O11       1.0  0.66360  0.07090  0.80840  1.0000 -0.6797512123
O   O12       1.0  0.33640  0.92910  0.30840  1.0000 -0.6797512123
O   O13       1.0  0.92910  0.33640  0.94160  1.0000 -0.6797512123
O   O14       1.0  0.07090  0.66360  0.44160  1.0000 -0.6797512123
O   O15       1.0  0.33640  0.07090  0.19160  1.0000 -0.6797512123
O   O16       1.0  0.66360  0.92910  0.69160  1.0000 -0.6797512123
O   O17       1.0  0.10960  0.93070  0.15140  1.0000 -0.6797512123
O   O18       1.0  0.89040  0.06930  0.65140  1.0000 -0.6797512123
O   O19       1.0  0.06930  0.10960  0.90140  1.0000 -0.6797512123
O   O20       1.0  0.93070  0.89040  0.40140  1.0000 -0.6797512123
O   O21       1.0  0.89040  0.93070  0.84860  1.0000 -0.6797512123
O   O22       1.0  0.10960  0.06930  0.34860  1.0000 -0.6797512123
O   O23       1.0  0.93070  0.10960  0.09860  1.0000 -0.6797512123
O   O24       1.0  0.06930  0.89040  0.59860  1.0000 -0.6797512123
