# DDEC6 charges by PACMAN v1.1 (https://github.com/mtap-research/PACMAN-charge/)
data_2010[Gd][flu]3[ASR]1
_chemical_formula_sum              "Gd2 P2 H24 C42 O14"
_cell_length_a       10.7961
_cell_length_b       11.8333
_cell_length_c       14.5779
_cell_angle_alpha    73.788
_cell_angle_beta     72.083
_cell_angle_gamma    67.049

_symmetry_space_group_name_H-M    "P 1"
_symmetry_Int_Tables_number       1

loop_
  _symmetry_equiv_pos_as_xyz
  'x, y, z'

loop_
  _atom_site_type_symbol
  _atom_site_label
  _atom_site_symmetry_multiplicity
  _atom_site_fract_x
  _atom_site_fract_y
  _atom_site_fract_z
  _atom_site_occupancy
  _atom_site_charge
Gd  Gd1       1.0  0.98926  0.55229  0.62815  1.0000 2.0712933382
Gd  Gd2       1.0  0.01074  0.44771  0.37185  1.0000 2.0712933382
P   P1        1.0  0.14563  0.71967  0.72562  1.0000 0.8998445412
P   P2        1.0  0.85437  0.28033  0.27438  1.0000 0.8998445412
H   H1        1.0  0.51180  0.63110  0.44480  1.0000 0.1211640005
H   H2        1.0  0.48820  0.36890  0.55520  1.0000 0.1211640005
H   H3        1.0  0.95650  0.89770  0.61780  1.0000 0.1211640005
H   H4        1.0  0.04350  0.10230  0.38220  1.0000 0.1211640005
H   H5        1.0  0.28350  0.67520  0.53630  1.0000 0.1290225675
H   H6        1.0  0.71650  0.32480  0.46370  1.0000 0.1290225675
H   H7        1.0  0.96690  0.81860  0.89360  1.0000 0.1108790204
H   H8        1.0  0.03310  0.18140  0.10640  1.0000 0.1108790204
H   H9        1.0  0.63780  0.62360  0.68140  1.0000 0.1290225675
H   H10       1.0  0.36220  0.37640  0.31860  1.0000 0.1290225675
H   H11       1.0  0.40890  0.67480  0.77160  1.0000 0.1108790204
H   H12       1.0  0.59110  0.32520  0.22840  1.0000 0.1108790204
H   H13       1.0  0.18840  0.92010  0.78060  1.0000 0.1108790204
H   H14       1.0  0.81160  0.07990  0.21940  1.0000 0.1108790204
H   H15       1.0  0.25110  0.42660  0.01810  1.0000 0.1211640005
H   H16       1.0  0.74890  0.57340  0.98190  1.0000 0.1211640005
H   H17       1.0  0.92810  0.74240  0.06250  1.0000 0.1211640005
H   H18       1.0  0.07190  0.25760  0.93750  1.0000 0.1211640005
H   H19       1.0  0.89260  0.11460  0.56420  1.0000 0.1211640005
H   H20       1.0  0.10740  0.88540  0.43580  1.0000 0.1211640005
H   H21       1.0  0.11240  0.13700  0.73470  1.0000 0.1355853667
H   H22       1.0  0.88760  0.86300  0.26530  1.0000 0.1355853667
H   H23       1.0  0.28120  0.49810  0.84840  1.0000 0.1211640005
H   H24       1.0  0.71880  0.50190  0.15160  1.0000 0.1211640005
C   C1        1.0  0.13170  0.66700  0.85520  1.0000 -0.152572459
C   C2        1.0  0.86830  0.33300  0.14480  1.0000 -0.152572459
C   C3        1.0  0.49110  0.63840  0.51150  1.0000 -0.0917910221
C   C4        1.0  0.50890  0.36160  0.48850  1.0000 -0.0917910221
C   C5        1.0  0.08110  0.88810  0.70230  1.0000 -0.152572459
C   C6        1.0  0.91890  0.11190  0.29770  1.0000 -0.152572459
C   C7        1.0  0.32510  0.67850  0.66300  1.0000 -0.152572459
C   C8        1.0  0.67490  0.32150  0.33700  1.0000 -0.152572459
C   C9        1.0  0.99110  0.94580  0.63950  1.0000 -0.0848491872
C   C10       1.0  0.00890  0.05420  0.36050  1.0000 -0.0848491872
C   C11       1.0  0.35520  0.66560  0.56560  1.0000 -0.0732376287
C   C12       1.0  0.64480  0.33440  0.43440  1.0000 -0.0732376287
C   C13       1.0  0.59640  0.62200  0.55460  1.0000 -0.0108766979
C   C14       1.0  0.40360  0.37800  0.44540  1.0000 -0.0108766979
C   C15       1.0  0.02470  0.73890  0.91880  1.0000 -0.0917910221
C   C16       1.0  0.97530  0.26110  0.08120  1.0000 -0.0917910221
C   C17       1.0  0.56580  0.63490  0.65180  1.0000 -0.0917910221
C   C18       1.0  0.43420  0.36510  0.34820  1.0000 -0.0917910221
C   C19       1.0  0.42980  0.66440  0.70560  1.0000 -0.0974887306
C   C20       1.0  0.57020  0.33560  0.29440  1.0000 -0.0974887306
C   C21       1.0  0.12740  0.95960  0.73730  1.0000 -0.1065756129
C   C22       1.0  0.87260  0.04040  0.26270  1.0000 -0.1065756129
C   C23       1.0  0.08810  0.57910  0.05680  1.0000 0.0004333071
C   C24       1.0  0.91190  0.42090  0.94320  1.0000 0.0004333071
C   C25       1.0  0.06410  0.53440  0.16580  1.0000 0.5606551012
C   C26       1.0  0.93590  0.46560  0.83420  1.0000 0.5606551012
C   C27       1.0  0.19280  0.50610  0.99300  1.0000 -0.0917910221
C   C28       1.0  0.80720  0.49390  0.00700  1.0000 -0.0917910221
C   C29       1.0  0.00250  0.69390  0.01930  1.0000 -0.0917910221
C   C30       1.0  0.99750  0.30610  0.98070  1.0000 -0.0974887306
C   C31       1.0  0.99920  0.14580  0.64210  1.0000 -0.0108766979
C   C32       1.0  0.00080  0.85420  0.35790  1.0000 -0.0108766979
C   C33       1.0  0.95210  0.07500  0.60860  1.0000 -0.0974887306
C   C34       1.0  0.04790  0.92500  0.39140  1.0000 -0.0974887306
C   C35       1.0  0.08410  0.08810  0.70880  1.0000 -0.0917910221
C   C36       1.0  0.91590  0.91190  0.29120  1.0000 -0.0917910221
C   C37       1.0  0.96530  0.28390  0.60170  1.0000 0.6326643368
C   C38       1.0  0.03470  0.71610  0.39830  1.0000 0.6326643368
C   C39       1.0  0.74300  0.58530  0.49560  1.0000 0.6184453805
C   C40       1.0  0.25700  0.41470  0.50440  1.0000 0.6184453805
C   C41       1.0  0.21210  0.54970  0.89200  1.0000 -0.0917910221
C   C42       1.0  0.78790  0.45030  0.10800  1.0000 -0.0917910221
O   O1        1.0  0.94330  0.57430  0.21636  1.0000 -0.603275464
O   O2        1.0  0.05670  0.42570  0.78364  1.0000 -0.603275464
O   O3        1.0  0.76680  0.55920  0.41245  1.0000 -0.603275464
O   O4        1.0  0.23320  0.44080  0.58755  1.0000 -0.603275464
O   O5        1.0  0.93440  0.31990  0.51880  1.0000 -0.6696068207
O   O6        1.0  0.06560  0.68010  0.48120  1.0000 -0.6696068207
O   O7        1.0  0.16390  0.45880  0.20432  1.0000 -0.6508840481
O   O8        1.0  0.83610  0.54120  0.79568  1.0000 -0.6508840481
O   O9        1.0  0.97280  0.35050  0.65197  1.0000 -0.6328686635
O   O10       1.0  0.02720  0.64950  0.34803  1.0000 -0.6328686635
O   O11       1.0  0.83880  0.57530  0.53352  1.0000 -0.7387762228
O   O12       1.0  0.16120  0.42470  0.46648  1.0000 -0.7387762228
O   O13       1.0  0.06920  0.67130  0.68493  1.0000 -0.753404216
O   O14       1.0  0.93080  0.32870  0.31507  1.0000 -0.753404216
