# DDEC6 charges by PACMAN v1.1 (https://github.com/mtap-research/PACMAN-charge/)
data_2010[Cu][nan]3[ASR]23
_chemical_formula_sum              "Cu8 H12 C32 S4 O32"
_cell_length_a       7.3354
_cell_length_b       18.14
_cell_length_c       12.0883
_cell_angle_alpha    90
_cell_angle_beta     122.898
_cell_angle_gamma    90

_symmetry_space_group_name_H-M    "P 1"
_symmetry_Int_Tables_number       1

loop_
  _symmetry_equiv_pos_as_xyz
  'x, y, z'

loop_
  _atom_site_type_symbol
  _atom_site_label
  _atom_site_symmetry_multiplicity
  _atom_site_fract_x
  _atom_site_fract_y
  _atom_site_fract_z
  _atom_site_occupancy
  _atom_site_charge
Cu  Cu1       1.0  0.35153  0.09449  0.21696  1.0000 1.040267594
Cu  Cu2       1.0  0.64847  0.59449  0.28304  1.0000 1.040267594
Cu  Cu3       1.0  0.64847  0.90551  0.78304  1.0000 1.040267594
Cu  Cu4       1.0  0.35153  0.40551  0.71696  1.0000 1.040267594
Cu  Cu5       1.0  0.88834  0.06850  0.93155  1.0000 1.1431141568
Cu  Cu6       1.0  0.11166  0.56850  0.56845  1.0000 1.1431141568
Cu  Cu7       1.0  0.11166  0.93150  0.06845  1.0000 1.1431141568
Cu  Cu8       1.0  0.88834  0.43150  0.43155  1.0000 1.1431141568
H   H1        1.0  0.38350  0.30770  0.16590  1.0000 0.1497135831
H   H2        1.0  0.61650  0.80770  0.33410  1.0000 0.1497135831
H   H3        1.0  0.61650  0.69230  0.83410  1.0000 0.1497135831
H   H4        1.0  0.38350  0.19230  0.66590  1.0000 0.1497135831
H   H5        1.0  0.85890  0.29320  0.79620  1.0000 0.1497135831
H   H6        1.0  0.14110  0.79320  0.70380  1.0000 0.1497135831
H   H7        1.0  0.14110  0.70680  0.20380  1.0000 0.1497135831
H   H8        1.0  0.85890  0.20680  0.29620  1.0000 0.1497135831
H   H9        1.0  0.15800  0.48890  0.93860  1.0000 0.1497135831
H   H10       1.0  0.84200  0.98890  0.56140  1.0000 0.1497135831
H   H11       1.0  0.84200  0.51110  0.06140  1.0000 0.1497135831
H   H12       1.0  0.15800  0.01110  0.43860  1.0000 0.1497135831
C   C1        1.0  0.98810  0.39590  0.84960  1.0000 -0.061018795
C   C2        1.0  0.01190  0.89590  0.65040  1.0000 -0.061018795
C   C3        1.0  0.01190  0.60410  0.15040  1.0000 -0.061018795
C   C4        1.0  0.98810  0.10410  0.34960  1.0000 -0.061018795
C   C5        1.0  0.29810  0.40500  0.06910  1.0000 0.002965889
C   C6        1.0  0.70190  0.90500  0.43090  1.0000 0.002965889
C   C7        1.0  0.70190  0.59500  0.93090  1.0000 0.002965889
C   C8        1.0  0.29810  0.09500  0.56910  1.0000 0.002965889
C   C9        1.0  0.28250  0.33000  0.08610  1.0000 -0.0842944498
C   C10       1.0  0.71750  0.83000  0.41390  1.0000 -0.0842944498
C   C11       1.0  0.71750  0.67000  0.91390  1.0000 -0.0842944498
C   C12       1.0  0.28250  0.17000  0.58610  1.0000 -0.0842944498
C   C13       1.0  0.11690  0.28760  0.98480  1.0000 -0.0020418937
C   C14       1.0  0.88310  0.78760  0.51520  1.0000 -0.0020418937
C   C15       1.0  0.88310  0.71240  0.01520  1.0000 -0.0020418937
C   C16       1.0  0.11690  0.21240  0.48480  1.0000 -0.0020418937
C   C17       1.0  0.10710  0.20710  0.00910  1.0000 0.6196535451
C   C18       1.0  0.89290  0.70710  0.49090  1.0000 0.6196535451
C   C19       1.0  0.89290  0.79290  0.99090  1.0000 0.6196535451
C   C20       1.0  0.10710  0.29290  0.50910  1.0000 0.6196535451
C   C21       1.0  0.96910  0.32080  0.86510  1.0000 -0.0842944498
C   C22       1.0  0.03090  0.82080  0.63490  1.0000 -0.0842944498
C   C23       1.0  0.03090  0.67920  0.13490  1.0000 -0.0842944498
C   C24       1.0  0.96910  0.17920  0.36510  1.0000 -0.0842944498
C   C25       1.0  0.14950  0.43870  0.95040  1.0000 -0.089107536
C   C26       1.0  0.85050  0.93870  0.54960  1.0000 -0.089107536
C   C27       1.0  0.85050  0.56130  0.04960  1.0000 -0.089107536
C   C28       1.0  0.14950  0.06130  0.45040  1.0000 -0.089107536
C   C29       1.0  0.48340  0.44660  0.18210  1.0000 0.6196535451
C   C30       1.0  0.51660  0.94660  0.31790  1.0000 0.6196535451
C   C31       1.0  0.51660  0.55340  0.81790  1.0000 0.6196535451
C   C32       1.0  0.48340  0.05340  0.68210  1.0000 0.6196535451
S   S1        1.0  0.81155  0.43463  0.69095  1.0000 1.1840187682
S   S2        1.0  0.18845  0.93463  0.80905  1.0000 1.1840187682
S   S3        1.0  0.18845  0.56537  0.30905  1.0000 1.1840187682
S   S4        1.0  0.81155  0.06537  0.19095  1.0000 1.1840187682
O   O1        1.0  0.96700  0.16804  0.91440  1.0000 -0.5137030559
O   O2        1.0  0.03300  0.66804  0.58560  1.0000 -0.5137030559
O   O3        1.0  0.03300  0.83196  0.08560  1.0000 -0.5137030559
O   O4        1.0  0.96700  0.33196  0.41440  1.0000 -0.5137030559
O   O5        1.0  0.18680  0.03479  0.05740  1.0000 -0.9028185534
O   O6        1.0  0.81320  0.53479  0.44260  1.0000 -0.9028185534
O   O7        1.0  0.81320  0.96521  0.94260  1.0000 -0.9028185534
O   O8        1.0  0.18680  0.46521  0.55740  1.0000 -0.9028185534
O   O9        1.0  0.50450  0.51353  0.16330  1.0000 -0.5551952647
O   O10       1.0  0.49550  0.01353  0.33670  1.0000 -0.5551952647
O   O11       1.0  0.49550  0.48647  0.83670  1.0000 -0.5551952647
O   O12       1.0  0.50450  0.98647  0.66330  1.0000 -0.5551952647
O   O13       1.0  0.24400  0.18607  0.12520  1.0000 -0.5371957945
O   O14       1.0  0.75600  0.68607  0.37480  1.0000 -0.5371957945
O   O15       1.0  0.75600  0.81393  0.87480  1.0000 -0.5371957945
O   O16       1.0  0.24400  0.31393  0.62520  1.0000 -0.5371957945
O   O17       1.0  0.83160  0.51280  0.70190  1.0000 -0.5192111658
O   O18       1.0  0.16840  0.01280  0.79810  1.0000 -0.5192111658
O   O19       1.0  0.16840  0.48720  0.29810  1.0000 -0.5192111658
O   O20       1.0  0.83160  0.98720  0.20190  1.0000 -0.5192111658
O   O21       1.0  0.60030  0.41040  0.28590  1.0000 -0.5005055296
O   O22       1.0  0.39970  0.91040  0.21410  1.0000 -0.5005055296
O   O23       1.0  0.39970  0.58960  0.71410  1.0000 -0.5005055296
O   O24       1.0  0.60030  0.08960  0.78590  1.0000 -0.5005055296
O   O25       1.0  0.88580  0.40270  0.61210  1.0000 -0.6422350334
O   O26       1.0  0.11420  0.90270  0.88790  1.0000 -0.6422350334
O   O27       1.0  0.11420  0.59730  0.38790  1.0000 -0.6422350334
O   O28       1.0  0.88580  0.09730  0.11210  1.0000 -0.6422350334
O   O29       1.0  0.59590  0.40730  0.64510  1.0000 -0.567192726
O   O30       1.0  0.40410  0.90730  0.85490  1.0000 -0.567192726
O   O31       1.0  0.40410  0.59270  0.35490  1.0000 -0.567192726
O   O32       1.0  0.59590  0.09270  0.14510  1.0000 -0.567192726
