# DDEC6 charges by PACMAN v1.1 (https://github.com/mtap-research/PACMAN-charge/)
data_2010[Co][nan]3[ASR]4
_chemical_formula_sum              "Co40 H96 C288 O192"
_cell_length_a       24.58
_cell_length_b       24.58
_cell_length_c       39.386
_cell_angle_alpha    90
_cell_angle_beta     90
_cell_angle_gamma    137.594

_symmetry_space_group_name_H-M    "P 1"
_symmetry_Int_Tables_number       1

loop_
  _symmetry_equiv_pos_as_xyz
  'x, y, z'

loop_
  _atom_site_type_symbol
  _atom_site_label
  _atom_site_symmetry_multiplicity
  _atom_site_fract_x
  _atom_site_fract_y
  _atom_site_fract_z
  _atom_site_occupancy
  _atom_site_charge
Co  Co1       1.0  0.51281  0.77183  0.81153  1.0000 1.0009852951
Co  Co2       1.0  0.48719  0.22817  0.81153  1.0000 1.0009852951
Co  Co3       1.0  0.22817  0.48719  0.18847  1.0000 1.0009852951
Co  Co4       1.0  0.77183  0.51281  0.18847  1.0000 1.0009852951
Co  Co5       1.0  0.98719  0.72817  0.68847  1.0000 1.0009852951
Co  Co6       1.0  0.01281  0.27183  0.68847  1.0000 1.0009852951
Co  Co7       1.0  0.27183  0.01281  0.31153  1.0000 1.0009852951
Co  Co8       1.0  0.72817  0.98719  0.31153  1.0000 1.0009852951
Co  Co9       1.0  0.63420  0.97332  0.82218  1.0000 1.0468022828
Co  Co10      1.0  0.36580  0.02668  0.82218  1.0000 1.0468022828
Co  Co11      1.0  0.02668  0.36580  0.17782  1.0000 1.0468022828
Co  Co12      1.0  0.97332  0.63420  0.17782  1.0000 1.0468022828
Co  Co13      1.0  0.86580  0.52668  0.67782  1.0000 1.0468022828
Co  Co14      1.0  0.13420  0.47332  0.67782  1.0000 1.0468022828
Co  Co15      1.0  0.47332  0.13420  0.32218  1.0000 1.0468022828
Co  Co16      1.0  0.52668  0.86580  0.32218  1.0000 1.0468022828
Co  Co17      1.0  0.30976  0.69024  0.00000  1.0000 1.0574054127
Co  Co18      1.0  0.69024  0.30976  0.00000  1.0000 1.0574054127
Co  Co19      1.0  0.19024  0.80976  0.50000  1.0000 1.0574054127
Co  Co20      1.0  0.80976  0.19024  0.50000  1.0000 1.0574054127
Co  Co21      1.0  0.09431  0.19509  0.87992  1.0000 1.0146594052
Co  Co22      1.0  0.90569  0.80491  0.87992  1.0000 1.0146594052
Co  Co23      1.0  0.80491  0.90569  0.12008  1.0000 1.0146594052
Co  Co24      1.0  0.19509  0.09431  0.12008  1.0000 1.0146594052
Co  Co25      1.0  0.40569  0.30491  0.62008  1.0000 1.0146594052
Co  Co26      1.0  0.59431  0.69509  0.62008  1.0000 1.0146594052
Co  Co27      1.0  0.69509  0.59431  0.37992  1.0000 1.0146594052
Co  Co28      1.0  0.30491  0.40569  0.37992  1.0000 1.0146594052
Co  Co29      1.0  0.22150  0.77850  0.00000  1.0000 1.0882122819
Co  Co30      1.0  0.77850  0.22150  0.00000  1.0000 1.0882122819
Co  Co31      1.0  0.27850  0.72150  0.50000  1.0000 1.0882122819
Co  Co32      1.0  0.72150  0.27850  0.50000  1.0000 1.0882122819
Co  Co33      1.0  0.28137  0.35973  0.90626  1.0000 1.0009852951
Co  Co34      1.0  0.71863  0.64027  0.90626  1.0000 1.0009852951
Co  Co35      1.0  0.64027  0.71863  0.09374  1.0000 1.0009852951
Co  Co36      1.0  0.35973  0.28137  0.09374  1.0000 1.0009852951
Co  Co37      1.0  0.21863  0.14027  0.59374  1.0000 1.0009852951
Co  Co38      1.0  0.78137  0.85973  0.59374  1.0000 1.0009852951
Co  Co39      1.0  0.85973  0.78137  0.40626  1.0000 1.0009852951
Co  Co40      1.0  0.14027  0.21863  0.40626  1.0000 1.0009852951
H   H1        1.0  0.38130  0.75790  0.90720  1.0000 0.1386092738
H   H2        1.0  0.61870  0.24210  0.90720  1.0000 0.1386092738
H   H3        1.0  0.24210  0.61870  0.09280  1.0000 0.1386092738
H   H4        1.0  0.75790  0.38130  0.09280  1.0000 0.1386092738
H   H5        1.0  0.11870  0.74210  0.59280  1.0000 0.1386092738
H   H6        1.0  0.88130  0.25790  0.59280  1.0000 0.1386092738
H   H7        1.0  0.25790  0.88130  0.40720  1.0000 0.1386092738
H   H8        1.0  0.74210  0.11870  0.40720  1.0000 0.1386092738
H   H9        1.0  0.44840  0.90340  0.82960  1.0000 0.1386092738
H   H10       1.0  0.55160  0.09660  0.82960  1.0000 0.1386092738
H   H11       1.0  0.09660  0.55160  0.17040  1.0000 0.1386092738
H   H12       1.0  0.90340  0.44840  0.17040  1.0000 0.1386092738
H   H13       1.0  0.05160  0.59660  0.67040  1.0000 0.1386092738
H   H14       1.0  0.94840  0.40340  0.67040  1.0000 0.1386092738
H   H15       1.0  0.40340  0.94840  0.32960  1.0000 0.1386092738
H   H16       1.0  0.59660  0.05160  0.32960  1.0000 0.1386092738
H   H17       1.0  0.81840  0.01400  0.86600  1.0000 0.1386092738
H   H18       1.0  0.18160  0.98600  0.86600  1.0000 0.1386092738
H   H19       1.0  0.98600  0.18160  0.13400  1.0000 0.1386092738
H   H20       1.0  0.01400  0.81840  0.13400  1.0000 0.1386092738
H   H21       1.0  0.68160  0.48600  0.63400  1.0000 0.1386092738
H   H22       1.0  0.31840  0.51400  0.63400  1.0000 0.1386092738
H   H23       1.0  0.51400  0.31840  0.36600  1.0000 0.1386092738
H   H24       1.0  0.48600  0.68160  0.36600  1.0000 0.1386092738
H   H25       1.0  0.26470  0.54510  0.75440  1.0000 0.1386092738
H   H26       1.0  0.73530  0.45490  0.75440  1.0000 0.1386092738
H   H27       1.0  0.45490  0.73530  0.24560  1.0000 0.1386092738
H   H28       1.0  0.54510  0.26470  0.24560  1.0000 0.1386092738
H   H29       1.0  0.23530  0.95490  0.74560  1.0000 0.1386092738
H   H30       1.0  0.76470  0.04510  0.74560  1.0000 0.1386092738
H   H31       1.0  0.04510  0.76470  0.25440  1.0000 0.1386092738
H   H32       1.0  0.95490  0.23530  0.25440  1.0000 0.1386092738
H   H33       1.0  0.32870  0.87830  0.90910  1.0000 0.1386092738
H   H34       1.0  0.67130  0.12170  0.90910  1.0000 0.1386092738
H   H35       1.0  0.12170  0.67130  0.09090  1.0000 0.1386092738
H   H36       1.0  0.87830  0.32870  0.09090  1.0000 0.1386092738
H   H37       1.0  0.17130  0.62170  0.59090  1.0000 0.1386092738
H   H38       1.0  0.82870  0.37830  0.59090  1.0000 0.1386092738
H   H39       1.0  0.37830  0.82870  0.40910  1.0000 0.1386092738
H   H40       1.0  0.62170  0.17130  0.40910  1.0000 0.1386092738
H   H41       1.0  0.12730  0.32130  0.79030  1.0000 0.1386092738
H   H42       1.0  0.87270  0.67870  0.79030  1.0000 0.1386092738
H   H43       1.0  0.67870  0.87270  0.20970  1.0000 0.1386092738
H   H44       1.0  0.32130  0.12730  0.20970  1.0000 0.1386092738
H   H45       1.0  0.37270  0.17870  0.70970  1.0000 0.1386092738
H   H46       1.0  0.62730  0.82130  0.70970  1.0000 0.1386092738
H   H47       1.0  0.82130  0.62730  0.29030  1.0000 0.1386092738
H   H48       1.0  0.17870  0.37270  0.29030  1.0000 0.1386092738
H   H49       1.0  0.88970  0.91970  0.89970  1.0000 0.1312396047
H   H50       1.0  0.11030  0.08030  0.89970  1.0000 0.1312396047
H   H51       1.0  0.08030  0.11030  0.10030  1.0000 0.1312396047
H   H52       1.0  0.91970  0.88970  0.10030  1.0000 0.1312396047
H   H53       1.0  0.61030  0.58030  0.60030  1.0000 0.1312396047
H   H54       1.0  0.38970  0.41970  0.60030  1.0000 0.1312396047
H   H55       1.0  0.41970  0.38970  0.39970  1.0000 0.1312396047
H   H56       1.0  0.58030  0.61030  0.39970  1.0000 0.1312396047
H   H57       1.0  0.99060  0.24520  0.94040  1.0000 0.1386092738
H   H58       1.0  0.00940  0.75480  0.94040  1.0000 0.1386092738
H   H59       1.0  0.75480  0.00940  0.05960  1.0000 0.1386092738
H   H60       1.0  0.24520  0.99060  0.05960  1.0000 0.1386092738
H   H61       1.0  0.50940  0.25480  0.55960  1.0000 0.1386092738
H   H62       1.0  0.49060  0.74520  0.55960  1.0000 0.1386092738
H   H63       1.0  0.74520  0.49060  0.44040  1.0000 0.1386092738
H   H64       1.0  0.25480  0.50940  0.44040  1.0000 0.1386092738
H   H65       1.0  0.34470  0.50910  0.83070  1.0000 0.1386092738
H   H66       1.0  0.65530  0.49090  0.83070  1.0000 0.1386092738
H   H67       1.0  0.49090  0.65530  0.16930  1.0000 0.1386092738
H   H68       1.0  0.50910  0.34470  0.16930  1.0000 0.1386092738
H   H69       1.0  0.15530  0.99090  0.66930  1.0000 0.1386092738
H   H70       1.0  0.84470  0.00910  0.66930  1.0000 0.1386092738
H   H71       1.0  0.00910  0.84470  0.33070  1.0000 0.1386092738
H   H72       1.0  0.99090  0.15530  0.33070  1.0000 0.1386092738
H   H73       1.0  0.03830  0.41770  0.99180  1.0000 0.1386092738
H   H74       1.0  0.96170  0.58230  0.99180  1.0000 0.1386092738
H   H75       1.0  0.58230  0.96170  0.00820  1.0000 0.1386092738
H   H76       1.0  0.41770  0.03830  0.00820  1.0000 0.1386092738
H   H77       1.0  0.46170  0.08230  0.50820  1.0000 0.1386092738
H   H78       1.0  0.53830  0.91770  0.50820  1.0000 0.1386092738
H   H79       1.0  0.91770  0.53830  0.49180  1.0000 0.1386092738
H   H80       1.0  0.08230  0.46170  0.49180  1.0000 0.1386092738
H   H81       1.0  0.66010  0.77430  0.87060  1.0000 0.1312396047
H   H82       1.0  0.33990  0.22570  0.87060  1.0000 0.1312396047
H   H83       1.0  0.22570  0.33990  0.12940  1.0000 0.1312396047
H   H84       1.0  0.77430  0.66010  0.12940  1.0000 0.1312396047
H   H85       1.0  0.83990  0.72570  0.62940  1.0000 0.1312396047
H   H86       1.0  0.16010  0.27430  0.62940  1.0000 0.1312396047
H   H87       1.0  0.27430  0.16010  0.37060  1.0000 0.1312396047
H   H88       1.0  0.72570  0.83990  0.37060  1.0000 0.1312396047
H   H89       1.0  0.22100  0.46120  0.95660  1.0000 0.1312396047
H   H90       1.0  0.77900  0.53880  0.95660  1.0000 0.1312396047
H   H91       1.0  0.53880  0.77900  0.04340  1.0000 0.1312396047
H   H92       1.0  0.46120  0.22100  0.04340  1.0000 0.1312396047
H   H93       1.0  0.27900  0.03880  0.54340  1.0000 0.1312396047
H   H94       1.0  0.72100  0.96120  0.54340  1.0000 0.1312396047
H   H95       1.0  0.96120  0.72100  0.45660  1.0000 0.1312396047
H   H96       1.0  0.03880  0.27900  0.45660  1.0000 0.1312396047
C   C1        1.0  0.39268  0.63032  0.79550  1.0000 0.5486971815
C   C2        1.0  0.60732  0.36968  0.79550  1.0000 0.5486971815
C   C3        1.0  0.36968  0.60732  0.20450  1.0000 0.5486971815
C   C4        1.0  0.63032  0.39268  0.20450  1.0000 0.5486971815
C   C5        1.0  0.10732  0.86968  0.70450  1.0000 0.5486971815
C   C6        1.0  0.89268  0.13032  0.70450  1.0000 0.5486971815
C   C7        1.0  0.13032  0.89268  0.29550  1.0000 0.5486971815
C   C8        1.0  0.86968  0.10732  0.29550  1.0000 0.5486971815
C   C9        1.0  0.46020  0.80880  0.84864  1.0000 0.5705576171
C   C10       1.0  0.53980  0.19120  0.84864  1.0000 0.5705576171
C   C11       1.0  0.19120  0.53980  0.15136  1.0000 0.5705576171
C   C12       1.0  0.80880  0.46020  0.15136  1.0000 0.5705576171
C   C13       1.0  0.03980  0.69120  0.65136  1.0000 0.5705576171
C   C14       1.0  0.96020  0.30880  0.65136  1.0000 0.5705576171
C   C15       1.0  0.30880  0.96020  0.34864  1.0000 0.5705576171
C   C16       1.0  0.69120  0.03980  0.34864  1.0000 0.5705576171
C   C17       1.0  0.38415  0.79425  0.89726  1.0000 -0.0880991352
C   C18       1.0  0.61585  0.20575  0.89726  1.0000 -0.0880991352
C   C19       1.0  0.20575  0.61585  0.10274  1.0000 -0.0880991352
C   C20       1.0  0.79425  0.38415  0.10274  1.0000 -0.0880991352
C   C21       1.0  0.11585  0.70575  0.60274  1.0000 -0.0880991352
C   C22       1.0  0.88415  0.29425  0.60274  1.0000 -0.0880991352
C   C23       1.0  0.29425  0.88415  0.39726  1.0000 -0.0880991352
C   C24       1.0  0.70575  0.11585  0.39726  1.0000 -0.0880991352
C   C25       1.0  0.42391  0.88109  0.85072  1.0000 -0.1063035312
C   C26       1.0  0.57609  0.11891  0.85072  1.0000 -0.1063035312
C   C27       1.0  0.11891  0.57609  0.14928  1.0000 -0.1063035312
C   C28       1.0  0.88109  0.42391  0.14928  1.0000 -0.1063035312
C   C29       1.0  0.07609  0.61891  0.64928  1.0000 -0.1063035312
C   C30       1.0  0.92391  0.38109  0.64928  1.0000 -0.1063035312
C   C31       1.0  0.38109  0.92391  0.35072  1.0000 -0.1063035312
C   C32       1.0  0.61891  0.07609  0.35072  1.0000 -0.1063035312
C   C33       1.0  0.18617  0.42743  0.76768  1.0000 -0.02134411
C   C34       1.0  0.81383  0.57257  0.76768  1.0000 -0.02134411
C   C35       1.0  0.57257  0.81383  0.23232  1.0000 -0.02134411
C   C36       1.0  0.42743  0.18617  0.23232  1.0000 -0.02134411
C   C37       1.0  0.31383  0.07257  0.73232  1.0000 -0.02134411
C   C38       1.0  0.68617  0.92743  0.73232  1.0000 -0.02134411
C   C39       1.0  0.92743  0.68617  0.26768  1.0000 -0.02134411
C   C40       1.0  0.07257  0.31383  0.26768  1.0000 -0.02134411
C   C41       1.0  0.38555  0.95145  0.84943  1.0000 0.5486971815
C   C42       1.0  0.61445  0.04855  0.84943  1.0000 0.5486971815
C   C43       1.0  0.04855  0.61445  0.15057  1.0000 0.5486971815
C   C44       1.0  0.95145  0.38555  0.15057  1.0000 0.5486971815
C   C45       1.0  0.11445  0.54855  0.65057  1.0000 0.5486971815
C   C46       1.0  0.88555  0.45145  0.65057  1.0000 0.5486971815
C   C47       1.0  0.45145  0.88555  0.34943  1.0000 0.5486971815
C   C48       1.0  0.54855  0.11445  0.34943  1.0000 0.5486971815
C   C49       1.0  0.77100  0.83500  0.88642  1.0000 -0.0301343514
C   C50       1.0  0.22900  0.16500  0.88642  1.0000 -0.0301343514
C   C51       1.0  0.16500  0.22900  0.11358  1.0000 -0.0301343514
C   C52       1.0  0.83500  0.77100  0.11358  1.0000 -0.0301343514
C   C53       1.0  0.72900  0.66500  0.61358  1.0000 -0.0301343514
C   C54       1.0  0.27100  0.33500  0.61358  1.0000 -0.0301343514
C   C55       1.0  0.33500  0.27100  0.38642  1.0000 -0.0301343514
C   C56       1.0  0.66500  0.72900  0.38642  1.0000 -0.0301343514
C   C57       1.0  0.80669  0.96931  0.87108  1.0000 -0.0813083923
C   C58       1.0  0.19331  0.03069  0.87108  1.0000 -0.0813083923
C   C59       1.0  0.03069  0.19331  0.12892  1.0000 -0.0813083923
C   C60       1.0  0.96931  0.80669  0.12892  1.0000 -0.0813083923
C   C61       1.0  0.69331  0.53069  0.62892  1.0000 -0.0813083923
C   C62       1.0  0.30669  0.46931  0.62892  1.0000 -0.0813083923
C   C63       1.0  0.46931  0.30669  0.37108  1.0000 -0.0813083923
C   C64       1.0  0.53069  0.69331  0.37108  1.0000 -0.0813083923
C   C65       1.0  0.72869  0.89191  0.86614  1.0000 -0.0301343514
C   C66       1.0  0.27131  0.10809  0.86614  1.0000 -0.0301343514
C   C67       1.0  0.10809  0.27131  0.13386  1.0000 -0.0301343514
C   C68       1.0  0.89191  0.72869  0.13386  1.0000 -0.0301343514
C   C69       1.0  0.77131  0.60809  0.63386  1.0000 -0.0301343514
C   C70       1.0  0.22869  0.39191  0.63386  1.0000 -0.0301343514
C   C71       1.0  0.39191  0.22869  0.36614  1.0000 -0.0301343514
C   C72       1.0  0.60809  0.77131  0.36614  1.0000 -0.0301343514
C   C73       1.0  0.95122  0.06218  0.88540  1.0000 0.5486971815
C   C74       1.0  0.04878  0.93782  0.88540  1.0000 0.5486971815
C   C75       1.0  0.93782  0.04878  0.11460  1.0000 0.5486971815
C   C76       1.0  0.06218  0.95122  0.11460  1.0000 0.5486971815
C   C77       1.0  0.54878  0.43782  0.61460  1.0000 0.5486971815
C   C78       1.0  0.45122  0.56218  0.61460  1.0000 0.5486971815
C   C79       1.0  0.56218  0.45122  0.38540  1.0000 0.5486971815
C   C80       1.0  0.43782  0.54878  0.38540  1.0000 0.5486971815
C   C81       1.0  0.25724  0.51056  0.76919  1.0000 -0.0880991352
C   C82       1.0  0.74276  0.48944  0.76919  1.0000 -0.0880991352
C   C83       1.0  0.48944  0.74276  0.23081  1.0000 -0.0880991352
C   C84       1.0  0.51056  0.25724  0.23081  1.0000 -0.0880991352
C   C85       1.0  0.24276  0.98944  0.73081  1.0000 -0.0880991352
C   C86       1.0  0.75724  0.01056  0.73081  1.0000 -0.0880991352
C   C87       1.0  0.01056  0.75724  0.26919  1.0000 -0.0880991352
C   C88       1.0  0.98944  0.24276  0.26919  1.0000 -0.0880991352
C   C89       1.0  0.19858  0.54042  0.98692  1.0000 0.5414835443
C   C90       1.0  0.80142  0.45958  0.98692  1.0000 0.5414835443
C   C91       1.0  0.45958  0.80142  0.01308  1.0000 0.5414835443
C   C92       1.0  0.54042  0.19858  0.01308  1.0000 0.5414835443
C   C93       1.0  0.30142  0.95958  0.51308  1.0000 0.5414835443
C   C94       1.0  0.69858  0.04042  0.51308  1.0000 0.5414835443
C   C95       1.0  0.04042  0.69858  0.48692  1.0000 0.5414835443
C   C96       1.0  0.95958  0.30142  0.48692  1.0000 0.5414835443
C   C97       1.0  0.75016  0.76184  0.89312  1.0000 0.5906695356
C   C98       1.0  0.24984  0.23816  0.89312  1.0000 0.5906695356
C   C99       1.0  0.23816  0.24984  0.10688  1.0000 0.5906695356
C   C100      1.0  0.76184  0.75016  0.10688  1.0000 0.5906695356
C   C101      1.0  0.74984  0.73816  0.60688  1.0000 0.5906695356
C   C102      1.0  0.25016  0.26184  0.60688  1.0000 0.5906695356
C   C103      1.0  0.26184  0.25016  0.39312  1.0000 0.5906695356
C   C104      1.0  0.73816  0.74984  0.39312  1.0000 0.5906695356
C   C105      1.0  0.35148  0.86532  0.89822  1.0000 -0.0993256266
C   C106      1.0  0.64852  0.13468  0.89822  1.0000 -0.0993256266
C   C107      1.0  0.13468  0.64852  0.10178  1.0000 -0.0993256266
C   C108      1.0  0.86532  0.35148  0.10178  1.0000 -0.0993256266
C   C109      1.0  0.14852  0.63468  0.60178  1.0000 -0.0993256266
C   C110      1.0  0.85148  0.36532  0.60178  1.0000 -0.0993256266
C   C111      1.0  0.36532  0.85148  0.39822  1.0000 -0.0993256266
C   C112      1.0  0.63468  0.14852  0.39822  1.0000 -0.0993256266
C   C113      1.0  0.17446  0.37654  0.79100  1.0000 -0.0813083923
C   C114      1.0  0.82554  0.62346  0.79100  1.0000 -0.0813083923
C   C115      1.0  0.62346  0.82554  0.20900  1.0000 -0.0813083923
C   C116      1.0  0.37654  0.17446  0.20900  1.0000 -0.0813083923
C   C117      1.0  0.32554  0.12346  0.70900  1.0000 -0.0813083923
C   C118      1.0  0.67446  0.87654  0.70900  1.0000 -0.0813083923
C   C119      1.0  0.87654  0.67446  0.29100  1.0000 -0.0813083923
C   C120      1.0  0.12346  0.32554  0.29100  1.0000 -0.0813083923
C   C121      1.0  0.42311  0.82949  0.86660  1.0000 0.0088060889
C   C122      1.0  0.57689  0.17051  0.86660  1.0000 0.0088060889
C   C123      1.0  0.17051  0.57689  0.13340  1.0000 0.0088060889
C   C124      1.0  0.82949  0.42311  0.13340  1.0000 0.0088060889
C   C125      1.0  0.07689  0.67051  0.63340  1.0000 0.0088060889
C   C126      1.0  0.92311  0.32949  0.63340  1.0000 0.0088060889
C   C127      1.0  0.32949  0.92311  0.36660  1.0000 0.0088060889
C   C128      1.0  0.67051  0.07689  0.36660  1.0000 0.0088060889
C   C129      1.0  0.30680  0.77480  0.94732  1.0000 0.6009573122
C   C130      1.0  0.69320  0.22520  0.94732  1.0000 0.6009573122
C   C131      1.0  0.22520  0.69320  0.05268  1.0000 0.6009573122
C   C132      1.0  0.77480  0.30680  0.05268  1.0000 0.6009573122
C   C133      1.0  0.19320  0.72520  0.55268  1.0000 0.6009573122
C   C134      1.0  0.80680  0.27480  0.55268  1.0000 0.6009573122
C   C135      1.0  0.27480  0.80680  0.44732  1.0000 0.6009573122
C   C136      1.0  0.72520  0.19320  0.44732  1.0000 0.6009573122
C   C137      1.0  0.31711  0.54189  0.79287  1.0000 -0.02134411
C   C138      1.0  0.68289  0.45811  0.79287  1.0000 -0.02134411
C   C139      1.0  0.45811  0.68289  0.20713  1.0000 -0.02134411
C   C140      1.0  0.54189  0.31711  0.20713  1.0000 -0.02134411
C   C141      1.0  0.18289  0.95811  0.70713  1.0000 -0.02134411
C   C142      1.0  0.81711  0.04189  0.70713  1.0000 -0.02134411
C   C143      1.0  0.04189  0.81711  0.29287  1.0000 -0.02134411
C   C144      1.0  0.95811  0.18289  0.29287  1.0000 -0.02134411
C   C145      1.0  0.34933  0.81287  0.91347  1.0000 -0.0028633235
C   C146      1.0  0.65067  0.18713  0.91347  1.0000 -0.0028633235
C   C147      1.0  0.18713  0.65067  0.08653  1.0000 -0.0028633235
C   C148      1.0  0.81287  0.34933  0.08653  1.0000 -0.0028633235
C   C149      1.0  0.15067  0.68713  0.58653  1.0000 -0.0028633235
C   C150      1.0  0.84933  0.31287  0.58653  1.0000 -0.0028633235
C   C151      1.0  0.31287  0.84933  0.41347  1.0000 -0.0028633235
C   C152      1.0  0.68713  0.15067  0.41347  1.0000 -0.0028633235
C   C153      1.0  0.38799  0.89861  0.86660  1.0000 -0.0082620683
C   C154      1.0  0.61201  0.10139  0.86660  1.0000 -0.0082620683
C   C155      1.0  0.10139  0.61201  0.13340  1.0000 -0.0082620683
C   C156      1.0  0.89861  0.38799  0.13340  1.0000 -0.0082620683
C   C157      1.0  0.11201  0.60139  0.63340  1.0000 -0.0082620683
C   C158      1.0  0.88799  0.39861  0.63340  1.0000 -0.0082620683
C   C159      1.0  0.39861  0.88799  0.36660  1.0000 -0.0082620683
C   C160      1.0  0.60139  0.11201  0.36660  1.0000 -0.0082620683
C   C161      1.0  0.84969  0.91291  0.89136  1.0000 -0.0880991352
C   C162      1.0  0.15031  0.08709  0.89136  1.0000 -0.0880991352
C   C163      1.0  0.08709  0.15031  0.10864  1.0000 -0.0880991352
C   C164      1.0  0.91291  0.84969  0.10864  1.0000 -0.0880991352
C   C165      1.0  0.65031  0.58709  0.60864  1.0000 -0.0880991352
C   C166      1.0  0.34969  0.41291  0.60864  1.0000 -0.0880991352
C   C167      1.0  0.41291  0.34969  0.39136  1.0000 -0.0880991352
C   C168      1.0  0.58709  0.65031  0.39136  1.0000 -0.0880991352
C   C169      1.0  0.02780  0.29720  0.94927  1.0000 -0.0813083923
C   C170      1.0  0.97220  0.70280  0.94927  1.0000 -0.0813083923
C   C171      1.0  0.70280  0.97220  0.05073  1.0000 -0.0813083923
C   C172      1.0  0.29720  0.02780  0.05073  1.0000 -0.0880991352
C   C173      1.0  0.47220  0.20280  0.55073  1.0000 -0.0813083923
C   C174      1.0  0.52780  0.79720  0.55073  1.0000 -0.0880991352
C   C175      1.0  0.79720  0.52780  0.44927  1.0000 -0.0813083923
C   C176      1.0  0.20280  0.47220  0.44927  1.0000 -0.0813083923
C   C177      1.0  0.23281  0.40819  0.81518  1.0000 -0.02134411
C   C178      1.0  0.76719  0.59181  0.81518  1.0000 -0.02134411
C   C179      1.0  0.59181  0.76719  0.18482  1.0000 -0.02134411
C   C180      1.0  0.40819  0.23281  0.18482  1.0000 -0.02134411
C   C181      1.0  0.26719  0.09181  0.68482  1.0000 -0.02134411
C   C182      1.0  0.73281  0.90819  0.68482  1.0000 -0.02134411
C   C183      1.0  0.90819  0.73281  0.31518  1.0000 -0.02134411
C   C184      1.0  0.09181  0.26719  0.31518  1.0000 -0.02134411
C   C185      1.0  0.30435  0.48905  0.81547  1.0000 -0.0813083923
C   C186      1.0  0.69565  0.51095  0.81547  1.0000 -0.0813083923
C   C187      1.0  0.51095  0.69565  0.18453  1.0000 -0.0813083923
C   C188      1.0  0.48905  0.30435  0.18453  1.0000 -0.0813083923
C   C189      1.0  0.19565  0.01095  0.68453  1.0000 -0.0813083923
C   C190      1.0  0.80435  0.98905  0.68453  1.0000 -0.0813083923
C   C191      1.0  0.98905  0.80435  0.31547  1.0000 -0.0813083923
C   C192      1.0  0.01095  0.19565  0.31547  1.0000 -0.0813083923
C   C193      1.0  0.21883  0.35477  0.84198  1.0000 0.6060568024
C   C194      1.0  0.78117  0.64523  0.84198  1.0000 0.6060568024
C   C195      1.0  0.64523  0.78117  0.15802  1.0000 0.6060568024
C   C196      1.0  0.35477  0.21883  0.15802  1.0000 0.6060568024
C   C197      1.0  0.28117  0.14523  0.65802  1.0000 0.6060568024
C   C198      1.0  0.71883  0.85477  0.65802  1.0000 0.6060568024
C   C199      1.0  0.85477  0.71883  0.34198  1.0000 0.6060568024
C   C200      1.0  0.14523  0.28117  0.34198  1.0000 0.6060568024
C   C201      1.0  0.12709  0.39551  0.73982  1.0000 0.6009573122
C   C202      1.0  0.87291  0.60449  0.73982  1.0000 0.6009573122
C   C203      1.0  0.60449  0.87291  0.26018  1.0000 0.6009573122
C   C204      1.0  0.39551  0.12709  0.26018  1.0000 0.6009573122
C   C205      1.0  0.37291  0.10449  0.76018  1.0000 0.6009573122
C   C206      1.0  0.62709  0.89551  0.76018  1.0000 0.6009573122
C   C207      1.0  0.89551  0.62709  0.23982  1.0000 0.6009573122
C   C208      1.0  0.10449  0.37291  0.23982  1.0000 0.6009573122
C   C209      1.0  0.05624  0.40076  0.97965  1.0000 -0.0813083923
C   C210      1.0  0.94376  0.59924  0.97965  1.0000 -0.0813083923
C   C211      1.0  0.59924  0.94376  0.02035  1.0000 -0.0813083923
C   C212      1.0  0.40076  0.05624  0.02035  1.0000 -0.0813083923
C   C213      1.0  0.44376  0.09924  0.52035  1.0000 -0.0813083923
C   C214      1.0  0.55624  0.90076  0.52035  1.0000 -0.0813083923
C   C215      1.0  0.90076  0.55624  0.47965  1.0000 -0.0813083923
C   C216      1.0  0.09924  0.44376  0.47965  1.0000 -0.0813083923
C   C217      1.0  0.86732  0.98028  0.88359  1.0000 -0.0301343514
C   C218      1.0  0.13268  0.01972  0.88359  1.0000 -0.0301343514
C   C219      1.0  0.01972  0.13268  0.11641  1.0000 -0.0301343514
C   C220      1.0  0.98028  0.86732  0.11641  1.0000 -0.0301343514
C   C221      1.0  0.63268  0.51972  0.61641  1.0000 -0.0301343514
C   C222      1.0  0.36732  0.48028  0.61641  1.0000 -0.0301343514
C   C223      1.0  0.48028  0.36732  0.38359  1.0000 -0.0301343514
C   C224      1.0  0.51972  0.63268  0.38359  1.0000 -0.0301343514
C   C225      1.0  0.71207  0.82593  0.87390  1.0000 -0.0813083923
C   C226      1.0  0.28793  0.17407  0.87390  1.0000 -0.0813083923
C   C227      1.0  0.17407  0.28793  0.12610  1.0000 -0.0813083923
C   C228      1.0  0.82593  0.71207  0.12610  1.0000 -0.0813083923
C   C229      1.0  0.78793  0.67407  0.62610  1.0000 -0.0813083923
C   C230      1.0  0.21207  0.32593  0.62610  1.0000 -0.0813083923
C   C231      1.0  0.32593  0.21207  0.37390  1.0000 -0.0813083923
C   C232      1.0  0.67407  0.78793  0.37390  1.0000 -0.0813083923
C   C233      1.0  0.66624  0.88156  0.85045  1.0000 0.6060568024
C   C234      1.0  0.33376  0.11844  0.85045  1.0000 0.6060568024
C   C235      1.0  0.11844  0.33376  0.14955  1.0000 0.6060568024
C   C236      1.0  0.88156  0.66624  0.14955  1.0000 0.6060568024
C   C237      1.0  0.83376  0.61844  0.64955  1.0000 0.6060568024
C   C238      1.0  0.16624  0.38156  0.64955  1.0000 0.6060568024
C   C239      1.0  0.38156  0.16624  0.35045  1.0000 0.6060568024
C   C240      1.0  0.61844  0.83376  0.35045  1.0000 0.6060568024
C   C241      1.0  0.16592  0.42708  0.95870  1.0000 -0.0880991352
C   C242      1.0  0.83408  0.57292  0.95870  1.0000 -0.0880991352
C   C243      1.0  0.57292  0.83408  0.04130  1.0000 -0.0880991352
C   C244      1.0  0.42708  0.16592  0.04130  1.0000 -0.0880991352
C   C245      1.0  0.33408  0.07292  0.54130  1.0000 -0.0880991352
C   C246      1.0  0.66592  0.92708  0.54130  1.0000 -0.0880991352
C   C247      1.0  0.92708  0.66592  0.45870  1.0000 -0.0880991352
C   C248      1.0  0.07292  0.33408  0.45870  1.0000 -0.0880991352
C   C249      1.0  0.14043  0.32117  0.92692  1.0000 0.6009573122
C   C250      1.0  0.85957  0.67883  0.92692  1.0000 0.6009573122
C   C251      1.0  0.67883  0.85957  0.07308  1.0000 0.6009573122
C   C252      1.0  0.32117  0.14043  0.07308  1.0000 0.6009573122
C   C253      1.0  0.35957  0.17883  0.57308  1.0000 0.6009573122
C   C254      1.0  0.64043  0.82117  0.57308  1.0000 0.6009573122
C   C255      1.0  0.82117  0.64043  0.42692  1.0000 0.6009573122
C   C256      1.0  0.17883  0.35957  0.42692  1.0000 0.6009573122
C   C257      1.0  0.10976  0.34804  0.94526  1.0000 -0.0301343514
C   C258      1.0  0.89024  0.65196  0.94526  1.0000 -0.0301343514
C   C259      1.0  0.65196  0.89024  0.05474  1.0000 -0.0301343514
C   C260      1.0  0.34804  0.10976  0.05474  1.0000 -0.0301343514
C   C261      1.0  0.39024  0.15196  0.55474  1.0000 -0.0301343514
C   C262      1.0  0.60976  0.84804  0.55474  1.0000 -0.0301343514
C   C263      1.0  0.84804  0.60976  0.44526  1.0000 -0.0301343514
C   C264      1.0  0.15196  0.39024  0.44526  1.0000 -0.0301343514
C   C265      1.0  0.00017  0.32323  0.96646  1.0000 -0.02134411
C   C266      1.0  0.99983  0.67677  0.96646  1.0000 -0.02134411
C   C267      1.0  0.67677  0.99983  0.03354  1.0000 -0.02134411
C   C268      1.0  0.32323  0.00017  0.03354  1.0000 -0.02134411
C   C269      1.0  0.49983  0.17677  0.53354  1.0000 -0.02134411
C   C270      1.0  0.50017  0.82323  0.53354  1.0000 -0.02134411
C   C271      1.0  0.82323  0.50017  0.46646  1.0000 -0.02134411
C   C272      1.0  0.17677  0.49983  0.46646  1.0000 -0.02134411
C   C273      1.0  0.91105  0.26775  0.97016  1.0000 0.5486971815
C   C274      1.0  0.08895  0.73225  0.97016  1.0000 0.5486971815
C   C275      1.0  0.73225  0.08895  0.02984  1.0000 0.5486971815
C   C276      1.0  0.26775  0.91105  0.02984  1.0000 0.5486971815
C   C277      1.0  0.58895  0.23225  0.52984  1.0000 0.5486971815
C   C278      1.0  0.41105  0.76775  0.52984  1.0000 0.5486971815
C   C279      1.0  0.76775  0.41105  0.47016  1.0000 0.5486971815
C   C280      1.0  0.23225  0.58895  0.47016  1.0000 0.5486971815
C   C281      1.0  0.13869  0.45371  0.97508  1.0000 -0.0082620683
C   C282      1.0  0.86131  0.54629  0.97508  1.0000 -0.0082620683
C   C283      1.0  0.54629  0.86131  0.02492  1.0000 -0.0082620683
C   C284      1.0  0.45371  0.13869  0.02492  1.0000 -0.0082620683
C   C285      1.0  0.36131  0.04629  0.52492  1.0000 -0.0082620683
C   C286      1.0  0.63869  0.95371  0.52492  1.0000 -0.0082620683
C   C287      1.0  0.95371  0.63869  0.47508  1.0000 -0.0082620683
C   C288      1.0  0.04629  0.36131  0.47508  1.0000 -0.0082620683
O   O1        1.0  0.68294  0.94320  0.84532  1.0000 -0.5636596228
O   O2        1.0  0.31706  0.05680  0.84532  1.0000 -0.5636596228
O   O3        1.0  0.05680  0.31706  0.15468  1.0000 -0.5636596228
O   O4        1.0  0.94320  0.68294  0.15468  1.0000 -0.5636596228
O   O5        1.0  0.81706  0.55680  0.65468  1.0000 -0.5636596228
O   O6        1.0  0.18294  0.44320  0.65468  1.0000 -0.5636596228
O   O7        1.0  0.44320  0.18294  0.34532  1.0000 -0.5636596228
O   O8        1.0  0.55680  0.81706  0.34532  1.0000 -0.5636596228
O   O9        1.0  0.60119  0.81107  0.84257  1.0000 -0.5210797742
O   O10       1.0  0.39881  0.18893  0.84257  1.0000 -0.5210797742
O   O11       1.0  0.18893  0.39881  0.15743  1.0000 -0.5210797742
O   O12       1.0  0.81107  0.60119  0.15743  1.0000 -0.5210797742
O   O13       1.0  0.89881  0.68893  0.65743  1.0000 -0.5210797742
O   O14       1.0  0.10119  0.31107  0.65743  1.0000 -0.5210797742
O   O15       1.0  0.31107  0.10119  0.34257  1.0000 -0.5210797742
O   O16       1.0  0.68893  0.89881  0.34257  1.0000 -0.5210797742
O   O17       1.0  0.67889  0.69311  0.89145  1.0000 -0.5139768417
O   O18       1.0  0.32111  0.30689  0.89145  1.0000 -0.5139768417
O   O19       1.0  0.30689  0.32111  0.10855  1.0000 -0.5139768417
O   O20       1.0  0.69311  0.67889  0.10855  1.0000 -0.5139768417
O   O21       1.0  0.82111  0.80689  0.60855  1.0000 -0.5139768417
O   O22       1.0  0.17889  0.19311  0.60855  1.0000 -0.5139768417
O   O23       1.0  0.19311  0.17889  0.39145  1.0000 -0.5139768417
O   O24       1.0  0.80689  0.82111  0.39145  1.0000 -0.5139768417
O   O25       1.0  0.80542  0.76818  0.90154  1.0000 -0.6205276544
O   O26       1.0  0.19458  0.23182  0.90154  1.0000 -0.6205276544
O   O27       1.0  0.23182  0.19458  0.09846  1.0000 -0.6205276544
O   O28       1.0  0.76818  0.80542  0.09846  1.0000 -0.6205276544
O   O29       1.0  0.69458  0.73182  0.59846  1.0000 -0.6205276544
O   O30       1.0  0.30542  0.26818  0.59846  1.0000 -0.6205276544
O   O31       1.0  0.26818  0.30542  0.40154  1.0000 -0.6205276544
O   O32       1.0  0.73182  0.69458  0.40154  1.0000 -0.6205276544
O   O33       1.0  0.97100  0.11810  0.86792  1.0000 -0.5210797742
O   O34       1.0  0.02900  0.88190  0.86792  1.0000 -0.5210797742
O   O35       1.0  0.88190  0.02900  0.13208  1.0000 -0.5210797742
O   O36       1.0  0.11810  0.97100  0.13208  1.0000 -0.5210797742
O   O37       1.0  0.52900  0.38190  0.63208  1.0000 -0.5210797742
O   O38       1.0  0.47100  0.61810  0.63208  1.0000 -0.5210797742
O   O39       1.0  0.61810  0.47100  0.36792  1.0000 -0.5210797742
O   O40       1.0  0.38190  0.52900  0.36792  1.0000 -0.5210797742
O   O41       1.0  0.00388  0.07612  0.90303  1.0000 -0.5210797742
O   O42       1.0  0.99612  0.92388  0.90303  1.0000 -0.5210797742
O   O43       1.0  0.92388  0.99612  0.09697  1.0000 -0.5210797742
O   O44       1.0  0.07612  0.00388  0.09697  1.0000 -0.5210797742
O   O45       1.0  0.49612  0.42388  0.59697  1.0000 -0.5210797742
O   O46       1.0  0.50388  0.57612  0.59697  1.0000 -0.5210797742
O   O47       1.0  0.57612  0.50388  0.40303  1.0000 -0.5210797742
O   O48       1.0  0.42388  0.49612  0.40303  1.0000 -0.5210797742
O   O49       1.0  0.43897  0.74643  0.85627  1.0000 -0.4682984645
O   O50       1.0  0.56103  0.25357  0.85627  1.0000 -0.4682984645
O   O51       1.0  0.25357  0.56103  0.14373  1.0000 -0.4682984645
O   O52       1.0  0.74643  0.43897  0.14373  1.0000 -0.4682984645
O   O53       1.0  0.06103  0.75357  0.64373  1.0000 -0.4682984645
O   O54       1.0  0.93897  0.24643  0.64373  1.0000 -0.4682984645
O   O55       1.0  0.24643  0.93897  0.35627  1.0000 -0.4682984645
O   O56       1.0  0.75357  0.06103  0.35627  1.0000 -0.4682984645
O   O57       1.0  0.51104  0.85470  0.82465  1.0000 -0.6052522208
O   O58       1.0  0.48896  0.14530  0.82465  1.0000 -0.6052522208
O   O59       1.0  0.14530  0.48896  0.17535  1.0000 -0.6052522208
O   O60       1.0  0.85470  0.51104  0.17535  1.0000 -0.6052522208
O   O61       1.0  0.98896  0.64530  0.67535  1.0000 -0.6052522208
O   O62       1.0  0.01104  0.35470  0.67535  1.0000 -0.6052522208
O   O63       1.0  0.35470  0.01104  0.32465  1.0000 -0.6052522208
O   O64       1.0  0.64530  0.98896  0.32465  1.0000 -0.6052522208
O   O65       1.0  0.39999  0.96607  0.81775  1.0000 -0.5210797742
O   O66       1.0  0.60001  0.03393  0.81775  1.0000 -0.5210797742
O   O67       1.0  0.03393  0.60001  0.18225  1.0000 -0.5210797742
O   O68       1.0  0.96607  0.39999  0.18225  1.0000 -0.5210797742
O   O69       1.0  0.10001  0.53393  0.68225  1.0000 -0.5210797742
O   O70       1.0  0.89999  0.46607  0.68225  1.0000 -0.5210797742
O   O71       1.0  0.46607  0.89999  0.31775  1.0000 -0.5210797742
O   O72       1.0  0.53393  0.10001  0.31775  1.0000 -0.5210797742
O   O73       1.0  0.36666  0.97902  0.86645  1.0000 -0.5210797742
O   O74       1.0  0.63334  0.02098  0.86645  1.0000 -0.5210797742
O   O75       1.0  0.02098  0.63334  0.13355  1.0000 -0.5210797742
O   O76       1.0  0.97902  0.36666  0.13355  1.0000 -0.5210797742
O   O77       1.0  0.13334  0.52098  0.63355  1.0000 -0.5210797742
O   O78       1.0  0.86666  0.47902  0.63355  1.0000 -0.5210797742
O   O79       1.0  0.47902  0.86666  0.36645  1.0000 -0.5210797742
O   O80       1.0  0.52098  0.13334  0.36645  1.0000 -0.5210797742
O   O81       1.0  0.29314  0.80726  0.96344  1.0000 -0.4998629386
O   O82       1.0  0.70686  0.19274  0.96344  1.0000 -0.4998629386
O   O83       1.0  0.19274  0.70686  0.03656  1.0000 -0.4998629386
O   O84       1.0  0.80726  0.29314  0.03656  1.0000 -0.4998629386
O   O85       1.0  0.20686  0.69274  0.53656  1.0000 -0.4998629386
O   O86       1.0  0.79314  0.30726  0.53656  1.0000 -0.4998629386
O   O87       1.0  0.30726  0.79314  0.46344  1.0000 -0.4998629386
O   O88       1.0  0.69274  0.20686  0.46344  1.0000 -0.4998629386
O   O89       1.0  0.28926  0.71434  0.95639  1.0000 -0.5300919761
O   O90       1.0  0.71074  0.28566  0.95639  1.0000 -0.5300919761
O   O91       1.0  0.28566  0.71074  0.04361  1.0000 -0.5300919761
O   O92       1.0  0.71434  0.28926  0.04361  1.0000 -0.5300919761
O   O93       1.0  0.21074  0.78566  0.54361  1.0000 -0.5300919761
O   O94       1.0  0.78926  0.21434  0.54361  1.0000 -0.5300919761
O   O95       1.0  0.21434  0.78926  0.45639  1.0000 -0.5300919761
O   O96       1.0  0.78566  0.21074  0.45639  1.0000 -0.5300919761
O   O97       1.0  0.27082  0.58678  0.98194  1.0000 -0.4435098763
O   O98       1.0  0.72918  0.41322  0.98194  1.0000 -0.4435098763
O   O99       1.0  0.41322  0.72918  0.01806  1.0000 -0.4435098763
O   O100      1.0  0.58678  0.27082  0.01806  1.0000 -0.4435098763
O   O101      1.0  0.22918  0.91322  0.51806  1.0000 -0.4435098763
O   O102      1.0  0.77082  0.08678  0.51806  1.0000 -0.4435098763
O   O103      1.0  0.08678  0.77082  0.48194  1.0000 -0.4435098763
O   O104      1.0  0.91322  0.22918  0.48194  1.0000 -0.4435098763
O   O105      1.0  0.89107  0.29653  0.98550  1.0000 -0.4602979156
O   O106      1.0  0.10893  0.70347  0.98550  1.0000 -0.4602979156
O   O107      1.0  0.70347  0.10893  0.01450  1.0000 -0.4602979156
O   O108      1.0  0.29653  0.89107  0.01450  1.0000 -0.4602979156
O   O109      1.0  0.60893  0.20347  0.51450  1.0000 -0.4602979156
O   O110      1.0  0.39107  0.79653  0.51450  1.0000 -0.4602979156
O   O111      1.0  0.79653  0.39107  0.48550  1.0000 -0.4602979156
O   O112      1.0  0.20347  0.60893  0.48550  1.0000 -0.4602979156
O   O113      1.0  0.86263  0.19977  0.95808  1.0000 -0.4115038882
O   O114      1.0  0.13737  0.80023  0.95808  1.0000 -0.4115038882
O   O115      1.0  0.80023  0.13737  0.04192  1.0000 -0.4115038882
O   O116      1.0  0.19977  0.86263  0.04192  1.0000 -0.4115038882
O   O117      1.0  0.63737  0.30023  0.54192  1.0000 -0.4115038882
O   O118      1.0  0.36263  0.69977  0.54192  1.0000 -0.4115038882
O   O119      1.0  0.69977  0.36263  0.45808  1.0000 -0.4115038882
O   O120      1.0  0.30023  0.63737  0.45808  1.0000 -0.4115038882
O   O121      1.0  0.08891  0.24797  0.91892  1.0000 -0.5300919761
O   O122      1.0  0.91109  0.75203  0.91892  1.0000 -0.5300919761
O   O123      1.0  0.75203  0.91109  0.08108  1.0000 -0.5210797742
O   O124      1.0  0.24797  0.08891  0.08108  1.0000 -0.5210797742
O   O125      1.0  0.41109  0.25203  0.58108  1.0000 -0.5300919761
O   O126      1.0  0.58891  0.74797  0.58108  1.0000 -0.5210797742
O   O127      1.0  0.74797  0.58891  0.41892  1.0000 -0.5210797742
O   O128      1.0  0.25203  0.41109  0.41892  1.0000 -0.5210797742
O   O129      1.0  0.21458  0.37442  0.92060  1.0000 -0.5666200365
O   O130      1.0  0.78542  0.62558  0.92060  1.0000 -0.5666200365
O   O131      1.0  0.62558  0.78542  0.07940  1.0000 -0.5666200365
O   O132      1.0  0.37442  0.21458  0.07940  1.0000 -0.5666200365
O   O133      1.0  0.28542  0.12558  0.57940  1.0000 -0.5666200365
O   O134      1.0  0.71458  0.87442  0.57940  1.0000 -0.5666200365
O   O135      1.0  0.87442  0.71458  0.42060  1.0000 -0.5666200365
O   O136      1.0  0.12558  0.28542  0.42060  1.0000 -0.5666200365
O   O137      1.0  0.45221  0.65447  0.81075  1.0000 -0.483727097
O   O138      1.0  0.54779  0.34553  0.81075  1.0000 -0.483727097
O   O139      1.0  0.34553  0.54779  0.18925  1.0000 -0.483727097
O   O140      1.0  0.65447  0.45221  0.18925  1.0000 -0.483727097
O   O141      1.0  0.04779  0.84553  0.68925  1.0000 -0.483727097
O   O142      1.0  0.95221  0.15447  0.68925  1.0000 -0.483727097
O   O143      1.0  0.15447  0.95221  0.31075  1.0000 -0.483727097
O   O144      1.0  0.84553  0.04779  0.31075  1.0000 -0.483727097
O   O145      1.0  0.39487  0.67941  0.78331  1.0000 -0.4945059786
O   O146      1.0  0.60513  0.32059  0.78331  1.0000 -0.4945059786
O   O147      1.0  0.32059  0.60513  0.21669  1.0000 -0.4945059786
O   O148      1.0  0.67941  0.39487  0.21669  1.0000 -0.4945059786
O   O149      1.0  0.10513  0.82059  0.71669  1.0000 -0.4945059786
O   O150      1.0  0.89487  0.17941  0.71669  1.0000 -0.4945059786
O   O151      1.0  0.17941  0.89487  0.28331  1.0000 -0.4945059786
O   O152      1.0  0.82059  0.10513  0.28331  1.0000 -0.4945059786
O   O153      1.0  0.13201  0.44571  0.72619  1.0000 -0.554788969
O   O154      1.0  0.86799  0.55429  0.72619  1.0000 -0.554788969
O   O155      1.0  0.55429  0.86799  0.27381  1.0000 -0.554788969
O   O156      1.0  0.44571  0.13201  0.27381  1.0000 -0.554788969
O   O157      1.0  0.36799  0.05429  0.77381  1.0000 -0.554788969
O   O158      1.0  0.63201  0.94571  0.77381  1.0000 -0.554788969
O   O159      1.0  0.94571  0.63201  0.22619  1.0000 -0.554788969
O   O160      1.0  0.05429  0.36799  0.22619  1.0000 -0.554788969
O   O161      1.0  0.07878  0.32312  0.73197  1.0000 -0.5210797742
O   O162      1.0  0.92122  0.67688  0.73197  1.0000 -0.5210797742
O   O163      1.0  0.67688  0.92122  0.26803  1.0000 -0.5210797742
O   O164      1.0  0.32312  0.07878  0.26803  1.0000 -0.5210797742
O   O165      1.0  0.42122  0.17688  0.76803  1.0000 -0.5210797742
O   O166      1.0  0.57878  0.82312  0.76803  1.0000 -0.5210797742
O   O167      1.0  0.82312  0.57878  0.23197  1.0000 -0.5210797742
O   O168      1.0  0.17688  0.42122  0.23197  1.0000 -0.5210797742
O   O169      1.0  0.14692  0.28888  0.84780  1.0000 -0.554788969
O   O170      1.0  0.85308  0.71112  0.84780  1.0000 -0.554788969
O   O171      1.0  0.71112  0.85308  0.15220  1.0000 -0.554788969
O   O172      1.0  0.28888  0.14692  0.15220  1.0000 -0.554788969
O   O173      1.0  0.35308  0.21112  0.65220  1.0000 -0.554788969
O   O174      1.0  0.64692  0.78888  0.65220  1.0000 -0.554788969
O   O175      1.0  0.78888  0.64692  0.34780  1.0000 -0.554788969
O   O176      1.0  0.21112  0.35308  0.34780  1.0000 -0.554788969
O   O177      1.0  0.28059  0.38185  0.85652  1.0000 -0.5352105046
O   O178      1.0  0.71941  0.61815  0.85652  1.0000 -0.5352105046
O   O179      1.0  0.61815  0.71941  0.14348  1.0000 -0.5352105046
O   O180      1.0  0.38185  0.28059  0.14348  1.0000 -0.5352105046
O   O181      1.0  0.21941  0.11815  0.64348  1.0000 -0.5352105046
O   O182      1.0  0.78059  0.88185  0.64348  1.0000 -0.5352105046
O   O183      1.0  0.88185  0.78059  0.35652  1.0000 -0.5352105046
O   O184      1.0  0.11815  0.21941  0.35652  1.0000 -0.5352105046
O   O185      1.0  0.17240  0.56300  0.00123  1.0000 -0.4682984645
O   O186      1.0  0.82760  0.43700  0.00123  1.0000 -0.4682984645
O   O187      1.0  0.43700  0.82760  0.99877  1.0000 -0.4682984645
O   O188      1.0  0.56300  0.17240  0.99877  1.0000 -0.4682984645
O   O189      1.0  0.32760  0.93700  0.49877  1.0000 -0.4682984645
O   O190      1.0  0.67240  0.06300  0.49877  1.0000 -0.4682984645
O   O191      1.0  0.06300  0.67240  0.50123  1.0000 -0.4682984645
O   O192      1.0  0.93700  0.32760  0.50123  1.0000 -0.4682984645
