# DDEC6 charges by PACMAN v1.1 (https://github.com/mtap-research/PACMAN-charge/)
data_2010[Sm][flu]3[ASR]1
_chemical_formula_sum              "Sm2 P2 H24 C42 O14"
_cell_length_a       10.7459
_cell_length_b       11.8655
_cell_length_c       14.6752
_cell_angle_alpha    73.267
_cell_angle_beta     71.824
_cell_angle_gamma    66.799

_symmetry_space_group_name_H-M    "P 1"
_symmetry_Int_Tables_number       1

loop_
  _symmetry_equiv_pos_as_xyz
  'x, y, z'

loop_
  _atom_site_type_symbol
  _atom_site_label
  _atom_site_symmetry_multiplicity
  _atom_site_fract_x
  _atom_site_fract_y
  _atom_site_fract_z
  _atom_site_occupancy
  _atom_site_charge
Sm  Sm1       1.0  0.98702  0.55031  0.62791  1.0000 2.13812605
Sm  Sm2       1.0  0.01298  0.44969  0.37209  1.0000 2.13812605
P   P1        1.0  0.14337  0.71804  0.72571  1.0000 0.9042733059
P   P2        1.0  0.85663  0.28196  0.27429  1.0000 0.9050044165
H   H1        1.0  0.50620  0.63430  0.44310  1.0000 0.1220085443
H   H2        1.0  0.49380  0.36570  0.55690  1.0000 0.1220085443
H   H3        1.0  0.95390  0.89730  0.61690  1.0000 0.1220085443
H   H4        1.0  0.04610  0.10270  0.38310  1.0000 0.1220085443
H   H5        1.0  0.27880  0.67780  0.53570  1.0000 0.1260905013
H   H6        1.0  0.72120  0.32220  0.46430  1.0000 0.1260905013
H   H7        1.0  0.97220  0.82010  0.89320  1.0000 0.1109039109
H   H8        1.0  0.02780  0.17990  0.10680  1.0000 0.1109039109
H   H9        1.0  0.64160  0.61690  0.67700  1.0000 0.1260905013
H   H10       1.0  0.35840  0.38310  0.32300  1.0000 0.1260905013
H   H11       1.0  0.41080  0.66680  0.77000  1.0000 0.1109039109
H   H12       1.0  0.58920  0.33320  0.23000  1.0000 0.1109039109
H   H13       1.0  0.18750  0.91730  0.77850  1.0000 0.1109039109
H   H14       1.0  0.81250  0.08270  0.22150  1.0000 0.1109039109
H   H15       1.0  0.25010  0.42270  0.01670  1.0000 0.1220085443
H   H16       1.0  0.74990  0.57730  0.98330  1.0000 0.1220085443
H   H17       1.0  0.93540  0.74540  0.06140  1.0000 0.1260905013
H   H18       1.0  0.06460  0.25460  0.93860  1.0000 0.1260905013
H   H19       1.0  0.88620  0.11340  0.56540  1.0000 0.1220085443
H   H20       1.0  0.11380  0.88660  0.43460  1.0000 0.1220085443
H   H21       1.0  0.11040  0.13480  0.73250  1.0000 0.1350835905
H   H22       1.0  0.88960  0.86520  0.26750  1.0000 0.1350835905
H   H23       1.0  0.27680  0.49450  0.84840  1.0000 0.1220085443
H   H24       1.0  0.72320  0.50550  0.15160  1.0000 0.1220085443
C   C1        1.0  0.13050  0.66590  0.85450  1.0000 -0.1561492189
C   C2        1.0  0.86950  0.33410  0.14550  1.0000 -0.1561492189
C   C3        1.0  0.48700  0.63990  0.50970  1.0000 -0.0927181788
C   C4        1.0  0.51300  0.36010  0.49030  1.0000 -0.0927181788
C   C5        1.0  0.07820  0.88630  0.70140  1.0000 -0.1524356074
C   C6        1.0  0.92180  0.11370  0.29860  1.0000 -0.1524356074
C   C7        1.0  0.32380  0.67610  0.66200  1.0000 -0.1524356074
C   C8        1.0  0.67620  0.32390  0.33800  1.0000 -0.1524356074
C   C9        1.0  0.98790  0.94510  0.63900  1.0000 -0.083040449
C   C10       1.0  0.01210  0.05490  0.36100  1.0000 -0.083040449
C   C11       1.0  0.35210  0.66630  0.56430  1.0000 -0.0736479714
C   C12       1.0  0.64790  0.33370  0.43570  1.0000 -0.0736479714
C   C13       1.0  0.59520  0.62140  0.55130  1.0000 -0.0110652523
C   C14       1.0  0.40480  0.37860  0.44870  1.0000 -0.0110652523
C   C15       1.0  0.02850  0.73900  0.91820  1.0000 -0.0927181788
C   C16       1.0  0.97150  0.26100  0.08180  1.0000 -0.0927181788
C   C17       1.0  0.56780  0.63030  0.64830  1.0000 -0.0927181788
C   C18       1.0  0.43220  0.36970  0.35170  1.0000 -0.0927181788
C   C19       1.0  0.43050  0.65910  0.70390  1.0000 -0.0984787585
C   C20       1.0  0.56950  0.34090  0.29610  1.0000 -0.0984787585
C   C21       1.0  0.12550  0.95740  0.73580  1.0000 -0.1068280294
C   C22       1.0  0.87450  0.04260  0.26420  1.0000 -0.1068280294
C   C23       1.0  0.09170  0.57940  0.05500  1.0000 0.0049874428
C   C24       1.0  0.90830  0.42060  0.94500  1.0000 0.0049874428
C   C25       1.0  0.06980  0.53510  0.16410  1.0000 0.5664336131
C   C26       1.0  0.93020  0.46490  0.83590  1.0000 0.5664336131
C   C27       1.0  0.19310  0.50340  0.99170  1.0000 -0.0927181788
C   C28       1.0  0.80690  0.49660  0.00830  1.0000 -0.0927181788
C   C29       1.0  0.00760  0.69540  0.01820  1.0000 -0.0984787585
C   C30       1.0  0.99240  0.30460  0.98180  1.0000 -0.0984787585
C   C31       1.0  0.99490  0.14460  0.64160  1.0000 -0.0110652523
C   C32       1.0  0.00510  0.85540  0.35840  1.0000 -0.0110652523
C   C33       1.0  0.94720  0.07360  0.60890  1.0000 -0.0984787585
C   C34       1.0  0.05280  0.92640  0.39110  1.0000 -0.0984787585
C   C35       1.0  0.08150  0.08620  0.70730  1.0000 -0.0927181788
C   C36       1.0  0.91850  0.91380  0.29270  1.0000 -0.0927181788
C   C37       1.0  0.95920  0.28270  0.60220  1.0000 0.6369669781
C   C38       1.0  0.04080  0.71730  0.39780  1.0000 0.6369669781
C   C39       1.0  0.74170  0.58650  0.49120  1.0000 0.6213662372
C   C40       1.0  0.25830  0.41350  0.50880  1.0000 0.6213662372
C   C41       1.0  0.20980  0.54700  0.89190  1.0000 -0.0927181788
C   C42       1.0  0.79020  0.45300  0.10810  1.0000 -0.0927181788
O   O1        1.0  0.94940  0.57710  0.21580  1.0000 -0.6128746524
O   O2        1.0  0.05060  0.42290  0.78420  1.0000 -0.6128746524
O   O3        1.0  0.76380  0.56370  0.40789  1.0000 -0.6019706085
O   O4        1.0  0.23620  0.43630  0.59211  1.0000 -0.6019706085
O   O5        1.0  0.93060  0.31980  0.51873  1.0000 -0.6796447887
O   O6        1.0  0.06940  0.68020  0.48127  1.0000 -0.6796447887
O   O7        1.0  0.17060  0.45850  0.20203  1.0000 -0.6592980876
O   O8        1.0  0.82940  0.54150  0.79797  1.0000 -0.6592980876
O   O9        1.0  0.96330  0.34960  0.65304  1.0000 -0.6426329269
O   O10       1.0  0.03670  0.65040  0.34696  1.0000 -0.6426329269
O   O11       1.0  0.84010  0.57570  0.52674  1.0000 -0.7612573459
O   O12       1.0  0.15990  0.42430  0.47326  1.0000 -0.7612573459
O   O13       1.0  0.06490  0.66990  0.68724  1.0000 -0.7725375846
O   O14       1.0  0.93510  0.33010  0.31276  1.0000 -0.7725375846
