# DDEC6 charges by PACMAN v1.1 (https://github.com/mtap-research/PACMAN-charge/)
data_2010[Cu][nts]3[ASR]2
_chemical_formula_sum              "Cu24 H192 C432 O96"
_cell_length_a       37.2914
_cell_length_b       37.2914
_cell_length_c       37.2914
_cell_angle_alpha    60
_cell_angle_beta     60
_cell_angle_gamma    60

_symmetry_space_group_name_H-M    "P 1"
_symmetry_Int_Tables_number       1

loop_
  _symmetry_equiv_pos_as_xyz
  'x, y, z'

loop_
  _atom_site_type_symbol
  _atom_site_label
  _atom_site_symmetry_multiplicity
  _atom_site_fract_x
  _atom_site_fract_y
  _atom_site_fract_z
  _atom_site_occupancy
  _atom_site_charge
Cu  Cu1       1.0  0.71704  0.50000  0.50005  1.0000 0.7798675092
Cu  Cu2       1.0  0.77428  0.49985  0.49987  1.0000 0.7798675092
Cu  Cu3       1.0  0.50009  0.71715  0.28274  1.0000 0.7798675092
Cu  Cu4       1.0  0.50021  0.77406  0.22630  1.0000 0.7798675092
Cu  Cu5       1.0  0.49997  0.28274  0.71734  1.0000 0.7798675092
Cu  Cu6       1.0  0.50036  0.22571  0.77403  1.0000 0.7798675092
Cu  Cu7       1.0  0.28283  0.50001  0.50000  1.0000 0.7798675092
Cu  Cu8       1.0  0.22592  0.49985  0.49978  1.0000 0.7798675092
Cu  Cu9       1.0  0.71758  0.49996  0.28252  1.0000 0.7893436506
Cu  Cu10      1.0  0.77502  0.49999  0.22475  1.0000 0.7684194401
Cu  Cu11      1.0  0.50014  0.28290  0.49996  1.0000 0.7893436506
Cu  Cu12      1.0  0.49970  0.22550  0.50017  1.0000 0.7684194401
Cu  Cu13      1.0  0.50003  0.71714  0.49991  1.0000 0.7893436506
Cu  Cu14      1.0  0.49982  0.77461  0.50012  1.0000 0.7684194401
Cu  Cu15      1.0  0.28301  0.50006  0.71704  1.0000 0.7798675092
Cu  Cu16      1.0  0.22544  0.49970  0.77450  1.0000 0.7798675092
Cu  Cu17      1.0  0.71702  0.28295  0.49994  1.0000 0.7684194401
Cu  Cu18      1.0  0.77486  0.22560  0.49971  1.0000 0.7798675092
Cu  Cu19      1.0  0.49996  0.49999  0.71761  1.0000 0.7893436506
Cu  Cu20      1.0  0.49995  0.49998  0.77570  1.0000 0.7684194401
Cu  Cu21      1.0  0.49989  0.50006  0.28241  1.0000 0.7893436506
Cu  Cu22      1.0  0.49991  0.50004  0.22435  1.0000 0.7798675092
Cu  Cu23      1.0  0.28279  0.71710  0.50008  1.0000 0.7798675092
Cu  Cu24      1.0  0.22556  0.77488  0.49984  1.0000 0.7798675092
H   H1        1.0  0.85426  0.36599  0.52853  1.0000 0.1291194324
H   H2        1.0  0.98592  0.18522  0.52832  1.0000 0.1120246654
H   H3        1.0  0.05741  0.14586  0.53342  1.0000 0.1120246654
H   H4        1.0  0.36604  0.85404  0.25141  1.0000 0.1291194324
H   H5        1.0  0.18527  0.98586  0.30054  1.0000 0.1120246654
H   H6        1.0  0.14589  0.05736  0.26331  1.0000 0.1120246654
H   H7        1.0  0.52819  0.25134  0.85432  1.0000 0.1291194324
H   H8        1.0  0.52838  0.30053  0.98594  1.0000 0.1120246654
H   H9        1.0  0.53343  0.26329  0.05743  1.0000 0.1120246654
H   H10       1.0  0.25109  0.52870  0.36601  1.0000 0.1291194324
H   H11       1.0  0.30052  0.52834  0.18520  1.0000 0.1120246654
H   H12       1.0  0.26330  0.53344  0.14583  1.0000 0.1120246654
H   H13       1.0  0.85397  0.52835  0.25155  1.0000 0.1291194324
H   H14       1.0  0.98587  0.52836  0.30051  1.0000 0.1120246654
H   H15       1.0  0.05733  0.53349  0.26326  1.0000 0.1120246654
H   H16       1.0  0.36605  0.25129  0.52819  1.0000 0.1291194324
H   H17       1.0  0.18511  0.30051  0.52835  1.0000 0.1153579737
H   H18       1.0  0.14584  0.26324  0.53344  1.0000 0.1120246654
H   H19       1.0  0.52870  0.85423  0.36580  1.0000 0.1291194324
H   H20       1.0  0.52837  0.98598  0.18519  1.0000 0.1120246654
H   H21       1.0  0.53346  0.05744  0.14584  1.0000 0.1120246654
H   H22       1.0  0.25118  0.36597  0.85465  1.0000 0.1291194324
H   H23       1.0  0.30054  0.18513  0.98597  1.0000 0.1153579737
H   H24       1.0  0.26330  0.14583  0.05746  1.0000 0.1120246654
H   H25       1.0  0.85411  0.25111  0.36596  1.0000 0.1291194324
H   H26       1.0  0.98595  0.30049  0.18519  1.0000 0.1120246654
H   H27       1.0  0.05745  0.26327  0.14586  1.0000 0.1120246654
H   H28       1.0  0.36605  0.52834  0.85426  1.0000 0.1291194324
H   H29       1.0  0.18514  0.52836  0.98593  1.0000 0.1120246654
H   H30       1.0  0.14583  0.53347  0.05739  1.0000 0.1120246654
H   H31       1.0  0.52828  0.36611  0.25141  1.0000 0.1291194324
H   H32       1.0  0.52836  0.18514  0.30057  1.0000 0.1120246654
H   H33       1.0  0.53346  0.14586  0.26329  1.0000 0.1120246654
H   H34       1.0  0.25106  0.85421  0.52878  1.0000 0.1291194324
H   H35       1.0  0.30053  0.98593  0.52836  1.0000 0.1120246654
H   H36       1.0  0.26329  0.05742  0.53343  1.0000 0.1120246654
H   H37       1.0  0.63411  0.14587  0.47124  1.0000 0.1291194324
H   H38       1.0  0.81483  0.01408  0.47162  1.0000 0.1120246654
H   H39       1.0  0.85415  0.94262  0.46652  1.0000 0.1120246654
H   H40       1.0  0.14580  0.63413  0.74892  1.0000 0.1291194324
H   H41       1.0  0.01417  0.81476  0.69945  1.0000 0.1153579737
H   H42       1.0  0.94267  0.85411  0.73667  1.0000 0.1120246654
H   H43       1.0  0.74861  0.47159  0.14605  1.0000 0.1291194324
H   H44       1.0  0.69947  0.47163  0.01414  1.0000 0.1120246654
H   H45       1.0  0.73669  0.46653  0.94266  1.0000 0.1120246654
H   H46       1.0  0.47176  0.74870  0.63397  1.0000 0.1291194324
H   H47       1.0  0.47162  0.69947  0.81485  1.0000 0.1120246654
H   H48       1.0  0.46657  0.73670  0.85416  1.0000 0.1120246654
H   H49       1.0  0.47125  0.14594  0.74878  1.0000 0.1291194324
H   H50       1.0  0.47162  0.01405  0.69951  1.0000 0.1120246654
H   H51       1.0  0.46653  0.94258  0.73676  1.0000 0.1120246654
H   H52       1.0  0.74861  0.63402  0.47181  1.0000 0.1291194324
H   H53       1.0  0.69948  0.81483  0.47162  1.0000 0.1120246654
H   H54       1.0  0.73670  0.85416  0.46655  1.0000 0.1120246654
H   H55       1.0  0.14563  0.47176  0.63400  1.0000 0.1291194324
H   H56       1.0  0.01407  0.47158  0.81482  1.0000 0.1120246654
H   H57       1.0  0.94257  0.46656  0.85415  1.0000 0.1120246654
H   H58       1.0  0.63382  0.74866  0.14569  1.0000 0.1291194324
H   H59       1.0  0.81474  0.69951  0.01411  1.0000 0.1120246654
H   H60       1.0  0.85414  0.73669  0.94258  1.0000 0.1120246654
H   H61       1.0  0.74863  0.14557  0.63406  1.0000 0.1291194324
H   H62       1.0  0.69954  0.01404  0.81484  1.0000 0.1153579737
H   H63       1.0  0.73676  0.94253  0.85414  1.0000 0.1120246654
H   H64       1.0  0.47150  0.63400  0.14566  1.0000 0.1291194324
H   H65       1.0  0.47164  0.81483  0.01404  1.0000 0.1120246654
H   H66       1.0  0.46654  0.85416  0.94259  1.0000 0.1120246654
H   H67       1.0  0.63405  0.47147  0.74879  1.0000 0.1291194324
H   H68       1.0  0.81487  0.47161  0.69948  1.0000 0.1153579737
H   H69       1.0  0.85415  0.46656  0.73673  1.0000 0.1120246654
H   H70       1.0  0.14547  0.74873  0.47168  1.0000 0.1291194324
H   H71       1.0  0.01408  0.69950  0.47158  1.0000 0.1120246654
H   H72       1.0  0.94257  0.73672  0.46657  1.0000 0.1120246654
H   H73       1.0  0.14560  0.63400  0.47172  1.0000 0.1291194324
H   H74       1.0  0.01409  0.81485  0.47158  1.0000 0.1120246654
H   H75       1.0  0.94258  0.85416  0.46657  1.0000 0.1120246654
H   H76       1.0  0.63399  0.14563  0.74881  1.0000 0.1291194324
H   H77       1.0  0.81488  0.01404  0.69947  1.0000 0.1153579737
H   H78       1.0  0.85418  0.94253  0.73667  1.0000 0.1120246654
H   H79       1.0  0.47163  0.74855  0.14579  1.0000 0.1291194324
H   H80       1.0  0.47164  0.69947  0.01401  1.0000 0.1120246654
H   H81       1.0  0.46652  0.73673  0.94258  1.0000 0.1120246654
H   H82       1.0  0.74859  0.47179  0.63399  1.0000 0.1291194324
H   H83       1.0  0.69948  0.47160  0.81483  1.0000 0.1153579737
H   H84       1.0  0.73671  0.46655  0.85415  1.0000 0.1120246654
H   H85       1.0  0.14545  0.47169  0.74881  1.0000 0.1291194324
H   H86       1.0  0.01398  0.47159  0.69949  1.0000 0.1153579737
H   H87       1.0  0.94250  0.46659  0.73674  1.0000 0.1120246654
H   H88       1.0  0.63417  0.74884  0.47129  1.0000 0.1291194324
H   H89       1.0  0.81484  0.69949  0.47162  1.0000 0.1120246654
H   H90       1.0  0.85416  0.73673  0.46654  1.0000 0.1120246654
H   H91       1.0  0.47189  0.14531  0.63409  1.0000 0.1291194324
H   H92       1.0  0.47164  0.01402  0.81489  1.0000 0.1120246654
H   H93       1.0  0.46658  0.94254  0.85418  1.0000 0.1120246654
H   H94       1.0  0.74902  0.63442  0.14544  1.0000 0.1291194324
H   H95       1.0  0.69946  0.81497  0.01393  1.0000 0.1120246654
H   H96       1.0  0.73678  0.85418  0.94247  1.0000 0.1120246654
H   H97       1.0  0.14558  0.74854  0.63391  1.0000 0.1291194324
H   H98       1.0  0.01410  0.69943  0.81484  1.0000 0.1120246654
H   H99       1.0  0.94262  0.73670  0.85413  1.0000 0.1120246654
H   H100      1.0  0.63413  0.47151  0.14562  1.0000 0.1291194324
H   H101      1.0  0.81489  0.47163  0.01405  1.0000 0.1120246654
H   H102      1.0  0.85414  0.46653  0.94261  1.0000 0.1120246654
H   H103      1.0  0.47141  0.63411  0.74883  1.0000 0.1291194324
H   H104      1.0  0.47161  0.81487  0.69949  1.0000 0.1153579737
H   H105      1.0  0.46655  0.85414  0.73675  1.0000 0.1120246654
H   H106      1.0  0.74864  0.14549  0.47184  1.0000 0.1291194324
H   H107      1.0  0.69946  0.01409  0.47162  1.0000 0.1120246654
H   H108      1.0  0.73670  0.94261  0.46653  1.0000 0.1120246654
H   H109      1.0  0.36602  0.85446  0.52816  1.0000 0.1291194324
H   H110      1.0  0.18515  0.98596  0.52836  1.0000 0.1120246654
H   H111      1.0  0.14585  0.05744  0.53342  1.0000 0.1120246654
H   H112      1.0  0.85488  0.36578  0.25121  1.0000 0.1291194324
H   H113      1.0  0.98603  0.18507  0.30053  1.0000 0.1153579737
H   H114      1.0  0.05750  0.14582  0.26326  1.0000 0.1120246654
H   H115      1.0  0.25124  0.52869  0.85415  1.0000 0.1291194324
H   H116      1.0  0.30052  0.52836  0.98591  1.0000 0.1120246654
H   H117      1.0  0.26327  0.53349  0.05736  1.0000 0.1120246654
H   H118      1.0  0.52875  0.25116  0.36587  1.0000 0.1291194324
H   H119      1.0  0.52836  0.30054  0.18522  1.0000 0.1120246654
H   H120      1.0  0.53347  0.26330  0.14588  1.0000 0.1120246654
H   H121      1.0  0.52827  0.85438  0.25125  1.0000 0.1291194324
H   H122      1.0  0.52836  0.98605  0.30052  1.0000 0.1120246654
H   H123      1.0  0.53343  0.05750  0.26328  1.0000 0.1120246654
H   H124      1.0  0.25115  0.36598  0.52872  1.0000 0.1291194324
H   H125      1.0  0.30052  0.18521  0.52835  1.0000 0.1153579737
H   H126      1.0  0.26332  0.14584  0.53341  1.0000 0.1120246654
H   H127      1.0  0.85426  0.52859  0.36596  1.0000 0.1291194324
H   H128      1.0  0.98588  0.52834  0.18517  1.0000 0.1153579737
H   H129      1.0  0.05737  0.53342  0.14584  1.0000 0.1120246654
H   H130      1.0  0.36592  0.25129  0.85419  1.0000 0.1291194324
H   H131      1.0  0.18524  0.30051  0.98589  1.0000 0.1120246654
H   H132      1.0  0.14586  0.26332  0.05740  1.0000 0.1120246654
H   H133      1.0  0.25117  0.85429  0.36588  1.0000 0.1291194324
H   H134      1.0  0.30058  0.98596  0.18513  1.0000 0.1153579737
H   H135      1.0  0.26328  0.05743  0.14585  1.0000 0.1120246654
H   H136      1.0  0.52858  0.36585  0.85436  1.0000 0.1291194324
H   H137      1.0  0.52838  0.18509  0.98601  1.0000 0.1153579737
H   H138      1.0  0.53345  0.14586  0.05746  1.0000 0.1120246654
H   H139      1.0  0.36582  0.52844  0.25124  1.0000 0.1291194324
H   H140      1.0  0.18511  0.52834  0.30051  1.0000 0.1120246654
H   H141      1.0  0.14582  0.53348  0.26323  1.0000 0.1120246654
H   H142      1.0  0.85427  0.25116  0.52863  1.0000 0.1291194324
H   H143      1.0  0.98599  0.30054  0.52832  1.0000 0.1153579737
H   H144      1.0  0.05745  0.26327  0.53344  1.0000 0.1120246654
H   H145      1.0  0.74542  0.37132  0.51180  1.0000 0.1291194324
H   H146      1.0  0.37127  0.74521  0.37160  1.0000 0.1291194324
H   H147      1.0  0.51129  0.37170  0.74562  1.0000 0.1291194324
H   H148      1.0  0.37153  0.51173  0.37124  1.0000 0.1291194324
H   H149      1.0  0.74523  0.51172  0.37174  1.0000 0.1291194324
H   H150      1.0  0.37156  0.37141  0.51145  1.0000 0.1291194324
H   H151      1.0  0.51158  0.74547  0.37153  1.0000 0.1291194324
H   H152      1.0  0.37132  0.37174  0.74566  1.0000 0.1291194324
H   H153      1.0  0.74579  0.37172  0.37114  1.0000 0.1291194324
H   H154      1.0  0.37149  0.51168  0.74533  1.0000 0.1291194324
H   H155      1.0  0.51169  0.37138  0.37158  1.0000 0.1291194324
H   H156      1.0  0.37140  0.74556  0.51150  1.0000 0.1291194324
H   H157      1.0  0.62853  0.25448  0.48854  1.0000 0.1291194324
H   H158      1.0  0.25448  0.62839  0.62856  1.0000 0.1291194324
H   H159      1.0  0.62812  0.48847  0.25467  1.0000 0.1291194324
H   H160      1.0  0.48873  0.62838  0.62857  1.0000 0.1291194324
H   H161      1.0  0.48857  0.25446  0.62834  1.0000 0.1291194324
H   H162      1.0  0.62841  0.62857  0.48853  1.0000 0.1291194324
H   H163      1.0  0.25423  0.48900  0.62850  1.0000 0.1291194324
H   H164      1.0  0.62899  0.62817  0.25435  1.0000 0.1291194324
H   H165      1.0  0.62844  0.25433  0.62837  1.0000 0.1291194324
H   H166      1.0  0.48855  0.62830  0.25452  1.0000 0.1291194324
H   H167      1.0  0.62834  0.48873  0.62849  1.0000 0.1291194324
H   H168      1.0  0.25427  0.62848  0.48892  1.0000 0.1291194324
H   H169      1.0  0.11157  0.11159  0.55212  1.0000 0.098397888
H   H170      1.0  0.11163  0.11155  0.22471  1.0000 0.098397888
H   H171      1.0  0.55207  0.22476  0.11162  1.0000 0.098397888
H   H172      1.0  0.22472  0.55206  0.11159  1.0000 0.098397888
H   H173      1.0  0.11158  0.55200  0.22473  1.0000 0.098397888
H   H174      1.0  0.11160  0.22469  0.55210  1.0000 0.098397888
H   H175      1.0  0.55205  0.11162  0.11163  1.0000 0.098397888
H   H176      1.0  0.22472  0.11157  0.11157  1.0000 0.098397888
H   H177      1.0  0.11161  0.22473  0.11156  1.0000 0.098397888
H   H178      1.0  0.11156  0.55206  0.11159  1.0000 0.098397888
H   H179      1.0  0.55209  0.11162  0.22472  1.0000 0.098397888
H   H180      1.0  0.22472  0.11157  0.55212  1.0000 0.098397888
H   H181      1.0  0.88838  0.88840  0.44799  1.0000 0.098397888
H   H182      1.0  0.88849  0.88840  0.77521  1.0000 0.098397888
H   H183      1.0  0.77522  0.44799  0.88842  1.0000 0.098397888
H   H184      1.0  0.44795  0.77525  0.88840  1.0000 0.098397888
H   H185      1.0  0.44796  0.88838  0.77528  1.0000 0.098397888
H   H186      1.0  0.77525  0.88841  0.44796  1.0000 0.098397888
H   H187      1.0  0.88837  0.44798  0.88841  1.0000 0.098397888
H   H188      1.0  0.88845  0.77526  0.88839  1.0000 0.098397888
H   H189      1.0  0.77536  0.88839  0.88834  1.0000 0.098397888
H   H190      1.0  0.44789  0.88840  0.88843  1.0000 0.098397888
H   H191      1.0  0.88836  0.44792  0.77532  1.0000 0.098397888
H   H192      1.0  0.88839  0.77528  0.44795  1.0000 0.098397888
C   C1        1.0  0.77733  0.42041  0.51382  1.0000 0.5675044467
C   C2        1.0  0.79694  0.37363  0.52065  1.0000 -0.0481859322
C   C3        1.0  0.83740  0.35001  0.52738  1.0000 -0.1102489619
C   C4        1.0  0.00185  0.20159  0.53019  1.0000 -0.1171202637
C   C5        1.0  0.04326  0.17884  0.53396  1.0000 -0.1466390278
C   C6        1.0  0.42056  0.77730  0.28838  1.0000 0.5675044467
C   C7        1.0  0.37374  0.79683  0.30889  1.0000 -0.0481859322
C   C8        1.0  0.35007  0.83723  0.28536  1.0000 -0.1102489619
C   C9        1.0  0.20164  0.00180  0.26637  1.0000 -0.1171202637
C   C10       1.0  0.17887  0.04321  0.24395  1.0000 -0.1434947938
C   C11       1.0  0.51364  0.28852  0.77731  1.0000 0.5675044467
C   C12       1.0  0.52054  0.30888  0.79688  1.0000 -0.0481859322
C   C13       1.0  0.52713  0.28530  0.83740  1.0000 -0.1102489619
C   C14       1.0  0.53022  0.26637  0.00184  1.0000 -0.1171202637
C   C15       1.0  0.53397  0.24394  0.04325  1.0000 -0.1466390278
C   C16       1.0  0.28851  0.51363  0.42046  1.0000 0.5675044467
C   C17       1.0  0.30881  0.52054  0.37368  1.0000 -0.0481859322
C   C18       1.0  0.28515  0.52737  0.35008  1.0000 -0.1102489619
C   C19       1.0  0.26637  0.53018  0.20157  1.0000 -0.1171202637
C   C20       1.0  0.24393  0.53396  0.17882  1.0000 -0.1466390278
C   C21       1.0  0.77699  0.51376  0.28867  1.0000 0.5675044467
C   C22       1.0  0.79660  0.52073  0.30899  1.0000 -0.0481859322
C   C23       1.0  0.83712  0.52731  0.28546  1.0000 -0.1102489619
C   C24       1.0  0.00176  0.53023  0.26634  1.0000 -0.1171202637
C   C25       1.0  0.04317  0.53401  0.24391  1.0000 -0.1466390278
C   C26       1.0  0.42052  0.28828  0.51368  1.0000 0.5675044467
C   C27       1.0  0.37374  0.30871  0.52052  1.0000 -0.0481859322
C   C28       1.0  0.35008  0.28526  0.52710  1.0000 -0.1102489619
C   C29       1.0  0.20153  0.26636  0.53021  1.0000 -0.1171202637
C   C30       1.0  0.17883  0.24390  0.53397  1.0000 -0.1434947938
C   C31       1.0  0.51368  0.77752  0.42049  1.0000 0.5675044467
C   C32       1.0  0.52063  0.79698  0.37367  1.0000 -0.0481859322
C   C33       1.0  0.52746  0.83737  0.34992  1.0000 -0.1102489619
C   C34       1.0  0.53020  0.00189  0.20161  1.0000 -0.1171202637
C   C35       1.0  0.53399  0.04329  0.17884  1.0000 -0.1466390278
C   C36       1.0  0.28830  0.42059  0.77746  1.0000 0.5675044467
C   C37       1.0  0.30869  0.37376  0.79707  1.0000 -0.0481859322
C   C38       1.0  0.28521  0.35014  0.83762  1.0000 -0.1102489619
C   C39       1.0  0.26638  0.20152  0.00189  1.0000 -0.1171202637
C   C40       1.0  0.24393  0.17880  0.04329  1.0000 -0.1434947938
C   C41       1.0  0.77747  0.28851  0.42033  1.0000 0.5675044467
C   C42       1.0  0.79710  0.30893  0.37356  1.0000 -0.0481859322
C   C43       1.0  0.83742  0.28519  0.34999  1.0000 -0.1102489619
C   C44       1.0  0.00188  0.26633  0.20158  1.0000 -0.1171202637
C   C45       1.0  0.04328  0.24391  0.17884  1.0000 -0.1466390278
C   C46       1.0  0.42062  0.51359  0.77737  1.0000 0.5675044467
C   C47       1.0  0.37378  0.52057  0.79683  1.0000 -0.0481859322
C   C48       1.0  0.35013  0.52724  0.83731  1.0000 -0.1102489619
C   C49       1.0  0.20157  0.53018  0.00183  1.0000 -0.1171202637
C   C50       1.0  0.17883  0.53398  0.04323  1.0000 -0.1466390278
C   C51       1.0  0.51352  0.42067  0.28848  1.0000 0.5675044467
C   C52       1.0  0.52058  0.37377  0.30887  1.0000 -0.0481859322
C   C53       1.0  0.52725  0.35014  0.28533  1.0000 -0.1102489619
C   C54       1.0  0.53020  0.20156  0.26641  1.0000 -0.1171202637
C   C55       1.0  0.53398  0.17884  0.24395  1.0000 -0.1434947938
C   C56       1.0  0.28833  0.77746  0.51371  1.0000 0.5675044467
C   C57       1.0  0.30876  0.79701  0.52053  1.0000 -0.0481859322
C   C58       1.0  0.28516  0.83741  0.52738  1.0000 -0.1102489619
C   C59       1.0  0.26637  0.00185  0.53020  1.0000 -0.1171202637
C   C60       1.0  0.24393  0.04325  0.53398  1.0000 -0.1466390278
C   C61       1.0  0.57938  0.22247  0.48643  1.0000 0.5675044467
C   C62       1.0  0.62627  0.20303  0.47946  1.0000 -0.0481859322
C   C63       1.0  0.64998  0.16264  0.47264  1.0000 -0.1102489619
C   C64       1.0  0.79841  0.99816  0.46981  1.0000 -0.1171202637
C   C65       1.0  0.82115  0.95677  0.46601  1.0000 -0.1466390278
C   C66       1.0  0.22259  0.57933  0.71161  1.0000 0.5675044467
C   C67       1.0  0.20303  0.62619  0.69123  1.0000 -0.0481859322
C   C68       1.0  0.16264  0.64989  0.71482  1.0000 -0.1102489619
C   C69       1.0  0.99822  0.79838  0.73360  1.0000 -0.1171202637
C   C70       1.0  0.95682  0.82113  0.75603  1.0000 -0.1434947938
C   C71       1.0  0.71116  0.48641  0.22300  1.0000 0.5675044467
C   C72       1.0  0.69091  0.47943  0.20339  1.0000 -0.0481859322
C   C73       1.0  0.71461  0.47273  0.16288  1.0000 -0.1102489619
C   C74       1.0  0.73362  0.46979  0.99822  1.0000 -0.1171202637
C   C75       1.0  0.75605  0.46601  0.95681  1.0000 -0.1466390278
C   C76       1.0  0.48647  0.71159  0.57940  1.0000 0.5675044467
C   C77       1.0  0.47962  0.69118  0.62625  1.0000 -0.0481859322
C   C78       1.0  0.47291  0.71473  0.64989  1.0000 -0.1102489619
C   C79       1.0  0.46979  0.73363  0.79845  1.0000 -0.1171202637
C   C80       1.0  0.46602  0.75606  0.82118  1.0000 -0.1466390278
C   C81       1.0  0.48643  0.22258  0.71154  1.0000 0.5675044467
C   C82       1.0  0.47966  0.20298  0.69107  1.0000 -0.0481859322
C   C83       1.0  0.47271  0.16265  0.71470  1.0000 -0.1102489619
C   C84       1.0  0.46979  0.99815  0.73367  1.0000 -0.1171202637
C   C85       1.0  0.46601  0.95674  0.75611  1.0000 -0.1466390278
C   C86       1.0  0.71159  0.57930  0.48658  1.0000 0.5675044467
C   C87       1.0  0.69120  0.62623  0.47951  1.0000 -0.0481859322
C   C88       1.0  0.71467  0.64988  0.47287  1.0000 -0.1102489619
C   C89       1.0  0.73363  0.79844  0.46980  1.0000 -0.1171202637
C   C90       1.0  0.75607  0.82119  0.46600  1.0000 -0.1466390278
C   C91       1.0  0.22256  0.48644  0.57937  1.0000 0.5675044467
C   C92       1.0  0.20299  0.47960  0.62628  1.0000 -0.0481859322
C   C93       1.0  0.16252  0.47294  0.64990  1.0000 -0.1102489619
C   C94       1.0  0.99814  0.46975  0.79842  1.0000 -0.1171202637
C   C95       1.0  0.95673  0.46599  0.82118  1.0000 -0.1466390278
C   C96       1.0  0.57954  0.71132  0.22265  1.0000 0.5675044467
C   C97       1.0  0.62646  0.69106  0.20316  1.0000 -0.0481859322
C   C98       1.0  0.64989  0.71469  0.16259  1.0000 -0.1102489619
C   C99       1.0  0.79838  0.73366  0.99814  1.0000 -0.1171202637
C   C100      1.0  0.82116  0.75606  0.95674  1.0000 -0.1466390278
C   C101      1.0  0.71171  0.22245  0.57923  1.0000 0.5675044467
C   C102      1.0  0.69130  0.20297  0.62616  1.0000 -0.0481859322
C   C103      1.0  0.71471  0.16254  0.64992  1.0000 -0.1102489619
C   C104      1.0  0.73369  0.99812  0.79842  1.0000 -0.1171202637
C   C105      1.0  0.75613  0.95672  0.82116  1.0000 -0.1466390278
C   C106      1.0  0.48634  0.57937  0.22266  1.0000 0.5675044467
C   C107      1.0  0.47942  0.62621  0.20314  1.0000 -0.0481859322
C   C108      1.0  0.47279  0.64983  0.16260  1.0000 -0.1102489619
C   C109      1.0  0.46981  0.79845  0.99811  1.0000 -0.1171202637
C   C110      1.0  0.46603  0.82117  0.95672  1.0000 -0.1466390278
C   C111      1.0  0.57934  0.48638  0.71166  1.0000 0.5675044467
C   C112      1.0  0.62618  0.47954  0.69121  1.0000 -0.0481859322
C   C113      1.0  0.64985  0.47283  0.71473  1.0000 -0.1102489619
C   C114      1.0  0.79846  0.46978  0.73363  1.0000 -0.1171202637
C   C115      1.0  0.82118  0.46600  0.75609  1.0000 -0.1466390278
C   C116      1.0  0.22241  0.71170  0.48659  1.0000 0.5675044467
C   C117      1.0  0.20289  0.69129  0.47965  1.0000 -0.0481859322
C   C118      1.0  0.16246  0.71476  0.47288  1.0000 -0.1102489619
C   C119      1.0  0.99813  0.73365  0.46976  1.0000 -0.1171202637
C   C120      1.0  0.95674  0.75610  0.46598  1.0000 -0.1466390278
C   C121      1.0  0.22259  0.57937  0.48640  1.0000 0.5675044467
C   C122      1.0  0.20301  0.62626  0.47955  1.0000 -0.0481859322
C   C123      1.0  0.16250  0.64987  0.47296  1.0000 -0.1102489619
C   C124      1.0  0.99815  0.79845  0.46976  1.0000 -0.1171202637
C   C125      1.0  0.95675  0.82119  0.46598  1.0000 -0.1466390278
C   C126      1.0  0.57954  0.22253  0.71158  1.0000 0.5675044467
C   C127      1.0  0.62629  0.20300  0.69114  1.0000 -0.0481859322
C   C128      1.0  0.64987  0.16249  0.71473  1.0000 -0.1102489619
C   C129      1.0  0.79850  0.99811  0.73361  1.0000 -0.1171202637
C   C130      1.0  0.82122  0.95671  0.75605  1.0000 -0.1466390278
C   C131      1.0  0.48655  0.71167  0.22261  1.0000 0.5675044467
C   C132      1.0  0.47950  0.69120  0.20315  1.0000 -0.0481859322
C   C133      1.0  0.47270  0.71465  0.16275  1.0000 -0.1102489619
C   C134      1.0  0.46980  0.73363  0.99813  1.0000 -0.1171202637
C   C135      1.0  0.46603  0.75607  0.95673  1.0000 -0.1466390278
C   C136      1.0  0.71158  0.48660  0.57929  1.0000 0.5675044467
C   C137      1.0  0.69116  0.47956  0.62621  1.0000 -0.0481859322
C   C138      1.0  0.71466  0.47284  0.64988  1.0000 -0.1102489619
C   C139      1.0  0.73363  0.46978  0.79842  1.0000 -0.1171202637
C   C140      1.0  0.75607  0.46600  0.82117  1.0000 -0.1466390278
C   C141      1.0  0.22247  0.48641  0.71169  1.0000 0.5675044467
C   C142      1.0  0.20287  0.47968  0.69126  1.0000 -0.0481859322
C   C143      1.0  0.16240  0.47296  0.71478  1.0000 -0.1102489619
C   C144      1.0  0.99808  0.46976  0.73363  1.0000 -0.1171202637
C   C145      1.0  0.95668  0.46600  0.75610  1.0000 -0.1466390278
C   C146      1.0  0.57941  0.71173  0.48635  1.0000 0.5675044467
C   C147      1.0  0.62627  0.69126  0.47944  1.0000 -0.0481859322
C   C148      1.0  0.64996  0.71479  0.47264  1.0000 -0.1102489619
C   C149      1.0  0.79845  0.73364  0.46980  1.0000 -0.1171202637
C   C150      1.0  0.82118  0.75609  0.46600  1.0000 -0.1466390278
C   C151      1.0  0.48635  0.22250  0.57940  1.0000 0.5675044467
C   C152      1.0  0.47941  0.20300  0.62624  1.0000 -0.0481859322
C   C153      1.0  0.47289  0.16243  0.64991  1.0000 -0.1102489619
C   C154      1.0  0.46980  0.99811  0.79849  1.0000 -0.1171202637
C   C155      1.0  0.46603  0.95671  0.82121  1.0000 -0.1466390278
C   C156      1.0  0.71223  0.57936  0.22180  1.0000 0.5675044467
C   C157      1.0  0.69156  0.62619  0.20263  1.0000 -0.0481859322
C   C158      1.0  0.71497  0.65011  0.16238  1.0000 -0.1102489619
C   C159      1.0  0.73362  0.79852  0.99805  1.0000 -0.1171202637
C   C160      1.0  0.75611  0.82120  0.95666  1.0000 -0.1466390278
C   C161      1.0  0.22260  0.71161  0.57937  1.0000 0.5675044467
C   C162      1.0  0.20311  0.69119  0.62626  1.0000 -0.0481859322
C   C163      1.0  0.16257  0.71464  0.64987  1.0000 -0.1102489619
C   C164      1.0  0.99819  0.73359  0.79843  1.0000 -0.1171202637
C   C165      1.0  0.95680  0.75605  0.82115  1.0000 -0.1466390278
C   C166      1.0  0.57933  0.48643  0.22231  1.0000 0.5675044467
C   C167      1.0  0.62616  0.47946  0.20302  1.0000 -0.0481859322
C   C168      1.0  0.64994  0.47276  0.16258  1.0000 -0.1102489619
C   C169      1.0  0.79844  0.46979  0.99819  1.0000 -0.1171202637
C   C170      1.0  0.82115  0.46601  0.95678  1.0000 -0.1466390278
C   C171      1.0  0.48634  0.57942  0.71190  1.0000 0.5675044467
C   C172      1.0  0.47950  0.62626  0.69133  1.0000 -0.0481859322
C   C173      1.0  0.47271  0.64997  0.71481  1.0000 -0.1102489619
C   C174      1.0  0.46978  0.79844  0.73365  1.0000 -0.1171202637
C   C175      1.0  0.46601  0.82116  0.75610  1.0000 -0.1466390278
C   C176      1.0  0.71164  0.22261  0.48645  1.0000 0.5675044467
C   C177      1.0  0.69132  0.20308  0.47943  1.0000 -0.0481859322
C   C178      1.0  0.71473  0.16252  0.47287  1.0000 -0.1102489619
C   C179      1.0  0.73361  0.99814  0.46982  1.0000 -0.1171202637
C   C180      1.0  0.75606  0.95676  0.46601  1.0000 -0.1466390278
C   C181      1.0  0.42055  0.77748  0.51360  1.0000 0.5675044467
C   C182      1.0  0.37371  0.79703  0.52048  1.0000 -0.0481859322
C   C183      1.0  0.35006  0.83751  0.52713  1.0000 -0.1102489619
C   C184      1.0  0.20156  0.00187  0.53020  1.0000 -0.1171202637
C   C185      1.0  0.17883  0.04326  0.53398  1.0000 -0.1434947938
C   C186      1.0  0.77803  0.42051  0.28772  1.0000 0.5675044467
C   C187      1.0  0.79735  0.37369  0.30839  1.0000 -0.0481859322
C   C188      1.0  0.83784  0.34991  0.28514  1.0000 -0.1102489619
C   C189      1.0  0.00193  0.20149  0.26637  1.0000 -0.1171202637
C   C190      1.0  0.04332  0.17879  0.24391  1.0000 -0.1466390278
C   C191      1.0  0.28834  0.51358  0.77744  1.0000 0.5675044467
C   C192      1.0  0.30876  0.52059  0.79690  1.0000 -0.0481859322
C   C193      1.0  0.28527  0.52739  0.83731  1.0000 -0.1102489619
C   C194      1.0  0.26637  0.53018  0.00182  1.0000 -0.1171202637
C   C195      1.0  0.24392  0.53399  0.04322  1.0000 -0.1466390278
C   C196      1.0  0.51359  0.28838  0.42063  1.0000 0.5675044467
C   C197      1.0  0.52052  0.30879  0.37377  1.0000 -0.0481859322
C   C198      1.0  0.52737  0.28521  0.35008  1.0000 -0.1102489619
C   C199      1.0  0.53020  0.26638  0.20162  1.0000 -0.1171202637
C   C200      1.0  0.53398  0.24395  0.17887  1.0000 -0.1434947938
C   C201      1.0  0.51378  0.77737  0.28852  1.0000 0.5675044467
C   C202      1.0  0.52063  0.79690  0.30884  1.0000 -0.0481859322
C   C203      1.0  0.52715  0.83750  0.28525  1.0000 -0.1102489619
C   C204      1.0  0.53019  0.00195  0.26639  1.0000 -0.1171202637
C   C205      1.0  0.53397  0.04334  0.24392  1.0000 -0.1466390278
C   C206      1.0  0.28852  0.42051  0.51353  1.0000 0.5675044467
C   C207      1.0  0.30887  0.37371  0.52041  1.0000 -0.0481859322
C   C208      1.0  0.28522  0.35005  0.52735  1.0000 -0.1102489619
C   C209      1.0  0.26636  0.20158  0.53020  1.0000 -0.1171202637
C   C210      1.0  0.24395  0.17883  0.53396  1.0000 -0.1466390278
C   C211      1.0  0.77727  0.51378  0.42056  1.0000 0.5675044467
C   C212      1.0  0.79685  0.52058  0.37383  1.0000 -0.0481859322
C   C213      1.0  0.83734  0.52730  0.35015  1.0000 -0.1102489619
C   C214      1.0  0.00180  0.53022  0.20153  1.0000 -0.1171202637
C   C215      1.0  0.04321  0.53397  0.17881  1.0000 -0.1466390278
C   C216      1.0  0.42070  0.28836  0.77747  1.0000 0.5675044467
C   C217      1.0  0.37376  0.30882  0.79703  1.0000 -0.0481859322
C   C218      1.0  0.35005  0.28529  0.83736  1.0000 -0.1102489619
C   C219      1.0  0.20160  0.26634  0.00185  1.0000 -0.1171202637
C   C220      1.0  0.17884  0.24392  0.04325  1.0000 -0.1466390278
C   C221      1.0  0.28825  0.77744  0.42054  1.0000 0.5675044467
C   C222      1.0  0.30870  0.79687  0.37374  1.0000 -0.0481859322
C   C223      1.0  0.28521  0.83736  0.35004  1.0000 -0.1102489619
C   C224      1.0  0.26642  0.00185  0.20154  1.0000 -0.1171202637
C   C225      1.0  0.24395  0.04325  0.17884  1.0000 -0.1466390278
C   C226      1.0  0.51355  0.42060  0.77775  1.0000 0.5675044467
C   C227      1.0  0.52044  0.37378  0.79709  1.0000 -0.0481859322
C   C228      1.0  0.52726  0.35002  0.83748  1.0000 -0.1102489619
C   C229      1.0  0.53022  0.20154  0.00187  1.0000 -0.1171202637
C   C230      1.0  0.53398  0.17884  0.04328  1.0000 -0.1434947938
C   C231      1.0  0.42048  0.51374  0.28803  1.0000 0.5675044467
C   C232      1.0  0.37363  0.52068  0.30860  1.0000 -0.0481859322
C   C233      1.0  0.34991  0.52735  0.28521  1.0000 -0.1102489619
C   C234      1.0  0.20155  0.53019  0.26636  1.0000 -0.1171202637
C   C235      1.0  0.17882  0.53397  0.24390  1.0000 -0.1466390278
C   C236      1.0  0.77741  0.28836  0.51377  1.0000 0.5675044467
C   C237      1.0  0.79697  0.30877  0.52061  1.0000 -0.0481859322
C   C238      1.0  0.83742  0.28521  0.52734  1.0000 -0.1102489619
C   C239      1.0  0.00187  0.26638  0.53019  1.0000 -0.1171202637
C   C240      1.0  0.04328  0.24393  0.53396  1.0000 -0.1466390278
C   C241      1.0  0.77651  0.35284  0.51777  1.0000 -0.0700430681
C   C242      1.0  0.85712  0.30609  0.53070  1.0000 0.1120246654
C   C243      1.0  0.90026  0.28402  0.53172  1.0000 -0.0801290546
C   C244      1.0  0.93720  0.26599  0.53086  1.0000 -0.1102489619
C   C245      1.0  0.98096  0.24462  0.52982  1.0000 0.1120246654
C   C246      1.0  0.06420  0.19874  0.53831  1.0000 0.0789989873
C   C247      1.0  0.10791  0.17350  0.54507  1.0000 0.0729074249
C   C248      1.0  0.35284  0.77634  0.35299  1.0000 -0.0700430681
C   C249      1.0  0.30615  0.85701  0.30614  1.0000 0.1120246654
C   C250      1.0  0.28415  0.90018  0.28398  1.0000 -0.0801290546
C   C251      1.0  0.26613  0.93714  0.26590  1.0000 -0.1102489619
C   C252      1.0  0.24469  0.98092  0.24457  1.0000 0.1153579737
C   C253      1.0  0.19876  0.06416  0.19875  1.0000 0.0789989873
C   C254      1.0  0.17353  0.10789  0.17351  1.0000 0.0729074249
C   C255      1.0  0.51758  0.35304  0.77654  1.0000 -0.0700430681
C   C256      1.0  0.53039  0.30616  0.85720  1.0000 0.1120246654
C   C257      1.0  0.53155  0.28402  0.90028  1.0000 -0.0801290546
C   C258      1.0  0.53085  0.26593  0.93718  1.0000 -0.1102489619
C   C259      1.0  0.52989  0.24457  0.98094  1.0000 0.1153579737
C   C260      1.0  0.53832  0.19876  0.06420  1.0000 0.0789989873
C   C261      1.0  0.54505  0.17355  0.10792  1.0000 0.0729074249
C   C262      1.0  0.35290  0.51780  0.35276  1.0000 -0.0700430681
C   C263      1.0  0.30601  0.53066  0.30617  1.0000 0.1120246654
C   C264      1.0  0.28393  0.53170  0.28409  1.0000 -0.0801290546
C   C265      1.0  0.26592  0.53087  0.26598  1.0000 -0.1102489619
C   C266      1.0  0.24458  0.52983  0.24459  1.0000 0.1120246654
C   C267      1.0  0.19873  0.53831  0.19872  1.0000 0.0789989873
C   C268      1.0  0.17350  0.54505  0.17349  1.0000 0.0729074249
C   C269      1.0  0.77628  0.51779  0.35311  1.0000 -0.0700430681
C   C270      1.0  0.85701  0.53056  0.30625  1.0000 0.1120246654
C   C271      1.0  0.90017  0.53160  0.28403  1.0000 -0.0801290546
C   C272      1.0  0.93711  0.53082  0.26591  1.0000 -0.1102489619
C   C273      1.0  0.98087  0.52985  0.24455  1.0000 0.1120246654
C   C274      1.0  0.06414  0.53832  0.19873  1.0000 0.0789989873
C   C275      1.0  0.10789  0.54503  0.17351  1.0000 0.0729074249
C   C276      1.0  0.35298  0.35285  0.51759  1.0000 -0.0700430681
C   C277      1.0  0.30613  0.30616  0.53052  1.0000 0.1120246654
C   C278      1.0  0.28400  0.28408  0.53164  1.0000 -0.0801290546
C   C279      1.0  0.26593  0.26601  0.53087  1.0000 -0.1102489619
C   C280      1.0  0.24456  0.24461  0.52986  1.0000 0.1153579737
C   C281      1.0  0.19875  0.19871  0.53832  1.0000 0.0789989873
C   C282      1.0  0.17352  0.17348  0.54508  1.0000 0.0729074249
C   C283      1.0  0.51774  0.77647  0.35294  1.0000 -0.0700430681
C   C284      1.0  0.53055  0.85719  0.30608  1.0000 0.1120246654
C   C285      1.0  0.53163  0.90031  0.28402  1.0000 -0.0801290546
C   C286      1.0  0.53085  0.93724  0.26605  1.0000 -0.1102489619
C   C287      1.0  0.52983  0.98102  0.24465  1.0000 0.1153579737
C   C288      1.0  0.53832  0.06424  0.19874  1.0000 0.0789989873
C   C289      1.0  0.54505  0.10796  0.17352  1.0000 0.0729074249
C   C290      1.0  0.35286  0.35299  0.77663  1.0000 -0.0700430681
C   C291      1.0  0.30617  0.30621  0.85723  1.0000 0.1120246654
C   C292      1.0  0.28407  0.28401  0.90032  1.0000 -0.0801290546
C   C293      1.0  0.26602  0.26586  0.93722  1.0000 -0.1102489619
C   C294      1.0  0.24463  0.24453  0.98097  1.0000 0.1153579737
C   C295      1.0  0.19874  0.19872  0.06420  1.0000 0.0789989873
C   C296      1.0  0.17352  0.17350  0.10791  1.0000 0.0729074249
C   C297      1.0  0.77681  0.35307  0.35263  1.0000 -0.0700430681
C   C298      1.0  0.85732  0.30600  0.30614  1.0000 0.1120246654
C   C299      1.0  0.90039  0.28383  0.28412  1.0000 -0.0801290546
C   C300      1.0  0.93730  0.26582  0.26601  1.0000 -0.1102489619
C   C301      1.0  0.98103  0.24452  0.24461  1.0000 0.1120246654
C   C302      1.0  0.06423  0.19872  0.19873  1.0000 0.0789989873
C   C303      1.0  0.10793  0.17350  0.17349  1.0000 0.0729074249
C   C304      1.0  0.35292  0.51780  0.77636  1.0000 -0.0700430681
C   C305      1.0  0.30621  0.53057  0.85705  1.0000 0.1120246654
C   C306      1.0  0.28409  0.53166  0.90018  1.0000 -0.0801290546
C   C307      1.0  0.26598  0.53087  0.93712  1.0000 -0.1102489619
C   C308      1.0  0.24460  0.52983  0.98091  1.0000 0.1153579737
C   C309      1.0  0.19873  0.53833  0.06416  1.0000 0.0789989873
C   C310      1.0  0.17350  0.54505  0.10789  1.0000 0.0729074249
C   C311      1.0  0.51778  0.35288  0.35297  1.0000 -0.0700430681
C   C312      1.0  0.53060  0.30619  0.30616  1.0000 0.1120246654
C   C313      1.0  0.53164  0.28412  0.28404  1.0000 -0.0801290546
C   C314      1.0  0.53084  0.26601  0.26601  1.0000 -0.1102489619
C   C315      1.0  0.52984  0.24460  0.24465  1.0000 0.1153579737
C   C316      1.0  0.53832  0.19877  0.19877  1.0000 0.0789989873
C   C317      1.0  0.54505  0.17355  0.17353  1.0000 0.0729074249
C   C318      1.0  0.35290  0.77659  0.51761  1.0000 -0.0700430681
C   C319      1.0  0.30611  0.85718  0.53052  1.0000 0.1120246654
C   C320      1.0  0.28400  0.90028  0.53164  1.0000 -0.0801290546
C   C321      1.0  0.26594  0.93720  0.53086  1.0000 -0.1102489619
C   C322      1.0  0.24459  0.98096  0.52984  1.0000 0.1153579737
C   C323      1.0  0.19874  0.06418  0.53833  1.0000 0.0789989873
C   C324      1.0  0.17351  0.10789  0.54508  1.0000 0.0729074249
C   C325      1.0  0.64716  0.22355  0.48225  1.0000 -0.0700430681
C   C326      1.0  0.69381  0.14282  0.46957  1.0000 0.1120246654
C   C327      1.0  0.71591  0.09973  0.46840  1.0000 -0.0801290546
C   C328      1.0  0.73400  0.06283  0.46911  1.0000 -0.1102489619
C   C329      1.0  0.75538  0.01906  0.47015  1.0000 0.1120246654
C   C330      1.0  0.80125  0.93583  0.46165  1.0000 0.0789989873
C   C331      1.0  0.82647  0.89210  0.45496  1.0000 0.0729074249
C   C332      1.0  0.22353  0.64704  0.64711  1.0000 -0.0700430681
C   C333      1.0  0.14285  0.69377  0.69381  1.0000 0.1120246654
C   C334      1.0  0.09977  0.71592  0.71590  1.0000 -0.0801290546
C   C335      1.0  0.06287  0.73400  0.73399  1.0000 -0.1102489619
C   C336      1.0  0.01911  0.75536  0.75539  1.0000 0.1120246654
C   C337      1.0  0.93589  0.80124  0.80123  1.0000 0.0789989873
C   C338      1.0  0.89216  0.82646  0.82644  1.0000 0.0729074249
C   C339      1.0  0.64682  0.48226  0.22369  1.0000 -0.0700430681
C   C340      1.0  0.69383  0.46954  0.14296  1.0000 0.1120246654
C   C341      1.0  0.71601  0.46842  0.09984  1.0000 -0.0801290546
C   C342      1.0  0.73404  0.46915  0.06292  1.0000 -0.1102489619
C   C343      1.0  0.75540  0.47013  0.01914  1.0000 0.1120246654
C   C344      1.0  0.80124  0.46167  0.93586  1.0000 0.0789989873
C   C345      1.0  0.82644  0.45496  0.89212  1.0000 0.0729074249
C   C346      1.0  0.48249  0.64702  0.64713  1.0000 -0.0700430681
C   C347      1.0  0.46958  0.69384  0.69382  1.0000 0.1120246654
C   C348      1.0  0.46840  0.71595  0.71596  1.0000 -0.0801290546
C   C349      1.0  0.46912  0.73403  0.73406  1.0000 -0.1102489619
C   C350      1.0  0.47013  0.75541  0.75543  1.0000 0.1120246654
C   C351      1.0  0.46167  0.80125  0.80128  1.0000 0.0789989873
C   C352      1.0  0.45496  0.82647  0.82650  1.0000 0.0729074249
C   C353      1.0  0.48243  0.22342  0.64696  1.0000 -0.0700430681
C   C354      1.0  0.46955  0.14281  0.69383  1.0000 0.1120246654
C   C355      1.0  0.46839  0.09971  0.71605  1.0000 -0.0801290546
C   C356      1.0  0.46913  0.06279  0.73415  1.0000 -0.1102489619
C   C357      1.0  0.47015  0.01904  0.75547  1.0000 0.1153579737
C   C358      1.0  0.46167  0.93579  0.80129  1.0000 0.0789989873
C   C359      1.0  0.45495  0.89207  0.82650  1.0000 0.0729074249
C   C360      1.0  0.64707  0.64712  0.48228  1.0000 -0.0700430681
C   C361      1.0  0.69380  0.69381  0.46956  1.0000 0.1120246654
C   C362      1.0  0.71595  0.71593  0.46842  1.0000 -0.0801290546
C   C363      1.0  0.73405  0.73402  0.46914  1.0000 -0.1102489619
C   C364      1.0  0.75541  0.75540  0.47016  1.0000 0.1120246654
C   C365      1.0  0.80126  0.80128  0.46165  1.0000 0.0789989873
C   C366      1.0  0.82647  0.82649  0.45497  1.0000 0.0729074249
C   C367      1.0  0.22332  0.48263  0.64712  1.0000 -0.0700430681
C   C368      1.0  0.14269  0.46977  0.69379  1.0000 0.1120246654
C   C369      1.0  0.09962  0.46852  0.71588  1.0000 -0.0801290546
C   C370      1.0  0.06275  0.46916  0.73395  1.0000 -0.1102489619
C   C371      1.0  0.01902  0.47010  0.75538  1.0000 0.1120246654
C   C372      1.0  0.93578  0.46165  0.80129  1.0000 0.0789989873
C   C373      1.0  0.89205  0.45497  0.82651  1.0000 0.0729074249
C   C374      1.0  0.64746  0.64689  0.22341  1.0000 -0.0700430681
C   C375      1.0  0.69382  0.69395  0.14276  1.0000 0.1120246654
C   C376      1.0  0.71583  0.71613  0.09966  1.0000 -0.0801290546
C   C377      1.0  0.73393  0.73418  0.06275  1.0000 -0.1102489619
C   C378      1.0  0.75535  0.75550  0.01900  1.0000 0.1153579737
C   C379      1.0  0.80130  0.80126  0.93578  1.0000 0.0789989873
C   C380      1.0  0.82655  0.82646  0.89205  1.0000 0.0729074249
C   C381      1.0  0.64711  0.22342  0.64697  1.0000 -0.0700430681
C   C382      1.0  0.69375  0.14274  0.69380  1.0000 0.1120246654
C   C383      1.0  0.71592  0.09966  0.71593  1.0000 -0.0801290546
C   C384      1.0  0.73410  0.06277  0.73397  1.0000 -0.1102489619
C   C385      1.0  0.75548  0.01902  0.75537  1.0000 0.1120246654
C   C386      1.0  0.80133  0.93579  0.80124  1.0000 0.0789989873
C   C387      1.0  0.82656  0.89206  0.82643  1.0000 0.0729074249
C   C388      1.0  0.48227  0.64703  0.22361  1.0000 -0.0700430681
C   C389      1.0  0.46952  0.69374  0.14290  1.0000 0.1120246654
C   C390      1.0  0.46838  0.71591  0.09975  1.0000 -0.0801290546
C   C391      1.0  0.46911  0.73407  0.06282  1.0000 -0.1102489619
C   C392      1.0  0.47013  0.75543  0.01904  1.0000 0.1153579737
C   C393      1.0  0.46168  0.80125  0.93580  1.0000 0.0789989873
C   C394      1.0  0.45494  0.82648  0.89209  1.0000 0.0729074249
C   C395      1.0  0.64700  0.48242  0.64707  1.0000 -0.0700430681
C   C396      1.0  0.69374  0.46966  0.69377  1.0000 0.1120246654
C   C397      1.0  0.71592  0.46847  0.71590  1.0000 -0.0801290546
C   C398      1.0  0.73406  0.46914  0.73398  1.0000 -0.1102489619
C   C399      1.0  0.75543  0.47013  0.75538  1.0000 0.1120246654
C   C400      1.0  0.80125  0.46166  0.80128  1.0000 0.0789989873
C   C401      1.0  0.82644  0.45497  0.82651  1.0000 0.0729074249
C   C402      1.0  0.22338  0.64712  0.48253  1.0000 -0.0700430681
C   C403      1.0  0.14270  0.69375  0.46977  1.0000 0.1120246654
C   C404      1.0  0.09964  0.71587  0.46854  1.0000 -0.0801290546
C   C405      1.0  0.06276  0.73400  0.46917  1.0000 -0.1102489619
C   C406      1.0  0.01904  0.75542  0.47012  1.0000 0.1120246654
C   C407      1.0  0.93582  0.80129  0.46163  1.0000 0.0789989873
C   C408      1.0  0.89207  0.82649  0.45498  1.0000 0.0729074249
C   C409      1.0  0.12947  0.12946  0.54733  1.0000 -0.1831886063
C   C410      1.0  0.12950  0.12946  0.19371  1.0000 -0.1831886063
C   C411      1.0  0.54729  0.19377  0.12950  1.0000 -0.1831886063
C   C412      1.0  0.19371  0.54730  0.12946  1.0000 -0.1831886063
C   C413      1.0  0.12947  0.54726  0.19373  1.0000 -0.1831886063
C   C414      1.0  0.12948  0.19370  0.54732  1.0000 -0.1831886063
C   C415      1.0  0.54729  0.12952  0.12949  1.0000 -0.1831886063
C   C416      1.0  0.19375  0.12947  0.12948  1.0000 -0.1831886063
C   C417      1.0  0.12949  0.19373  0.12946  1.0000 -0.1831886063
C   C418      1.0  0.12946  0.54728  0.12947  1.0000 -0.1831886063
C   C419      1.0  0.54729  0.12952  0.19374  1.0000 -0.1831886063
C   C420      1.0  0.19373  0.12945  0.54733  1.0000 -0.1831886063
C   C421      1.0  0.87049  0.87052  0.45275  1.0000 -0.1831886063
C   C422      1.0  0.87060  0.87050  0.80621  1.0000 -0.1831886063
C   C423      1.0  0.80622  0.45274  0.87054  1.0000 -0.1831886063
C   C424      1.0  0.45271  0.80625  0.87052  1.0000 -0.1831886063
C   C425      1.0  0.45273  0.87050  0.80627  1.0000 -0.1831886063
C   C426      1.0  0.80624  0.87052  0.45273  1.0000 -0.1831886063
C   C427      1.0  0.87048  0.45274  0.87054  1.0000 -0.1831886063
C   C428      1.0  0.87058  0.80624  0.87048  1.0000 -0.1831886063
C   C429      1.0  0.80634  0.87049  0.87046  1.0000 -0.1831886063
C   C430      1.0  0.45270  0.87051  0.87053  1.0000 -0.1831886063
C   C431      1.0  0.87047  0.45273  0.80630  1.0000 -0.1831886063
C   C432      1.0  0.87049  0.80627  0.45274  1.0000 -0.1831886063
O   O1        1.0  0.73921  0.44118  0.51019  1.0000 -0.4825757182
O   O2        1.0  0.79878  0.44049  0.51059  1.0000 -0.4880060508
O   O3        1.0  0.44134  0.73919  0.30924  1.0000 -0.4825757182
O   O4        1.0  0.44076  0.79868  0.25011  1.0000 -0.4880060508
O   O5        1.0  0.51002  0.30949  0.73921  1.0000 -0.4825757182
O   O6        1.0  0.51038  0.25022  0.79872  1.0000 -0.4880060508
O   O7        1.0  0.30939  0.51014  0.44124  1.0000 -0.4825757182
O   O8        1.0  0.25023  0.51033  0.44052  1.0000 -0.4880060508
O   O9        1.0  0.73891  0.51009  0.30970  1.0000 -0.4825757182
O   O10       1.0  0.79849  0.51033  0.25040  1.0000 -0.4880060508
O   O11       1.0  0.44132  0.30922  0.51009  1.0000 -0.4880060508
O   O12       1.0  0.44052  0.25003  0.51033  1.0000 -0.4825757182
O   O13       1.0  0.51012  0.73940  0.44116  1.0000 -0.4825757182
O   O14       1.0  0.51040  0.79894  0.44067  1.0000 -0.4880060508
O   O15       1.0  0.30934  0.44134  0.73936  1.0000 -0.4825757182
O   O16       1.0  0.24999  0.44067  0.79895  1.0000 -0.4880060508
O   O17       1.0  0.73929  0.30941  0.44111  1.0000 -0.4825757182
O   O18       1.0  0.79903  0.25020  0.44035  1.0000 -0.4880060508
O   O19       1.0  0.44139  0.51007  0.73922  1.0000 -0.4825757182
O   O20       1.0  0.44061  0.51027  0.79899  1.0000 -0.4880060508
O   O21       1.0  0.50993  0.44147  0.30938  1.0000 -0.4825757182
O   O22       1.0  0.51019  0.44066  0.25018  1.0000 -0.4880060508
O   O23       1.0  0.30923  0.73929  0.51019  1.0000 -0.4825757182
O   O24       1.0  0.25005  0.79905  0.51041  1.0000 -0.4880060508
O   O25       1.0  0.55881  0.26063  0.48986  1.0000 -0.4825757182
O   O26       1.0  0.55909  0.20109  0.48977  1.0000 -0.4880060508
O   O27       1.0  0.26083  0.55873  0.69068  1.0000 -0.4825757182
O   O28       1.0  0.20113  0.55910  0.74990  1.0000 -0.4880060508
O   O29       1.0  0.69032  0.48987  0.26120  1.0000 -0.4825757182
O   O30       1.0  0.74945  0.48970  0.20141  1.0000 -0.4880060508
O   O31       1.0  0.48994  0.69066  0.55868  1.0000 -0.4825757182
O   O32       1.0  0.48987  0.74984  0.55926  1.0000 -0.4880060508
O   O33       1.0  0.48980  0.26079  0.69067  1.0000 -0.4825757182
O   O34       1.0  0.48979  0.20116  0.74982  1.0000 -0.4880060508
O   O35       1.0  0.69064  0.55866  0.49000  1.0000 -0.4825757182
O   O36       1.0  0.74985  0.55901  0.49006  1.0000 -0.4880060508
O   O37       1.0  0.26069  0.48994  0.55872  1.0000 -0.4825757182
O   O38       1.0  0.20118  0.48980  0.55906  1.0000 -0.4880060508
O   O39       1.0  0.55876  0.69044  0.26074  1.0000 -0.4825757182
O   O40       1.0  0.55932  0.74956  0.20124  1.0000 -0.4880060508
O   O41       1.0  0.69068  0.26062  0.55864  1.0000 -0.4825757182
O   O42       1.0  0.75004  0.20105  0.55898  1.0000 -0.4880060508
O   O43       1.0  0.48986  0.55861  0.26081  1.0000 -0.4825757182
O   O44       1.0  0.48965  0.55936  0.20106  1.0000 -0.4880060508
O   O45       1.0  0.55857  0.48990  0.69076  1.0000 -0.4825757182
O   O46       1.0  0.55931  0.48967  0.74999  1.0000 -0.4880060508
O   O47       1.0  0.26057  0.69068  0.49006  1.0000 -0.4825757182
O   O48       1.0  0.20102  0.75003  0.48991  1.0000 -0.4880060508
O   O49       1.0  0.26069  0.55872  0.48995  1.0000 -0.4825757182
O   O50       1.0  0.20122  0.55908  0.48974  1.0000 -0.4880060508
O   O51       1.0  0.55870  0.26069  0.69076  1.0000 -0.4825757182
O   O52       1.0  0.55954  0.20092  0.74987  1.0000 -0.4880060508
O   O53       1.0  0.49003  0.69063  0.26074  1.0000 -0.4825757182
O   O54       1.0  0.48994  0.74999  0.20132  1.0000 -0.4880060508
O   O55       1.0  0.69063  0.48996  0.55867  1.0000 -0.4825757182
O   O56       1.0  0.74985  0.49007  0.55900  1.0000 -0.4880060508
O   O57       1.0  0.26063  0.48998  0.69074  1.0000 -0.4825757182
O   O58       1.0  0.20095  0.48961  0.75001  1.0000 -0.4825757182
O   O59       1.0  0.55873  0.69080  0.48979  1.0000 -0.4825757182
O   O60       1.0  0.55926  0.75008  0.48960  1.0000 -0.4880060508
O   O61       1.0  0.49009  0.26059  0.55865  1.0000 -0.4880060508
O   O62       1.0  0.48962  0.20098  0.55932  1.0000 -0.4825757182
O   O63       1.0  0.69151  0.55861  0.26005  1.0000 -0.4825757182
O   O64       1.0  0.75051  0.55934  0.20014  1.0000 -0.4880060508
O   O65       1.0  0.26073  0.69061  0.55873  1.0000 -0.4825757182
O   O66       1.0  0.20114  0.74991  0.55913  1.0000 -0.4880060508
O   O67       1.0  0.55853  0.48997  0.26044  1.0000 -0.4825757182
O   O68       1.0  0.55932  0.48975  0.20067  1.0000 -0.4880060508
O   O69       1.0  0.48986  0.55866  0.69101  1.0000 -0.4825757182
O   O70       1.0  0.48965  0.55938  0.75024  1.0000 -0.4880060508
O   O71       1.0  0.69062  0.26081  0.48985  1.0000 -0.4825757182
O   O72       1.0  0.74992  0.20118  0.48986  1.0000 -0.4880060508
O   O73       1.0  0.44127  0.73932  0.51005  1.0000 -0.4825757182
O   O74       1.0  0.44067  0.79903  0.51018  1.0000 -0.4880060508
O   O75       1.0  0.74000  0.44126  0.30874  1.0000 -0.4825757182
O   O76       1.0  0.79953  0.44062  0.24936  1.0000 -0.4880060508
O   O77       1.0  0.30935  0.51019  0.73926  1.0000 -0.4825757182
O   O78       1.0  0.25007  0.51012  0.79888  1.0000 -0.4880060508
O   O79       1.0  0.51029  0.30930  0.44127  1.0000 -0.4825757182
O   O80       1.0  0.51015  0.25010  0.44080  1.0000 -0.4880060508
O   O81       1.0  0.51023  0.73920  0.30936  1.0000 -0.4825757182
O   O82       1.0  0.51045  0.79898  0.25030  1.0000 -0.4880060508
O   O83       1.0  0.30939  0.44126  0.51011  1.0000 -0.4825757182
O   O84       1.0  0.25024  0.44059  0.51023  1.0000 -0.4880060508
O   O85       1.0  0.73915  0.51015  0.44133  1.0000 -0.4825757182
O   O86       1.0  0.79875  0.51057  0.44060  1.0000 -0.4880060508
O   O87       1.0  0.44130  0.30937  0.73934  1.0000 -0.4825757182
O   O88       1.0  0.44105  0.24999  0.79881  1.0000 -0.4880060508
O   O89       1.0  0.30916  0.73929  0.44136  1.0000 -0.4825757182
O   O90       1.0  0.24998  0.79905  0.44055  1.0000 -0.4880060508
O   O91       1.0  0.51004  0.44138  0.73962  1.0000 -0.4825757182
O   O92       1.0  0.51024  0.44059  0.79940  1.0000 -0.4880060508
O   O93       1.0  0.44125  0.51020  0.30892  1.0000 -0.4825757182
O   O94       1.0  0.44052  0.51034  0.24973  1.0000 -0.4880060508
O   O95       1.0  0.73928  0.30932  0.51013  1.0000 -0.4825757182
O   O96       1.0  0.79899  0.25008  0.51046  1.0000 -0.4880060508
