# DDEC6 charges by PACMAN v1.1 (https://github.com/mtap-research/PACMAN-charge/)
data_2010[Bi][dia]3[ASR]1
_chemical_formula_sum              "Bi2 H16 C32 O16"
_cell_length_a       10.3558
_cell_length_b       10.3558
_cell_length_c       13.2435
_cell_angle_alpha    82.5904
_cell_angle_beta     97.4096
_cell_angle_gamma    62.2556

_symmetry_space_group_name_H-M    "P 1"
_symmetry_Int_Tables_number       1

loop_
  _symmetry_equiv_pos_as_xyz
  'x, y, z'

loop_
  _atom_site_type_symbol
  _atom_site_label
  _atom_site_symmetry_multiplicity
  _atom_site_fract_x
  _atom_site_fract_y
  _atom_site_fract_z
  _atom_site_occupancy
  _atom_site_charge
Bi  Bi1       1.0  0.42444  0.42444  0.75000  1.0000 1.3687470148
Bi  Bi2       1.0  0.57556  0.57556  0.25000  1.0000 1.3687470148
H   H1        1.0  0.96120  0.89640  0.65010  1.0000 0.1311710573
H   H2        1.0  0.89640  0.96120  0.84990  1.0000 0.1311710573
H   H3        1.0  0.03880  0.10360  0.34990  1.0000 0.1311710573
H   H4        1.0  0.10360  0.03880  0.15010  1.0000 0.1311710573
H   H5        1.0  0.19720  0.85560  0.42830  1.0000 0.1394605341
H   H6        1.0  0.85560  0.19720  0.07170  1.0000 0.1394605341
H   H7        1.0  0.80280  0.14440  0.57170  1.0000 0.1394605341
H   H8        1.0  0.14440  0.80280  0.92830  1.0000 0.1394605341
H   H9        1.0  0.03570  0.37470  0.86450  1.0000 0.1394605341
H   H10       1.0  0.37470  0.03570  0.63550  1.0000 0.1394605341
H   H11       1.0  0.96430  0.62530  0.13550  1.0000 0.1394605341
H   H12       1.0  0.62530  0.96430  0.36450  1.0000 0.1394605341
H   H13       1.0  0.16680  0.57900  0.05920  1.0000 0.1311710573
H   H14       1.0  0.57900  0.16680  0.44080  1.0000 0.1311710573
H   H15       1.0  0.83320  0.42100  0.94080  1.0000 0.1311710573
H   H16       1.0  0.42100  0.83320  0.55920  1.0000 0.1311710573
C   C1        1.0  0.20540  0.69200  0.60290  1.0000 0.5377042184
C   C2        1.0  0.69200  0.20540  0.89710  1.0000 0.5377042184
C   C3        1.0  0.79460  0.30800  0.39710  1.0000 0.5377042184
C   C4        1.0  0.30800  0.79460  0.10290  1.0000 0.5377042184
C   C5        1.0  0.09740  0.85040  0.54870  1.0000 0.0037171038
C   C6        1.0  0.85040  0.09740  0.95130  1.0000 0.0037171038
C   C7        1.0  0.90260  0.14960  0.45130  1.0000 0.0037171038
C   C8        1.0  0.14960  0.90260  0.04870  1.0000 0.0037171038
C   C9        1.0  0.97750  0.93790  0.58990  1.0000 -0.0885435731
C   C10       1.0  0.93790  0.97750  0.91010  1.0000 -0.0971470361
C   C11       1.0  0.02250  0.06210  0.41010  1.0000 -0.0971470361
C   C12       1.0  0.06210  0.02250  0.08990  1.0000 -0.0971470361
C   C13       1.0  0.11830  0.91350  0.45770  1.0000 -0.0885435731
C   C14       1.0  0.91350  0.11830  0.04230  1.0000 -0.0885435731
C   C15       1.0  0.88170  0.08650  0.54230  1.0000 -0.0885435731
C   C16       1.0  0.08650  0.88170  0.95770  1.0000 -0.0885435731
C   C17       1.0  0.24540  0.45120  0.90030  1.0000 0.5377042184
C   C18       1.0  0.45120  0.24540  0.59970  1.0000 0.5377042184
C   C19       1.0  0.75460  0.54880  0.09970  1.0000 0.5377042184
C   C20       1.0  0.54880  0.75460  0.40030  1.0000 0.5377042184
C   C21       1.0  0.12080  0.47160  0.95380  1.0000 0.0037171038
C   C22       1.0  0.47160  0.12080  0.54620  1.0000 0.0037171038
C   C23       1.0  0.87920  0.52840  0.04620  1.0000 0.0037171038
C   C24       1.0  0.52840  0.87920  0.45380  1.0000 0.0037171038
C   C25       1.0  0.02130  0.42490  0.91890  1.0000 -0.0971470361
C   C26       1.0  0.42490  0.02130  0.58110  1.0000 -0.0971470361
C   C27       1.0  0.97870  0.57510  0.08110  1.0000 -0.0971470361
C   C28       1.0  0.57510  0.97870  0.41890  1.0000 -0.0971470361
C   C29       1.0  0.10000  0.54740  0.03560  1.0000 -0.0848104616
C   C30       1.0  0.54740  0.10000  0.46440  1.0000 -0.0885435731
C   C31       1.0  0.90000  0.45260  0.96440  1.0000 -0.0885435731
C   C32       1.0  0.45260  0.90000  0.53560  1.0000 -0.0885435731
O   O1        1.0  0.17740  0.63440  0.67990  1.0000 -0.5067745109
O   O2        1.0  0.63440  0.17740  0.82010  1.0000 -0.5067745109
O   O3        1.0  0.82260  0.36560  0.32010  1.0000 -0.5067745109
O   O4        1.0  0.36560  0.82260  0.17990  1.0000 -0.5067745109
O   O5        1.0  0.32150  0.62230  0.57110  1.0000 -0.4805050942
O   O6        1.0  0.62230  0.32150  0.92890  1.0000 -0.4805050942
O   O7        1.0  0.67850  0.37770  0.42890  1.0000 -0.4805050942
O   O8        1.0  0.37770  0.67850  0.07110  1.0000 -0.4805050942
O   O9        1.0  0.27640  0.36380  0.83610  1.0000 -0.4805050942
O   O10       1.0  0.36380  0.27640  0.66390  1.0000 -0.4805050942
O   O11       1.0  0.72360  0.63620  0.16390  1.0000 -0.4805050942
O   O12       1.0  0.63620  0.72360  0.33610  1.0000 -0.4740190674
O   O13       1.0  0.31580  0.51960  0.91780  1.0000 -0.4740190674
O   O14       1.0  0.51960  0.31580  0.58220  1.0000 -0.4740190674
O   O15       1.0  0.68420  0.48040  0.08220  1.0000 -0.4740190674
O   O16       1.0  0.48040  0.68420  0.41780  1.0000 -0.4740190674
