# DDEC6 charges by PACMAN v1.1 (https://github.com/mtap-research/PACMAN-charge/)
data_2010[Cu][nbo]3[ASR]3
_chemical_formula_sum              "Cu6 H18 C54 O24"
_cell_length_a       15.2614
_cell_length_b       15.2614
_cell_length_c       15.2614
_cell_angle_alpha    76.2159
_cell_angle_beta     76.2159
_cell_angle_gamma    76.2159

_symmetry_space_group_name_H-M    "P 1"
_symmetry_Int_Tables_number       1

loop_
  _symmetry_equiv_pos_as_xyz
  'x, y, z'

loop_
  _atom_site_type_symbol
  _atom_site_label
  _atom_site_symmetry_multiplicity
  _atom_site_fract_x
  _atom_site_fract_y
  _atom_site_fract_z
  _atom_site_occupancy
  _atom_site_charge
Cu  Cu1       1.0  0.98776  0.42029  0.98776  1.0000 0.8657290959
Cu  Cu2       1.0  0.42029  0.98776  0.98776  1.0000 0.8647817396
Cu  Cu3       1.0  0.98776  0.98776  0.42029  1.0000 0.8647817396
Cu  Cu4       1.0  0.57971  0.01224  0.01224  1.0000 0.8657290959
Cu  Cu5       1.0  0.01224  0.57971  0.01224  1.0000 0.8647817396
Cu  Cu6       1.0  0.01224  0.01224  0.57971  1.0000 0.8657290959
H   H1        1.0  0.02430  0.73350  0.73350  1.0000 0.1365430097
H   H2        1.0  0.73350  0.73350  0.02430  1.0000 0.1365430097
H   H3        1.0  0.73350  0.02430  0.73350  1.0000 0.1365430097
H   H4        1.0  0.26650  0.97570  0.26650  1.0000 0.1365430097
H   H5        1.0  0.26650  0.26650  0.97570  1.0000 0.1365430097
H   H6        1.0  0.97570  0.26650  0.26650  1.0000 0.1365430097
H   H7        1.0  0.01100  0.48390  0.69940  1.0000 0.1365430097
H   H8        1.0  0.48390  0.69940  0.01100  1.0000 0.1365430097
H   H9        1.0  0.69940  0.01100  0.48390  1.0000 0.1365430097
H   H10       1.0  0.51610  0.98900  0.30060  1.0000 0.1365430097
H   H11       1.0  0.30060  0.51610  0.98900  1.0000 0.1365430097
H   H12       1.0  0.98900  0.30060  0.51610  1.0000 0.1365430097
H   H13       1.0  0.98900  0.51610  0.30060  1.0000 0.1365430097
H   H14       1.0  0.51610  0.30060  0.98900  1.0000 0.1365430097
H   H15       1.0  0.30060  0.98900  0.51610  1.0000 0.1365430097
H   H16       1.0  0.48390  0.01100  0.69940  1.0000 0.1365430097
H   H17       1.0  0.69940  0.48390  0.01100  1.0000 0.1365430097
H   H18       1.0  0.01100  0.69940  0.48390  1.0000 0.1365430097
C   C1        1.0  0.00251  0.52391  0.52391  1.0000 -0.1003662499
C   C2        1.0  0.52391  0.52391  0.00251  1.0000 -0.1003662499
C   C3        1.0  0.52391  0.00251  0.52391  1.0000 -0.1003662499
C   C4        1.0  0.47609  0.99749  0.47609  1.0000 -0.1003662499
C   C5        1.0  0.47609  0.47609  0.99749  1.0000 -0.1003662499
C   C6        1.0  0.99749  0.47609  0.47609  1.0000 -0.1003662499
C   C7        1.0  0.02030  0.69527  0.69527  1.0000 -0.081534202
C   C8        1.0  0.69527  0.69527  0.02030  1.0000 -0.081534202
C   C9        1.0  0.69527  0.02030  0.69527  1.0000 -0.081534202
C   C10       1.0  0.30473  0.97970  0.30473  1.0000 -0.081534202
C   C11       1.0  0.30473  0.30473  0.97970  1.0000 -0.081534202
C   C12       1.0  0.97970  0.30473  0.30473  1.0000 -0.081534202
C   C13       1.0  0.01738  0.60372  0.73115  1.0000 -0.0319305845
C   C14       1.0  0.60372  0.73115  0.01738  1.0000 -0.0319305845
C   C15       1.0  0.73115  0.01738  0.60372  1.0000 -0.0319305845
C   C16       1.0  0.39628  0.98262  0.26885  1.0000 -0.0319305845
C   C17       1.0  0.26885  0.39628  0.98262  1.0000 -0.0319305845
C   C18       1.0  0.98262  0.26885  0.39628  1.0000 -0.0319305845
C   C19       1.0  0.98262  0.39628  0.26885  1.0000 -0.0319305845
C   C20       1.0  0.39628  0.26885  0.98262  1.0000 -0.0319305845
C   C21       1.0  0.26885  0.98262  0.39628  1.0000 -0.0319305845
C   C22       1.0  0.60372  0.01738  0.73115  1.0000 -0.0319305845
C   C23       1.0  0.73115  0.60372  0.01738  1.0000 -0.0319305845
C   C24       1.0  0.01738  0.73115  0.60372  1.0000 -0.0319305845
C   C25       1.0  0.01002  0.58155  0.58155  1.0000 0.114042729
C   C26       1.0  0.58155  0.58155  0.01002  1.0000 0.114042729
C   C27       1.0  0.58155  0.01002  0.58155  1.0000 0.114042729
C   C28       1.0  0.41845  0.98998  0.41845  1.0000 0.114042729
C   C29       1.0  0.41845  0.41845  0.98998  1.0000 0.114042729
C   C30       1.0  0.98998  0.41845  0.41845  1.0000 0.114042729
C   C31       1.0  0.01258  0.54632  0.67500  1.0000 -0.1185453586
C   C32       1.0  0.54632  0.67500  0.01258  1.0000 -0.1185453586
C   C33       1.0  0.67500  0.01258  0.54632  1.0000 -0.1185453586
C   C34       1.0  0.45368  0.98742  0.32500  1.0000 -0.1185453586
C   C35       1.0  0.32500  0.45368  0.98742  1.0000 -0.1185453586
C   C36       1.0  0.98742  0.32500  0.45368  1.0000 -0.1185453586
C   C37       1.0  0.98742  0.45368  0.32500  1.0000 -0.1185453586
C   C38       1.0  0.45368  0.32500  0.98742  1.0000 -0.1185453586
C   C39       1.0  0.32500  0.98742  0.45368  1.0000 -0.1185453586
C   C40       1.0  0.54632  0.01258  0.67500  1.0000 -0.1185453586
C   C41       1.0  0.67500  0.54632  0.01258  1.0000 -0.1185453586
C   C42       1.0  0.01258  0.67500  0.54632  1.0000 -0.1185453586
C   C43       1.0  0.01703  0.56537  0.83063  1.0000 0.5841282629
C   C44       1.0  0.56537  0.83063  0.01703  1.0000 0.5841282629
C   C45       1.0  0.83063  0.01703  0.56537  1.0000 0.5841282629
C   C46       1.0  0.43463  0.98297  0.16937  1.0000 0.5841282629
C   C47       1.0  0.16937  0.43463  0.98297  1.0000 0.5841282629
C   C48       1.0  0.98297  0.16937  0.43463  1.0000 0.5841282629
C   C49       1.0  0.98297  0.43463  0.16937  1.0000 0.5841282629
C   C50       1.0  0.43463  0.16937  0.98297  1.0000 0.5841282629
C   C51       1.0  0.16937  0.98297  0.43463  1.0000 0.5841282629
C   C52       1.0  0.56537  0.01703  0.83063  1.0000 0.5841282629
C   C53       1.0  0.83063  0.56537  0.01703  1.0000 0.5841282629
C   C54       1.0  0.01703  0.83063  0.56537  1.0000 0.5841282629
O   O1        1.0  0.00504  0.48322  0.85904  1.0000 -0.5282408026
O   O2        1.0  0.48322  0.85904  0.00504  1.0000 -0.5282408026
O   O3        1.0  0.85904  0.00504  0.48322  1.0000 -0.5282408026
O   O4        1.0  0.51678  0.99496  0.14096  1.0000 -0.5282408026
O   O5        1.0  0.14096  0.51678  0.99496  1.0000 -0.5282408026
O   O6        1.0  0.99496  0.14096  0.51678  1.0000 -0.5282408026
O   O7        1.0  0.99496  0.51678  0.14096  1.0000 -0.5282408026
O   O8        1.0  0.51678  0.14096  0.99496  1.0000 -0.5282408026
O   O9        1.0  0.14096  0.99496  0.51678  1.0000 -0.5282408026
O   O10       1.0  0.48322  0.00504  0.85904  1.0000 -0.5282408026
O   O11       1.0  0.85904  0.48322  0.00504  1.0000 -0.5282408026
O   O12       1.0  0.00504  0.85904  0.48322  1.0000 -0.5282408026
O   O13       1.0  0.02372  0.61783  0.87948  1.0000 -0.5089248793
O   O14       1.0  0.61783  0.87948  0.02372  1.0000 -0.5089248793
O   O15       1.0  0.87948  0.02372  0.61783  1.0000 -0.5089248793
O   O16       1.0  0.38217  0.97628  0.12052  1.0000 -0.5089248793
O   O17       1.0  0.12052  0.38217  0.97628  1.0000 -0.5089248793
O   O18       1.0  0.97628  0.12052  0.38217  1.0000 -0.5089248793
O   O19       1.0  0.97628  0.38217  0.12052  1.0000 -0.5089248793
O   O20       1.0  0.38217  0.12052  0.97628  1.0000 -0.5089248793
O   O21       1.0  0.12052  0.97628  0.38217  1.0000 -0.5089248793
O   O22       1.0  0.61783  0.02372  0.87948  1.0000 -0.5089248793
O   O23       1.0  0.87948  0.61783  0.02372  1.0000 -0.5089248793
O   O24       1.0  0.02372  0.87948  0.61783  1.0000 -0.5089248793
