# DDEC6 charges by PACMAN v1.1 (https://github.com/mtap-research/PACMAN-charge/)
data_2010[Ni][scu]3[ASR]1
_chemical_formula_sum              "Ni14 H208 C264 N40 O36"
_cell_length_a       17.591
_cell_length_b       22.781
_cell_length_c       19.058
_cell_angle_alpha    90
_cell_angle_beta     93.225
_cell_angle_gamma    90

_symmetry_space_group_name_H-M    "P 1"
_symmetry_Int_Tables_number       1

loop_
  _symmetry_equiv_pos_as_xyz
  'x, y, z'

loop_
  _atom_site_type_symbol
  _atom_site_label
  _atom_site_symmetry_multiplicity
  _atom_site_fract_x
  _atom_site_fract_y
  _atom_site_fract_z
  _atom_site_occupancy
  _atom_site_charge
Ni  Ni1       1.0  0.50000  0.50000  0.50000  1.0000 1.0214121695
Ni  Ni2       1.0  0.50000  0.00000  0.00000  1.0000 1.0214121695
Ni  Ni3       1.0  0.01775  0.63910  0.82467  1.0000 0.4855814035
Ni  Ni4       1.0  0.98225  0.13910  0.67533  1.0000 0.4855814035
Ni  Ni5       1.0  0.98225  0.36090  0.17533  1.0000 0.4855814035
Ni  Ni6       1.0  0.01775  0.86090  0.32467  1.0000 0.4855814035
Ni  Ni7       1.0  0.53937  0.62529  0.54959  1.0000 1.0109612698
Ni  Ni8       1.0  0.46063  0.12529  0.95041  1.0000 1.0109612698
Ni  Ni9       1.0  0.46063  0.37471  0.45041  1.0000 1.0109612698
Ni  Ni10      1.0  0.53937  0.87471  0.04959  1.0000 1.0109612698
Ni  Ni11      1.0  0.45885  0.58480  0.38079  1.0000 1.0015421267
Ni  Ni12      1.0  0.54115  0.08480  0.11921  1.0000 1.0015421267
Ni  Ni13      1.0  0.54115  0.41520  0.61921  1.0000 1.0015421267
Ni  Ni14      1.0  0.45885  0.91520  0.88079  1.0000 1.0015421267
H   H1        1.0  0.60680  0.64530  0.98600  1.0000 0.1200057669
H   H2        1.0  0.39320  0.14530  0.51400  1.0000 0.1294240601
H   H3        1.0  0.39320  0.35470  0.01400  1.0000 0.1294240601
H   H4        1.0  0.60680  0.85470  0.48600  1.0000 0.1200057669
H   H5        1.0  0.65160  0.59150  0.89110  1.0000 0.1200057669
H   H6        1.0  0.34840  0.09150  0.60890  1.0000 0.1200057669
H   H7        1.0  0.34840  0.40850  0.10890  1.0000 0.1200057669
H   H8        1.0  0.65160  0.90850  0.39110  1.0000 0.1200057669
H   H9        1.0  0.35420  0.76350  0.09170  1.0000 0.1294240601
H   H10       1.0  0.64580  0.26350  0.40830  1.0000 0.1294240601
H   H11       1.0  0.64580  0.23650  0.90830  1.0000 0.1294240601
H   H12       1.0  0.35420  0.73650  0.59170  1.0000 0.1294240601
H   H13       1.0  0.31470  0.79530  0.77670  1.0000 0.1294240601
H   H14       1.0  0.68530  0.29530  0.72330  1.0000 0.1294240601
H   H15       1.0  0.68530  0.20470  0.22330  1.0000 0.1294240601
H   H16       1.0  0.31470  0.70470  0.27670  1.0000 0.1294240601
H   H17       1.0  0.04740  0.79030  0.74500  1.0000 0.1294240601
H   H18       1.0  0.95260  0.29030  0.75500  1.0000 0.1294240601
H   H19       1.0  0.95260  0.20970  0.25500  1.0000 0.1294240601
H   H20       1.0  0.04740  0.70970  0.24500  1.0000 0.1294240601
H   H21       1.0  0.71150  0.42000  0.60280  1.0000 0.1107691631
H   H22       1.0  0.28850  0.92000  0.89720  1.0000 0.1107691631
H   H23       1.0  0.28850  0.58000  0.39720  1.0000 0.1107691631
H   H24       1.0  0.71150  0.08000  0.10280  1.0000 0.1107691631
H   H25       1.0  0.14790  0.65260  0.98020  1.0000 0.1200057669
H   H26       1.0  0.85210  0.15260  0.51980  1.0000 0.1200057669
H   H27       1.0  0.85210  0.34740  0.01980  1.0000 0.1200057669
H   H28       1.0  0.14790  0.84740  0.48020  1.0000 0.1200057669
H   H29       1.0  0.08260  0.61320  0.00740  1.0000 0.1200057669
H   H30       1.0  0.91740  0.11320  0.49260  1.0000 0.1200057669
H   H31       1.0  0.91740  0.38680  0.99260  1.0000 0.1200057669
H   H32       1.0  0.08260  0.88680  0.50740  1.0000 0.1200057669
H   H33       1.0  0.23870  0.72920  0.12250  1.0000 0.1107691631
H   H34       1.0  0.76130  0.22920  0.37750  1.0000 0.1107691631
H   H35       1.0  0.76130  0.27080  0.87750  1.0000 0.1107691631
H   H36       1.0  0.23870  0.77080  0.62250  1.0000 0.1107691631
H   H37       1.0  0.77650  0.58830  0.59130  1.0000 0.1200057669
H   H38       1.0  0.22350  0.08830  0.90870  1.0000 0.1200057669
H   H39       1.0  0.22350  0.41170  0.40870  1.0000 0.1200057669
H   H40       1.0  0.77650  0.91170  0.09130  1.0000 0.1200057669
H   H41       1.0  0.07440  0.48500  0.55460  1.0000 0.1200057669
H   H42       1.0  0.92560  0.98500  0.94540  1.0000 0.1200057669
H   H43       1.0  0.92560  0.51500  0.44540  1.0000 0.1200057669
H   H44       1.0  0.07440  0.01500  0.05460  1.0000 0.1200057669
H   H45       1.0  0.89520  0.51770  0.77540  1.0000 0.1200057669
H   H46       1.0  0.10480  0.01770  0.72460  1.0000 0.1200057669
H   H47       1.0  0.10480  0.48230  0.22460  1.0000 0.1200057669
H   H48       1.0  0.89520  0.98230  0.27540  1.0000 0.1200057669
H   H49       1.0  0.95900  0.48270  0.81840  1.0000 0.1200057669
H   H50       1.0  0.04100  0.98270  0.68160  1.0000 0.1200057669
H   H51       1.0  0.04100  0.51730  0.18160  1.0000 0.1200057669
H   H52       1.0  0.95900  0.01730  0.31840  1.0000 0.1200057669
H   H53       1.0  0.97190  0.56820  0.95960  1.0000 0.1107691631
H   H54       1.0  0.02810  0.06820  0.54040  1.0000 0.1107691631
H   H55       1.0  0.02810  0.43180  0.04040  1.0000 0.1107691631
H   H56       1.0  0.97190  0.93180  0.45960  1.0000 0.1107691631
H   H57       1.0  0.96590  0.50390  0.93000  1.0000 0.1025340633
H   H58       1.0  0.03410  0.00390  0.57000  1.0000 0.1025340633
H   H59       1.0  0.03410  0.49610  0.07000  1.0000 0.1025340633
H   H60       1.0  0.96590  0.99610  0.43000  1.0000 0.1025340633
H   H61       1.0  0.89990  0.56090  0.62590  1.0000 0.1200057669
H   H62       1.0  0.10010  0.06090  0.87410  1.0000 0.1200057669
H   H63       1.0  0.10010  0.43910  0.37410  1.0000 0.1200057669
H   H64       1.0  0.89990  0.93910  0.12590  1.0000 0.1200057669
H   H65       1.0  0.11810  0.86820  0.70660  1.0000 0.1025340633
H   H66       1.0  0.88190  0.36820  0.79340  1.0000 0.1025340633
H   H67       1.0  0.88190  0.13180  0.29340  1.0000 0.1025340633
H   H68       1.0  0.11810  0.63180  0.20660  1.0000 0.1025340633
H   H69       1.0  0.67980  0.61740  0.73870  1.0000 0.1384532126
H   H70       1.0  0.32020  0.11740  0.76130  1.0000 0.1384532126
H   H71       1.0  0.32020  0.38260  0.26130  1.0000 0.1384532126
H   H72       1.0  0.67980  0.88260  0.23870  1.0000 0.1384532126
H   H73       1.0  0.72020  0.57730  0.79640  1.0000 0.1200057669
H   H74       1.0  0.27980  0.07730  0.70360  1.0000 0.1200057669
H   H75       1.0  0.27980  0.42270  0.20360  1.0000 0.1200057669
H   H76       1.0  0.72020  0.92270  0.29640  1.0000 0.1200057669
H   H77       1.0  0.21630  0.62240  0.58490  1.0000 0.1107691631
H   H78       1.0  0.78370  0.12240  0.91510  1.0000 0.1107691631
H   H79       1.0  0.78370  0.37760  0.41510  1.0000 0.1107691631
H   H80       1.0  0.21630  0.87760  0.08490  1.0000 0.1107691631
H   H81       1.0  0.87920  0.76140  0.83620  1.0000 0.1294240601
H   H82       1.0  0.12080  0.26140  0.66380  1.0000 0.1294240601
H   H83       1.0  0.12080  0.23860  0.16380  1.0000 0.1294240601
H   H84       1.0  0.87920  0.73860  0.33620  1.0000 0.1294240601
H   H85       1.0  0.24670  0.87020  0.72050  1.0000 0.1200057669
H   H86       1.0  0.75330  0.37020  0.77950  1.0000 0.1200057669
H   H87       1.0  0.75330  0.12980  0.27950  1.0000 0.1200057669
H   H88       1.0  0.24670  0.62980  0.22050  1.0000 0.1200057669
H   H89       1.0  0.08290  0.77280  0.09360  1.0000 0.1294240601
H   H90       1.0  0.91710  0.27280  0.40640  1.0000 0.1294240601
H   H91       1.0  0.91710  0.22720  0.90640  1.0000 0.1294240601
H   H92       1.0  0.08290  0.72720  0.59360  1.0000 0.1294240601
H   H93       1.0  0.10560  0.70630  0.09050  1.0000 0.1107691631
H   H94       1.0  0.89440  0.20630  0.40950  1.0000 0.1107691631
H   H95       1.0  0.89440  0.29370  0.90950  1.0000 0.1200057669
H   H96       1.0  0.10560  0.79370  0.59050  1.0000 0.1107691631
H   H97       1.0  0.17220  0.54240  0.52000  1.0000 0.1107691631
H   H98       1.0  0.82780  0.04240  0.98000  1.0000 0.1107691631
H   H99       1.0  0.82780  0.45760  0.48000  1.0000 0.1107691631
H   H100      1.0  0.17220  0.95760  0.02000  1.0000 0.1107691631
H   H101      1.0  0.37160  0.62070  0.63010  1.0000 0.1200057669
H   H102      1.0  0.62840  0.12070  0.86990  1.0000 0.1200057669
H   H103      1.0  0.62840  0.37930  0.36990  1.0000 0.1200057669
H   H104      1.0  0.37160  0.87930  0.13010  1.0000 0.1200057669
H   H105      1.0  0.83280  0.56120  0.86050  1.0000 0.1200057669
H   H106      1.0  0.16720  0.06120  0.63950  1.0000 0.1200057669
H   H107      1.0  0.16720  0.43880  0.13950  1.0000 0.1200057669
H   H108      1.0  0.83280  0.93880  0.36050  1.0000 0.1200057669
H   H109      1.0  0.86950  0.61490  0.90210  1.0000 0.1384532126
H   H110      1.0  0.13050  0.11490  0.59790  1.0000 0.1384532126
H   H111      1.0  0.13050  0.38510  0.09790  1.0000 0.1384532126
H   H112      1.0  0.86950  0.88510  0.40210  1.0000 0.1384532126
H   H113      1.0  0.41670  0.58990  0.86780  1.0000 0.1294240601
H   H114      1.0  0.58330  0.08990  0.63220  1.0000 0.1294240601
H   H115      1.0  0.58330  0.41010  0.13220  1.0000 0.1294240601
H   H116      1.0  0.41670  0.91010  0.36780  1.0000 0.1294240601
H   H117      1.0  0.98680  0.84420  0.04370  1.0000 0.1294240601
H   H118      1.0  0.01320  0.34420  0.45630  1.0000 0.1294240601
H   H119      1.0  0.01320  0.15580  0.95630  1.0000 0.1294240601
H   H120      1.0  0.98680  0.65580  0.54370  1.0000 0.1294240601
H   H121      1.0  0.31450  0.68000  0.71050  1.0000 0.1107691631
H   H122      1.0  0.68550  0.18000  0.78950  1.0000 0.1107691631
H   H123      1.0  0.68550  0.32000  0.28950  1.0000 0.1107691631
H   H124      1.0  0.31450  0.82000  0.21050  1.0000 0.1107691631
H   H125      1.0  0.96450  0.73690  0.66750  1.0000 0.1200057669
H   H126      1.0  0.03550  0.23690  0.83250  1.0000 0.1200057669
H   H127      1.0  0.03550  0.26310  0.33250  1.0000 0.1200057669
H   H128      1.0  0.96450  0.76310  0.16750  1.0000 0.1200057669
H   H129      1.0  0.88610  0.78010  0.58330  1.0000 0.1107691631
H   H130      1.0  0.11390  0.28010  0.91670  1.0000 0.1107691631
H   H131      1.0  0.11390  0.21990  0.41670  1.0000 0.1107691631
H   H132      1.0  0.88610  0.71990  0.08330  1.0000 0.1107691631
H   H133      1.0  0.47220  0.52890  0.78590  1.0000 0.1200057669
H   H134      1.0  0.52780  0.02890  0.71410  1.0000 0.1200057669
H   H135      1.0  0.52780  0.47110  0.21410  1.0000 0.1200057669
H   H136      1.0  0.47220  0.97110  0.28590  1.0000 0.1200057669
H   H137      1.0  0.70240  0.69630  0.65090  1.0000 0.1384532126
H   H138      1.0  0.29760  0.19630  0.84910  1.0000 0.1384532126
H   H139      1.0  0.29760  0.30370  0.34910  1.0000 0.1384532126
H   H140      1.0  0.70240  0.80370  0.15090  1.0000 0.1384532126
H   H141      1.0  0.83460  0.84780  0.87840  1.0000 0.1200057669
H   H142      1.0  0.16540  0.34780  0.62160  1.0000 0.1200057669
H   H143      1.0  0.16540  0.15220  0.12160  1.0000 0.1200057669
H   H144      1.0  0.83460  0.65220  0.37840  1.0000 0.1200057669
H   H145      1.0  0.88780  0.88840  0.98030  1.0000 0.1107691631
H   H146      1.0  0.11220  0.38840  0.51970  1.0000 0.1107691631
H   H147      1.0  0.11220  0.11160  0.01970  1.0000 0.1107691631
H   H148      1.0  0.88780  0.61160  0.48030  1.0000 0.1107691631
H   H149      1.0  0.67030  0.78550  0.89490  1.0000 0.1294240601
H   H150      1.0  0.32970  0.28550  0.60510  1.0000 0.1294240601
H   H151      1.0  0.32970  0.21450  0.10510  1.0000 0.1294240601
H   H152      1.0  0.67030  0.71450  0.39490  1.0000 0.1294240601
H   H153      1.0  0.70830  0.73170  0.80260  1.0000 0.1200057669
H   H154      1.0  0.29170  0.23170  0.69740  1.0000 0.1200057669
H   H155      1.0  0.29170  0.26830  0.19740  1.0000 0.1200057669
H   H156      1.0  0.70830  0.76830  0.30260  1.0000 0.1200057669
H   H157      1.0  0.75740  0.76030  0.57480  1.0000 0.1200057669
H   H158      1.0  0.24260  0.26030  0.92520  1.0000 0.1200057669
H   H159      1.0  0.24260  0.23970  0.42520  1.0000 0.1200057669
H   H160      1.0  0.75740  0.73970  0.07480  1.0000 0.1200057669
H   H161      1.0  0.08250  0.51670  0.87610  1.0000 0.1025340633
H   H162      1.0  0.91750  0.01670  0.62390  1.0000 0.1025340633
H   H163      1.0  0.91750  0.48330  0.12390  1.0000 0.1025340633
H   H164      1.0  0.08250  0.98330  0.37610  1.0000 0.1025340633
H   H165      1.0  0.09430  0.52570  0.95780  1.0000 0.1025340633
H   H166      1.0  0.90570  0.02570  0.54220  1.0000 0.1025340633
H   H167      1.0  0.90570  0.47430  0.04220  1.0000 0.1025340633
H   H168      1.0  0.09430  0.97430  0.45780  1.0000 0.1025340633
H   H169      1.0  0.21400  0.60050  0.90850  1.0000 0.1200057669
H   H170      1.0  0.78600  0.10050  0.59150  1.0000 0.1200057669
H   H171      1.0  0.78600  0.39950  0.09150  1.0000 0.1200057669
H   H172      1.0  0.21400  0.89950  0.40850  1.0000 0.1200057669
H   H173      1.0  0.17810  0.57370  0.83790  1.0000 0.1294240601
H   H174      1.0  0.82190  0.07370  0.66210  1.0000 0.1294240601
H   H175      1.0  0.82190  0.42630  0.16210  1.0000 0.1384532126
H   H176      1.0  0.17810  0.92630  0.33790  1.0000 0.1384532126
H   H177      1.0  0.16150  0.64690  0.68960  1.0000 0.1200057669
H   H178      1.0  0.83850  0.14690  0.81040  1.0000 0.1200057669
H   H179      1.0  0.83850  0.35310  0.31040  1.0000 0.1200057669
H   H180      1.0  0.16150  0.85310  0.18960  1.0000 0.1200057669
H   H181      1.0  0.83250  0.39380  0.64050  1.0000 0.1107691631
H   H182      1.0  0.16750  0.89380  0.85950  1.0000 0.1107691631
H   H183      1.0  0.16750  0.60620  0.35950  1.0000 0.1107691631
H   H184      1.0  0.83250  0.10620  0.14050  1.0000 0.1107691631
H   H185      1.0  0.14340  0.78920  0.94210  1.0000 0.1200057669
H   H186      1.0  0.85660  0.28920  0.55790  1.0000 0.1200057669
H   H187      1.0  0.85660  0.21080  0.05790  1.0000 0.1294240601
H   H188      1.0  0.14340  0.71080  0.44210  1.0000 0.1200057669
H   H189      1.0  0.25830  0.82210  0.91070  1.0000 0.1025340633
H   H190      1.0  0.74170  0.32210  0.58930  1.0000 0.1025340633
H   H191      1.0  0.74170  0.17790  0.08930  1.0000 0.1025340633
H   H192      1.0  0.25830  0.67790  0.41070  1.0000 0.1025340633
H   H193      1.0  0.35010  0.71440  0.85730  1.0000 0.1294240601
H   H194      1.0  0.64990  0.21440  0.64270  1.0000 0.1294240601
H   H195      1.0  0.64990  0.28560  0.14270  1.0000 0.1294240601
H   H196      1.0  0.35010  0.78560  0.35730  1.0000 0.1294240601
H   H197      1.0  0.32030  0.65850  0.89490  1.0000 0.1200057669
H   H198      1.0  0.67970  0.15850  0.60510  1.0000 0.1200057669
H   H199      1.0  0.67970  0.34150  0.10510  1.0000 0.1200057669
H   H200      1.0  0.32030  0.84150  0.39490  1.0000 0.1200057669
H   H201      1.0  0.98120  0.43310  0.62300  1.0000 0.1294240601
H   H202      1.0  0.01880  0.93310  0.87700  1.0000 0.1294240601
H   H203      1.0  0.01880  0.56690  0.37700  1.0000 0.1294240601
H   H204      1.0  0.98120  0.06690  0.12300  1.0000 0.1294240601
H   H205      1.0  0.95450  0.42590  0.69960  1.0000 0.1200057669
H   H206      1.0  0.04550  0.92590  0.80040  1.0000 0.1200057669
H   H207      1.0  0.04550  0.57410  0.30040  1.0000 0.1200057669
H   H208      1.0  0.95450  0.07410  0.19960  1.0000 0.1200057669
C   C1        1.0  0.62630  0.66510  0.94830  1.0000 -0.1188470306
C   C2        1.0  0.37370  0.16510  0.55170  1.0000 -0.1188470306
C   C3        1.0  0.37370  0.33490  0.05170  1.0000 -0.1188470306
C   C4        1.0  0.62630  0.83490  0.44830  1.0000 -0.1188470306
C   C5        1.0  0.65470  0.63220  0.88960  1.0000 -0.1718634438
C   C6        1.0  0.34530  0.13220  0.61040  1.0000 -0.1718634438
C   C7        1.0  0.34530  0.36780  0.11040  1.0000 -0.1718634438
C   C8        1.0  0.65470  0.86780  0.38960  1.0000 -0.1718634438
C   C9        1.0  0.21970  0.74607  0.79360  1.0000 0.0708480197
C   C10       1.0  0.78030  0.24607  0.70640  1.0000 0.0708480197
C   C11       1.0  0.78030  0.25393  0.20640  1.0000 0.0708480197
C   C12       1.0  0.21970  0.75393  0.29360  1.0000 0.0708480197
C   C13       1.0  0.08760  0.57813  0.68650  1.0000 0.1294240601
C   C14       1.0  0.91240  0.07813  0.81350  1.0000 0.1294240601
C   C15       1.0  0.91240  0.42187  0.31350  1.0000 0.1294240601
C   C16       1.0  0.08760  0.92187  0.18650  1.0000 0.1294240601
C   C17       1.0  0.06280  0.52988  0.64820  1.0000 0.0708480197
C   C18       1.0  0.93720  0.02988  0.85180  1.0000 0.0708480197
C   C19       1.0  0.93720  0.47012  0.35180  1.0000 0.0708480197
C   C20       1.0  0.06280  0.97012  0.14820  1.0000 0.0708480197
C   C21       1.0  0.35700  0.64010  0.79670  1.0000 0.1025340633
C   C22       1.0  0.64300  0.14010  0.70330  1.0000 0.1025340633
C   C23       1.0  0.64300  0.35990  0.20330  1.0000 0.1025340633
C   C24       1.0  0.35700  0.85990  0.29670  1.0000 0.1025340633
C   C25       1.0  0.87940  0.47381  0.63690  1.0000 0.0929743684
C   C26       1.0  0.12060  0.97381  0.86310  1.0000 0.1025340633
C   C27       1.0  0.12060  0.52619  0.36310  1.0000 0.0929743684
C   C28       1.0  0.87940  0.02619  0.13690  1.0000 0.0929743684
C   C29       1.0  0.17750  0.66444  0.83730  1.0000 0.2524200037
C   C30       1.0  0.82250  0.16444  0.66270  1.0000 0.2589720841
C   C31       1.0  0.82250  0.33556  0.16270  1.0000 0.2589720841
C   C32       1.0  0.17750  0.83556  0.33730  1.0000 0.2524200037
C   C33       1.0  0.00070  0.53447  0.74350  1.0000 0.2524200037
C   C34       1.0  0.99930  0.03447  0.75650  1.0000 0.2524200037
C   C35       1.0  0.99930  0.46553  0.25650  1.0000 0.2524200037
C   C36       1.0  0.00070  0.96553  0.24350  1.0000 0.2524200037
C   C37       1.0  0.31130  0.76940  0.06160  1.0000 -0.1070432385
C   C38       1.0  0.68870  0.26940  0.43840  1.0000 -0.1012799331
C   C39       1.0  0.68870  0.23060  0.93840  1.0000 -0.1012799331
C   C40       1.0  0.31130  0.73060  0.56160  1.0000 -0.1070432385
C   C41       1.0  0.39200  0.82854  0.98030  1.0000 0.582808664
C   C42       1.0  0.60800  0.32854  0.51970  1.0000 0.582808664
C   C43       1.0  0.60800  0.17146  0.01970  1.0000 0.582808664
C   C44       1.0  0.39200  0.67146  0.48030  1.0000 0.582808664
C   C45       1.0  0.26190  0.79380  0.77030  1.0000 -0.19931542
C   C46       1.0  0.73810  0.29380  0.72970  1.0000 -0.19931542
C   C47       1.0  0.73810  0.20620  0.22970  1.0000 -0.19931542
C   C48       1.0  0.26190  0.70620  0.27030  1.0000 -0.19931542
C   C49       1.0  0.10020  0.79050  0.75110  1.0000 -0.19931542
C   C50       1.0  0.89980  0.29050  0.74890  1.0000 -0.19931542
C   C51       1.0  0.89980  0.20950  0.24890  1.0000 -0.19931542
C   C52       1.0  0.10020  0.70950  0.25110  1.0000 -0.19931542
C   C53       1.0  0.74880  0.44876  0.60900  1.0000 -0.1070432385
C   C54       1.0  0.25120  0.94876  0.89100  1.0000 -0.1070432385
C   C55       1.0  0.25120  0.55124  0.39100  1.0000 -0.1070432385
C   C56       1.0  0.74880  0.05124  0.10900  1.0000 -0.1070432385
C   C57       1.0  0.80280  0.67830  0.70630  1.0000 0.0649739112
C   C58       1.0  0.19720  0.17830  0.79370  1.0000 0.0649739112
C   C59       1.0  0.19720  0.32170  0.29370  1.0000 0.0649739112
C   C60       1.0  0.80280  0.82170  0.20630  1.0000 0.0649739112
C   C61       1.0  0.09700  0.63790  0.96880  1.0000 -0.2460283433
C   C62       1.0  0.90300  0.13790  0.53120  1.0000 -0.2412031062
C   C63       1.0  0.90300  0.36210  0.03120  1.0000 -0.2412031062
C   C64       1.0  0.09700  0.86210  0.46880  1.0000 -0.2412031062
C   C65       1.0  0.04320  0.68799  0.96070  1.0000 0.2654989119
C   C66       1.0  0.95680  0.18799  0.53930  1.0000 0.2654989119
C   C67       1.0  0.95680  0.31201  0.03930  1.0000 0.2654989119
C   C68       1.0  0.04320  0.81201  0.46070  1.0000 0.2589720841
C   C69       1.0  0.24200  0.74950  0.08040  1.0000 -0.1797160107
C   C70       1.0  0.75800  0.24950  0.41960  1.0000 -0.1797160107
C   C71       1.0  0.75800  0.25050  0.91960  1.0000 -0.1797160107
C   C72       1.0  0.24200  0.75050  0.58040  1.0000 -0.1797160107
C   C73       1.0  0.78780  0.54930  0.60160  1.0000 -0.1012799331
C   C74       1.0  0.21220  0.04930  0.89840  1.0000 -0.1012799331
C   C75       1.0  0.21220  0.45070  0.39840  1.0000 -0.1012799331
C   C76       1.0  0.78780  0.95070  0.10160  1.0000 -0.1012799331
C   C77       1.0  0.98810  0.77260  0.97820  1.0000 0.0492390691
C   C78       1.0  0.01190  0.27260  0.52180  1.0000 0.0492390691
C   C79       1.0  0.01190  0.22740  0.02180  1.0000 0.0492390691
C   C80       1.0  0.98810  0.72740  0.47820  1.0000 0.0492390691
C   C81       1.0  0.68320  0.65530  0.83680  1.0000 0.0849365349
C   C82       1.0  0.31680  0.15530  0.66320  1.0000 0.0849365349
C   C83       1.0  0.31680  0.34470  0.16320  1.0000 0.0849365349
C   C84       1.0  0.68320  0.84470  0.33680  1.0000 0.0929743684
C   C85       1.0  0.85710  0.62980  0.79620  1.0000 0.2408975045
C   C86       1.0  0.14290  0.12980  0.70380  1.0000 0.2408975045
C   C87       1.0  0.14290  0.37020  0.20380  1.0000 0.2408975045
C   C88       1.0  0.85710  0.87020  0.29620  1.0000 0.2408975045
C   C89       1.0  0.09290  0.51620  0.58210  1.0000 -0.19931542
C   C90       1.0  0.90710  0.01620  0.91790  1.0000 -0.19931542
C   C91       1.0  0.90710  0.48380  0.41790  1.0000 -0.19931542
C   C92       1.0  0.09290  0.98380  0.08210  1.0000 -0.19931542
C   C93       1.0  0.94620  0.52050  0.79750  1.0000 -0.2412031062
C   C94       1.0  0.05380  0.02050  0.70250  1.0000 -0.2412031062
C   C95       1.0  0.05380  0.47950  0.20250  1.0000 -0.2412031062
C   C96       1.0  0.94620  0.97950  0.29750  1.0000 -0.2412031062
C   C97       1.0  0.98450  0.54310  0.92090  1.0000 -0.1718634438
C   C98       1.0  0.01550  0.04310  0.57910  1.0000 -0.1718634438
C   C99       1.0  0.01550  0.45690  0.07910  1.0000 -0.1718634438
C   C100      1.0  0.98450  0.95690  0.42090  1.0000 -0.1718634438
C   C101      1.0  0.65020  0.52480  0.57610  1.0000 0.6006958667
C   C102      1.0  0.34980  0.02480  0.92390  1.0000 0.6006958667
C   C103      1.0  0.34980  0.47520  0.42390  1.0000 0.6006958667
C   C104      1.0  0.65020  0.97520  0.07610  1.0000 0.6006958667
C   C105      1.0  0.88110  0.68990  0.71280  1.0000 0.1384532126
C   C106      1.0  0.11890  0.18990  0.78720  1.0000 0.1384532126
C   C107      1.0  0.11890  0.31010  0.28720  1.0000 0.1384532126
C   C108      1.0  0.88110  0.81010  0.21280  1.0000 0.1384532126
C   C109      1.0  0.86170  0.53270  0.62210  1.0000 -0.1797160107
C   C110      1.0  0.13830  0.03270  0.87790  1.0000 -0.1797160107
C   C111      1.0  0.13830  0.46730  0.37790  1.0000 -0.1797160107
C   C112      1.0  0.86170  0.96730  0.12210  1.0000 -0.1797160107
C   C113      1.0  0.14300  0.83670  0.72860  1.0000 -0.1529704818
C   C114      1.0  0.85700  0.33670  0.77140  1.0000 -0.1529704818
C   C115      1.0  0.85700  0.16330  0.27140  1.0000 -0.1529704818
C   C116      1.0  0.14300  0.66330  0.22860  1.0000 -0.1529704818
C   C117      1.0  0.71510  0.61740  0.77970  1.0000 -0.1529704818
C   C118      1.0  0.28490  0.11740  0.72030  1.0000 -0.1529704818
C   C119      1.0  0.28490  0.38260  0.22030  1.0000 -0.1529704818
C   C120      1.0  0.71510  0.88260  0.27970  1.0000 -0.1529704818
C   C121      1.0  0.17690  0.59980  0.60110  1.0000 -0.1188470306
C   C122      1.0  0.82310  0.09980  0.89890  1.0000 -0.1188470306
C   C123      1.0  0.82310  0.40020  0.39890  1.0000 -0.1188470306
C   C124      1.0  0.17690  0.90020  0.10110  1.0000 -0.1188470306
C   C125      1.0  0.89940  0.77690  0.87840  1.0000 -0.1529704818
C   C126      1.0  0.10060  0.27690  0.62160  1.0000 -0.1529704818
C   C127      1.0  0.10060  0.22310  0.12160  1.0000 -0.1529704818
C   C128      1.0  0.89940  0.72310  0.37840  1.0000 -0.1529704818
C   C129      1.0  0.22080  0.83810  0.73740  1.0000 -0.1188470306
C   C130      1.0  0.77920  0.33810  0.76260  1.0000 -0.1188470306
C   C131      1.0  0.77920  0.16190  0.26260  1.0000 -0.1188470306
C   C132      1.0  0.22080  0.66190  0.23740  1.0000 -0.1188470306
C   C133      1.0  0.10040  0.74210  0.06310  1.0000 -0.1718634438
C   C134      1.0  0.89960  0.24210  0.43690  1.0000 -0.1718634438
C   C135      1.0  0.89960  0.25790  0.93690  1.0000 -0.1718634438
C   C136      1.0  0.10040  0.75790  0.56310  1.0000 -0.1718634438
C   C137      1.0  0.14980  0.55100  0.56180  1.0000 -0.0898446432
C   C138      1.0  0.85020  0.05100  0.93820  1.0000 -0.0898446432
C   C139      1.0  0.85020  0.44900  0.43820  1.0000 -0.0898446432
C   C140      1.0  0.14980  0.94900  0.06180  1.0000 -0.0898446432
C   C141      1.0  0.38050  0.61410  0.67800  1.0000 -0.0898446432
C   C142      1.0  0.61950  0.11410  0.82200  1.0000 -0.0898446432
C   C143      1.0  0.61950  0.38590  0.32200  1.0000 -0.0898446432
C   C144      1.0  0.38050  0.88590  0.17800  1.0000 -0.0898446432
C   C145      1.0  0.46440  0.53060  0.64670  1.0000 0.6006958667
C   C146      1.0  0.53560  0.03060  0.85330  1.0000 0.6053597088
C   C147      1.0  0.53560  0.46940  0.35330  1.0000 0.6006958667
C   C148      1.0  0.46440  0.96940  0.14670  1.0000 0.6006958667
C   C149      1.0  0.87110  0.59180  0.85940  1.0000 -0.2412031062
C   C150      1.0  0.12890  0.09180  0.64060  1.0000 -0.2412031062
C   C151      1.0  0.12890  0.40820  0.14060  1.0000 -0.2412031062
C   C152      1.0  0.87110  0.90820  0.35940  1.0000 -0.2412031062
C   C153      1.0  0.40630  0.59580  0.81990  1.0000 -0.1718634438
C   C154      1.0  0.59370  0.09580  0.68010  1.0000 -0.1718634438
C   C155      1.0  0.59370  0.40420  0.18010  1.0000 -0.1718634438
C   C156      1.0  0.40630  0.90420  0.31990  1.0000 -0.1718634438
C   C157      1.0  0.62820  0.72220  0.94820  1.0000 -0.0189066913
C   C158      1.0  0.37180  0.22220  0.55180  1.0000 -0.0189066913
C   C159      1.0  0.37180  0.27780  0.05180  1.0000 -0.0189066913
C   C160      1.0  0.62820  0.77780  0.44820  1.0000 -0.0189066913
C   C161      1.0  0.96440  0.82700  0.00330  1.0000 -0.194759572
C   C162      1.0  0.03560  0.32700  0.49670  1.0000 -0.19931542
C   C163      1.0  0.03560  0.17300  0.99670  1.0000 -0.19931542
C   C164      1.0  0.96440  0.67300  0.50330  1.0000 -0.194759572
C   C165      1.0  0.34590  0.64940  0.72650  1.0000 -0.1529704818
C   C166      1.0  0.65410  0.14940  0.77350  1.0000 -0.1529704818
C   C167      1.0  0.65410  0.35060  0.27350  1.0000 -0.1529704818
C   C168      1.0  0.34590  0.85060  0.22650  1.0000 -0.1529704818
C   C169      1.0  0.91260  0.72880  0.66480  1.0000 -0.1797160107
C   C170      1.0  0.08740  0.22880  0.83520  1.0000 -0.1797160107
C   C171      1.0  0.08740  0.27120  0.33520  1.0000 -0.1797160107
C   C172      1.0  0.91260  0.77120  0.16480  1.0000 -0.1797160107
C   C173      1.0  0.86590  0.75410  0.61500  1.0000 -0.1070432385
C   C174      1.0  0.13410  0.25410  0.88500  1.0000 -0.1070432385
C   C175      1.0  0.13410  0.24590  0.38500  1.0000 -0.1070432385
C   C176      1.0  0.86590  0.74590  0.11500  1.0000 -0.1070432385
C   C177      1.0  0.44070  0.55960  0.77050  1.0000 -0.0898446432
C   C178      1.0  0.55930  0.05960  0.72950  1.0000 -0.0898446432
C   C179      1.0  0.55930  0.44040  0.22950  1.0000 -0.0898446432
C   C180      1.0  0.44070  0.94040  0.27050  1.0000 -0.0898446432
C   C181      1.0  0.75440  0.70430  0.65460  1.0000 -0.1718634438
C   C182      1.0  0.24560  0.20430  0.84540  1.0000 -0.1718634438
C   C183      1.0  0.24560  0.29570  0.34540  1.0000 -0.1718634438
C   C184      1.0  0.75440  0.79570  0.15460  1.0000 -0.1718634438
C   C185      1.0  0.87420  0.82830  0.90300  1.0000 -0.1070432385
C   C186      1.0  0.12580  0.32830  0.59700  1.0000 -0.1070432385
C   C187      1.0  0.12580  0.17170  0.09700  1.0000 -0.1070432385
C   C188      1.0  0.87420  0.67170  0.40300  1.0000 -0.1070432385
C   C189      1.0  0.90670  0.85280  0.96490  1.0000 -0.1070432385
C   C190      1.0  0.09330  0.35280  0.53510  1.0000 -0.1070432385
C   C191      1.0  0.09330  0.14720  0.03510  1.0000 -0.1070432385
C   C192      1.0  0.90670  0.64720  0.46490  1.0000 -0.1070432385
C   C193      1.0  0.60180  0.75950  0.00660  1.0000 0.5621949787
C   C194      1.0  0.39820  0.25950  0.49340  1.0000 0.5621949787
C   C195      1.0  0.39820  0.24050  0.99340  1.0000 0.5621949787
C   C196      1.0  0.60180  0.74050  0.50660  1.0000 0.5621949787
C   C197      1.0  0.66240  0.74520  0.89530  1.0000 -0.1070432385
C   C198      1.0  0.33760  0.24520  0.60470  1.0000 -0.1070432385
C   C199      1.0  0.33760  0.25480  0.10470  1.0000 -0.1070432385
C   C200      1.0  0.66240  0.75480  0.39530  1.0000 -0.1070432385
C   C201      1.0  0.68740  0.71200  0.83970  1.0000 -0.1718634438
C   C202      1.0  0.31260  0.21200  0.66030  1.0000 -0.1718634438
C   C203      1.0  0.31260  0.28800  0.16030  1.0000 -0.1718634438
C   C204      1.0  0.68740  0.78800  0.33970  1.0000 -0.1718634438
C   C205      1.0  0.78770  0.74200  0.60990  1.0000 -0.0898446432
C   C206      1.0  0.21230  0.24200  0.89010  1.0000 -0.0898446432
C   C207      1.0  0.21230  0.25800  0.39010  1.0000 -0.0898446432
C   C208      1.0  0.78770  0.75800  0.10990  1.0000 -0.0898446432
C   C209      1.0  0.13990  0.74392  0.78360  1.0000 0.1294240601
C   C210      1.0  0.86010  0.24392  0.71640  1.0000 0.1294240601
C   C211      1.0  0.86010  0.25608  0.21640  1.0000 0.1294240601
C   C212      1.0  0.13990  0.75608  0.28360  1.0000 0.1294240601
C   C213      1.0  0.06980  0.54160  0.91500  1.0000 -0.1599530759
C   C214      1.0  0.93020  0.04160  0.58500  1.0000 -0.1599530759
C   C215      1.0  0.93020  0.45840  0.08500  1.0000 -0.1599530759
C   C216      1.0  0.06980  0.95840  0.41500  1.0000 -0.1599530759
C   C217      1.0  0.17340  0.60473  0.87220  1.0000 -0.22576979
C   C218      1.0  0.82660  0.10473  0.62780  1.0000 -0.22576979
C   C219      1.0  0.82660  0.39527  0.12780  1.0000 -0.22576979
C   C220      1.0  0.17340  0.89527  0.37220  1.0000 -0.22576979
C   C221      1.0  0.14500  0.61420  0.66370  1.0000 -0.1797160107
C   C222      1.0  0.85500  0.11420  0.83630  1.0000 -0.1797160107
C   C223      1.0  0.85500  0.38580  0.33630  1.0000 -0.1797160107
C   C224      1.0  0.14500  0.88580  0.16370  1.0000 -0.1797160107
C   C225      1.0  0.73030  0.50660  0.59660  1.0000 -0.0280329258
C   C226      1.0  0.26970  0.00660  0.90340  1.0000 -0.0280329258
C   C227      1.0  0.26970  0.49340  0.40340  1.0000 -0.0280329258
C   C228      1.0  0.73030  0.99340  0.09660  1.0000 -0.0280329258
C   C229      1.0  0.17660  0.75892  0.03790  1.0000 0.0929743684
C   C230      1.0  0.82340  0.25892  0.46210  1.0000 0.0929743684
C   C231      1.0  0.82340  0.24108  0.96210  1.0000 0.0929743684
C   C232      1.0  0.17660  0.74108  0.53790  1.0000 0.0929743684
C   C233      1.0  0.82170  0.43290  0.63030  1.0000 -0.1718634438
C   C234      1.0  0.17830  0.93290  0.86970  1.0000 -0.1718634438
C   C235      1.0  0.17830  0.56710  0.36970  1.0000 -0.1718634438
C   C236      1.0  0.82170  0.06710  0.13030  1.0000 -0.1718634438
C   C237      1.0  0.18560  0.78490  0.97330  1.0000 -0.1599530759
C   C238      1.0  0.81440  0.28490  0.52670  1.0000 -0.1599530759
C   C239      1.0  0.81440  0.21510  0.02670  1.0000 -0.1599530759
C   C240      1.0  0.18560  0.71510  0.47330  1.0000 -0.1599530759
C   C241      1.0  0.95660  0.74740  0.91780  1.0000 0.1294240601
C   C242      1.0  0.04340  0.24740  0.58220  1.0000 0.1294240601
C   C243      1.0  0.04340  0.25260  0.08220  1.0000 0.1294240601
C   C244      1.0  0.95660  0.75260  0.41780  1.0000 0.1294240601
C   C245      1.0  0.25420  0.80437  0.95430  1.0000 -0.1070432385
C   C246      1.0  0.74580  0.30437  0.54570  1.0000 -0.1012799331
C   C247      1.0  0.74580  0.19563  0.04570  1.0000 -0.1012799331
C   C248      1.0  0.25420  0.69563  0.45430  1.0000 -0.1070432385
C   C249      1.0  0.31840  0.79809  0.99910  1.0000 -0.0280329258
C   C250      1.0  0.68160  0.29809  0.50090  1.0000 -0.0280329258
C   C251      1.0  0.68160  0.20191  0.00090  1.0000 -0.0280329258
C   C252      1.0  0.31840  0.70191  0.49910  1.0000 -0.0280329258
C   C253      1.0  0.42790  0.56950  0.70140  1.0000 -0.0189066913
C   C254      1.0  0.57210  0.06950  0.79860  1.0000 -0.0189066913
C   C255      1.0  0.57210  0.43050  0.29860  1.0000 -0.0189066913
C   C256      1.0  0.42790  0.93050  0.20140  1.0000 -0.0189066913
C   C257      1.0  0.32000  0.67900  0.85030  1.0000 -0.1599530759
C   C258      1.0  0.68000  0.17900  0.64970  1.0000 -0.1599530759
C   C259      1.0  0.68000  0.32100  0.14970  1.0000 -0.1599530759
C   C260      1.0  0.32000  0.82100  0.35030  1.0000 -0.1599530759
C   C261      1.0  0.95840  0.45350  0.66130  1.0000 -0.1718634438
C   C262      1.0  0.04160  0.95350  0.83870  1.0000 -0.1718634438
C   C263      1.0  0.04160  0.54650  0.33870  1.0000 -0.1718634438
C   C264      1.0  0.95840  0.04650  0.16130  1.0000 -0.1718634438
N   N1        1.0  0.00830  0.50216  0.68473  1.0000 -0.068837138
N   N2        1.0  0.99170  0.00216  0.81527  1.0000 -0.068837138
N   N3        1.0  0.99170  0.49784  0.31527  1.0000 -0.068837138
N   N4        1.0  0.00830  0.99784  0.18473  1.0000 -0.068837138
N   N5        1.0  0.24200  0.69538  0.82912  1.0000 -0.0784980525
N   N6        1.0  0.75800  0.19538  0.67088  1.0000 -0.0784980525
N   N7        1.0  0.75800  0.30462  0.17088  1.0000 -0.0784980525
N   N8        1.0  0.24200  0.80462  0.32912  1.0000 -0.0784980525
N   N9        1.0  0.11550  0.69090  0.81130  1.0000 -0.3996570354
N   N10       1.0  0.88450  0.19090  0.68870  1.0000 -0.3996570354
N   N11       1.0  0.88450  0.30910  0.18870  1.0000 -0.3996570354
N   N12       1.0  0.11550  0.80910  0.31130  1.0000 -0.3996570354
N   N13       1.0  0.09720  0.60220  0.90346  1.0000 -0.0280329258
N   N14       1.0  0.90280  0.10220  0.59654  1.0000 -0.0280329258
N   N15       1.0  0.90280  0.39780  0.09654  1.0000 -0.0280329258
N   N16       1.0  0.09720  0.89780  0.40346  1.0000 -0.0280329258
N   N17       1.0  0.04370  0.73302  0.00546  1.0000 -0.068837138
N   N18       1.0  0.95630  0.23302  0.49454  1.0000 -0.068837138
N   N19       1.0  0.95630  0.26698  0.99454  1.0000 -0.068837138
N   N20       1.0  0.04370  0.76698  0.50546  1.0000 -0.068837138
N   N21       1.0  0.94740  0.56600  0.85330  1.0000 -0.0280329258
N   N22       1.0  0.05260  0.06600  0.64670  1.0000 -0.0280329258
N   N23       1.0  0.05260  0.43400  0.14670  1.0000 -0.0280329258
N   N24       1.0  0.94740  0.93400  0.35330  1.0000 -0.0280329258
N   N25       1.0  0.04700  0.58014  0.74741  1.0000 -0.3868885433
N   N26       1.0  0.95300  0.08014  0.75259  1.0000 -0.3868885433
N   N27       1.0  0.95300  0.41986  0.25259  1.0000 -0.3868885433
N   N28       1.0  0.04700  0.91986  0.24741  1.0000 -0.3868885433
N   N29       1.0  0.99260  0.69340  0.90760  1.0000 -0.3996570354
N   N30       1.0  0.00740  0.19340  0.59240  1.0000 -0.3996570354
N   N31       1.0  0.00740  0.30660  0.09240  1.0000 -0.3996570354
N   N32       1.0  0.99260  0.80660  0.40760  1.0000 -0.3996570354
N   N33       1.0  0.78920  0.63890  0.76000  1.0000 -0.068837138
N   N34       1.0  0.21080  0.13890  0.74000  1.0000 -0.068837138
N   N35       1.0  0.21080  0.36110  0.24000  1.0000 -0.068837138
N   N36       1.0  0.78920  0.86110  0.26000  1.0000 -0.068837138
N   N37       1.0  0.91390  0.65877  0.76900  1.0000 -0.3996570354
N   N38       1.0  0.08610  0.15877  0.73100  1.0000 -0.3996570354
N   N39       1.0  0.08610  0.34123  0.23100  1.0000 -0.3996570354
N   N40       1.0  0.91390  0.84123  0.26900  1.0000 -0.3996570354
O   O1        1.0  0.46999  0.54994  0.58636  1.0000 -0.5417183434
O   O2        1.0  0.53001  0.04994  0.91364  1.0000 -0.5417183434
O   O3        1.0  0.53001  0.45006  0.41364  1.0000 -0.5417183434
O   O4        1.0  0.46999  0.95006  0.08636  1.0000 -0.5417183434
O   O5        1.0  0.53040  0.57805  0.46060  1.0000 -0.8800119405
O   O6        1.0  0.46960  0.07805  0.03940  1.0000 -0.8800119405
O   O7        1.0  0.46960  0.42195  0.53940  1.0000 -0.8800119405
O   O8        1.0  0.53040  0.92195  0.96060  1.0000 -0.8800119405
O   O9        1.0  0.48790  0.48128  0.66931  1.0000 -0.5504117851
O   O10       1.0  0.51210  0.98128  0.83069  1.0000 -0.5504117851
O   O11       1.0  0.51210  0.51872  0.33069  1.0000 -0.5504117851
O   O12       1.0  0.48790  0.01872  0.16931  1.0000 -0.5504117851
O   O13       1.0  0.59980  0.81320  0.99730  1.0000 -0.518795604
O   O14       1.0  0.40020  0.31320  0.50270  1.0000 -0.518795604
O   O15       1.0  0.40020  0.18680  0.00270  1.0000 -0.518795604
O   O16       1.0  0.59980  0.68680  0.49730  1.0000 -0.518795604
O   O17       1.0  0.63500  0.57894  0.57990  1.0000 -0.5417183434
O   O18       1.0  0.36500  0.07894  0.92010  1.0000 -0.5417183434
O   O19       1.0  0.36500  0.42106  0.42010  1.0000 -0.5417183434
O   O20       1.0  0.63500  0.92106  0.07990  1.0000 -0.5417183434
O   O21       1.0  0.60217  0.48432  0.55728  1.0000 -0.5892566089
O   O22       1.0  0.39783  0.98432  0.94272  1.0000 -0.5892566089
O   O23       1.0  0.39783  0.51568  0.44272  1.0000 -0.5892566089
O   O24       1.0  0.60217  0.01568  0.05728  1.0000 -0.5892566089
O   O25       1.0  0.44370  0.82982  0.03052  1.0000 -0.5417183434
O   O26       1.0  0.55630  0.32982  0.46948  1.0000 -0.5417183434
O   O27       1.0  0.55630  0.17018  0.96948  1.0000 -0.5417183434
O   O28       1.0  0.44370  0.67018  0.53052  1.0000 -0.5417183434
O   O29       1.0  0.39570  0.85070  0.92145  1.0000 -0.5578329359
O   O30       1.0  0.60430  0.35070  0.57855  1.0000 -0.5578329359
O   O31       1.0  0.60430  0.14930  0.07855  1.0000 -0.5578329359
O   O32       1.0  0.39570  0.64930  0.42145  1.0000 -0.5578329359
O   O33       1.0  0.58450  0.73510  0.06130  1.0000 -0.5289934521
O   O34       1.0  0.41550  0.23510  0.43870  1.0000 -0.5289934521
O   O35       1.0  0.41550  0.26490  0.93870  1.0000 -0.5289934521
O   O36       1.0  0.58450  0.76490  0.56130  1.0000 -0.5289934521
