# DDEC6 charges by PACMAN v1.1 (https://github.com/mtap-research/PACMAN-charge/)
data_2010[Mg][lon]3[ASR]1
_chemical_formula_sum              "Mg24 H48 C48 O96"
_cell_length_a       9.9638
_cell_length_b       18.082
_cell_length_c       18.45
_cell_angle_alpha    90
_cell_angle_beta     90
_cell_angle_gamma    90

_symmetry_space_group_name_H-M    "P 1"
_symmetry_Int_Tables_number       1

loop_
  _symmetry_equiv_pos_as_xyz
  'x, y, z'

loop_
  _atom_site_type_symbol
  _atom_site_label
  _atom_site_symmetry_multiplicity
  _atom_site_fract_x
  _atom_site_fract_y
  _atom_site_fract_z
  _atom_site_occupancy
  _atom_site_charge
Mg  Mg1       1.0  0.57509  0.05856  0.17847  1.0000 1.2861087143
Mg  Mg2       1.0  0.92491  0.55856  0.32153  1.0000 1.2861087143
Mg  Mg3       1.0  0.07509  0.94144  0.32153  1.0000 1.2861087143
Mg  Mg4       1.0  0.42491  0.44144  0.17847  1.0000 1.2861087143
Mg  Mg5       1.0  0.42491  0.94144  0.82153  1.0000 1.2861087143
Mg  Mg6       1.0  0.07509  0.44144  0.67847  1.0000 1.2861087143
Mg  Mg7       1.0  0.92491  0.05856  0.67847  1.0000 1.2861087143
Mg  Mg8       1.0  0.57509  0.55856  0.82153  1.0000 1.2861087143
Mg  Mg9       1.0  0.38421  0.96482  0.28283  1.0000 1.2604713857
Mg  Mg10      1.0  0.11579  0.46482  0.21717  1.0000 1.2604713857
Mg  Mg11      1.0  0.88421  0.03518  0.21717  1.0000 1.2604713857
Mg  Mg12      1.0  0.61579  0.53518  0.28283  1.0000 1.2604713857
Mg  Mg13      1.0  0.61579  0.03518  0.71717  1.0000 1.2604713857
Mg  Mg14      1.0  0.88421  0.53518  0.78283  1.0000 1.2604713857
Mg  Mg15      1.0  0.11579  0.96482  0.78283  1.0000 1.2604713857
Mg  Mg16      1.0  0.38421  0.46482  0.71717  1.0000 1.2604713857
Mg  Mg17      1.0  0.50000  0.00000  0.00000  1.0000 1.2696156026
Mg  Mg18      1.0  0.00000  0.50000  0.50000  1.0000 1.2696156026
Mg  Mg19      1.0  0.00000  0.00000  0.50000  1.0000 1.2696156026
Mg  Mg20      1.0  0.50000  0.50000  0.00000  1.0000 1.2696156026
Mg  Mg21      1.0  0.50000  0.25000  0.18441  1.0000 1.278339994
Mg  Mg22      1.0  0.00000  0.75000  0.31559  1.0000 1.278339994
Mg  Mg23      1.0  0.50000  0.75000  0.81559  1.0000 1.278339994
Mg  Mg24      1.0  0.00000  0.25000  0.68441  1.0000 1.278339994
H   H1        1.0  0.73270  0.99560  0.36170  1.0000 0.0894561446
H   H2        1.0  0.76730  0.49560  0.13830  1.0000 0.0894561446
H   H3        1.0  0.23270  0.00440  0.13830  1.0000 0.0894561446
H   H4        1.0  0.26730  0.50440  0.36170  1.0000 0.0894561446
H   H5        1.0  0.26730  0.00440  0.63830  1.0000 0.0894561446
H   H6        1.0  0.23270  0.50440  0.86170  1.0000 0.0894561446
H   H7        1.0  0.76730  0.99560  0.86170  1.0000 0.0894561446
H   H8        1.0  0.73270  0.49560  0.63830  1.0000 0.0894561446
H   H9        1.0  0.87170  0.00700  0.05230  1.0000 0.0894561446
H   H10       1.0  0.62830  0.50700  0.44770  1.0000 0.0894561446
H   H11       1.0  0.37170  0.99300  0.44770  1.0000 0.0894561446
H   H12       1.0  0.12830  0.49300  0.05230  1.0000 0.0894561446
H   H13       1.0  0.12830  0.99300  0.94770  1.0000 0.0894561446
H   H14       1.0  0.37170  0.49300  0.55230  1.0000 0.0894561446
H   H15       1.0  0.62830  0.00700  0.55230  1.0000 0.0894561446
H   H16       1.0  0.87170  0.50700  0.94770  1.0000 0.0894561446
H   H17       1.0  0.79040  0.23540  0.18260  1.0000 0.0894561446
H   H18       1.0  0.70960  0.73540  0.31740  1.0000 0.0894561446
H   H19       1.0  0.29040  0.76460  0.31740  1.0000 0.0894561446
H   H20       1.0  0.20960  0.26460  0.18260  1.0000 0.0894561446
H   H21       1.0  0.20960  0.76460  0.81740  1.0000 0.0894561446
H   H22       1.0  0.29040  0.26460  0.68260  1.0000 0.0894561446
H   H23       1.0  0.70960  0.23540  0.68260  1.0000 0.0894561446
H   H24       1.0  0.79040  0.73540  0.81740  1.0000 0.0894561446
H   H25       1.0  0.30320  0.12580  0.31480  1.0000 0.0894561446
H   H26       1.0  0.19680  0.62580  0.18520  1.0000 0.0894561446
H   H27       1.0  0.80320  0.87420  0.18520  1.0000 0.0894561446
H   H28       1.0  0.69680  0.37420  0.31480  1.0000 0.0894561446
H   H29       1.0  0.69680  0.87420  0.68520  1.0000 0.0894561446
H   H30       1.0  0.80320  0.37420  0.81480  1.0000 0.0894561446
H   H31       1.0  0.19680  0.12580  0.81480  1.0000 0.0894561446
H   H32       1.0  0.30320  0.62580  0.68520  1.0000 0.0894561446
H   H33       1.0  0.46150  0.85600  0.15140  1.0000 0.0894561446
H   H34       1.0  0.03850  0.35600  0.34860  1.0000 0.0894561446
H   H35       1.0  0.96150  0.14400  0.34860  1.0000 0.0894561446
H   H36       1.0  0.53850  0.64400  0.15140  1.0000 0.0894561446
H   H37       1.0  0.53850  0.14400  0.84860  1.0000 0.0894561446
H   H38       1.0  0.96150  0.64400  0.65140  1.0000 0.0894561446
H   H39       1.0  0.03850  0.85600  0.65140  1.0000 0.0894561446
H   H40       1.0  0.46150  0.35600  0.84860  1.0000 0.0894561446
H   H41       1.0  0.34630  0.13480  0.02970  1.0000 0.0823937131
H   H42       1.0  0.15370  0.63480  0.47030  1.0000 0.0823937131
H   H43       1.0  0.84630  0.86520  0.47030  1.0000 0.0823937131
H   H44       1.0  0.65370  0.36520  0.02970  1.0000 0.0823937131
H   H45       1.0  0.65370  0.86520  0.97030  1.0000 0.0823937131
H   H46       1.0  0.84630  0.36520  0.52970  1.0000 0.0823937131
H   H47       1.0  0.15370  0.13480  0.52970  1.0000 0.0823937131
H   H48       1.0  0.34630  0.63480  0.97030  1.0000 0.0823937131
C   C1        1.0  0.66570  0.99890  0.32670  1.0000 0.5246773071
C   C2        1.0  0.83430  0.49890  0.17330  1.0000 0.5246773071
C   C3        1.0  0.16570  0.00110  0.17330  1.0000 0.5246773071
C   C4        1.0  0.33430  0.50110  0.32670  1.0000 0.5246773071
C   C5        1.0  0.33430  0.00110  0.67330  1.0000 0.5246773071
C   C6        1.0  0.16570  0.50110  0.82670  1.0000 0.5246773071
C   C7        1.0  0.83430  0.99890  0.82670  1.0000 0.5246773071
C   C8        1.0  0.66570  0.49890  0.67330  1.0000 0.5246773071
C   C9        1.0  0.78090  0.01170  0.06320  1.0000 0.5044362068
C   C10       1.0  0.71910  0.51170  0.43680  1.0000 0.5044362068
C   C11       1.0  0.28090  0.98830  0.43680  1.0000 0.5044362068
C   C12       1.0  0.21910  0.48830  0.06320  1.0000 0.5044362068
C   C13       1.0  0.21910  0.98830  0.93680  1.0000 0.5044362068
C   C14       1.0  0.28090  0.48830  0.56320  1.0000 0.5044362068
C   C15       1.0  0.71910  0.01170  0.56320  1.0000 0.5044362068
C   C16       1.0  0.78090  0.51170  0.93680  1.0000 0.5044362068
C   C17       1.0  0.77190  0.18530  0.18840  1.0000 0.5263570965
C   C18       1.0  0.72810  0.68530  0.31160  1.0000 0.5263570965
C   C19       1.0  0.27190  0.81470  0.31160  1.0000 0.5263570965
C   C20       1.0  0.22810  0.31470  0.18840  1.0000 0.5263570965
C   C21       1.0  0.22810  0.81470  0.81160  1.0000 0.5263570965
C   C22       1.0  0.27190  0.31470  0.68840  1.0000 0.5263570965
C   C23       1.0  0.72810  0.18530  0.68840  1.0000 0.5263570965
C   C24       1.0  0.77190  0.68530  0.81160  1.0000 0.5263570965
C   C25       1.0  0.36800  0.13300  0.27920  1.0000 0.5098362573
C   C26       1.0  0.13200  0.63300  0.22080  1.0000 0.5098362573
C   C27       1.0  0.86800  0.86700  0.22080  1.0000 0.5098362573
C   C28       1.0  0.63200  0.36700  0.27920  1.0000 0.5098362573
C   C29       1.0  0.63200  0.86700  0.72080  1.0000 0.5098362573
C   C30       1.0  0.86800  0.36700  0.77920  1.0000 0.5098362573
C   C31       1.0  0.13200  0.13300  0.77920  1.0000 0.5098362573
C   C32       1.0  0.36800  0.63300  0.72080  1.0000 0.5098362573
C   C33       1.0  0.48060  0.90410  0.13690  1.0000 0.5098362573
C   C34       1.0  0.01940  0.40410  0.36310  1.0000 0.5098362573
C   C35       1.0  0.98060  0.09590  0.36310  1.0000 0.5098362573
C   C36       1.0  0.51940  0.59590  0.13690  1.0000 0.5098362573
C   C37       1.0  0.51940  0.09590  0.86310  1.0000 0.5098362573
C   C38       1.0  0.98060  0.59590  0.63690  1.0000 0.5098362573
C   C39       1.0  0.01940  0.90410  0.63690  1.0000 0.5098362573
C   C40       1.0  0.48060  0.40410  0.86310  1.0000 0.5098362573
C   C41       1.0  0.40020  0.13610  0.07080  1.0000 0.5246773071
C   C42       1.0  0.09980  0.63610  0.42920  1.0000 0.5246773071
C   C43       1.0  0.90020  0.86390  0.42920  1.0000 0.5246773071
C   C44       1.0  0.59980  0.36390  0.07080  1.0000 0.5246773071
C   C45       1.0  0.59980  0.86390  0.92920  1.0000 0.5246773071
C   C46       1.0  0.90020  0.36390  0.57080  1.0000 0.5246773071
C   C47       1.0  0.09980  0.13610  0.57080  1.0000 0.5246773071
C   C48       1.0  0.40020  0.63610  0.92920  1.0000 0.5246773071
O   O1        1.0  0.69640  0.02957  0.26727  1.0000 -0.6815232366
O   O2        1.0  0.80360  0.52957  0.23273  1.0000 -0.6815232366
O   O3        1.0  0.19640  0.97043  0.23273  1.0000 -0.6815232366
O   O4        1.0  0.30360  0.47043  0.26727  1.0000 -0.6815232366
O   O5        1.0  0.30360  0.97043  0.73273  1.0000 -0.6815232366
O   O6        1.0  0.19640  0.47043  0.76727  1.0000 -0.6815232366
O   O7        1.0  0.80360  0.02957  0.76727  1.0000 -0.6815232366
O   O8        1.0  0.69640  0.52957  0.73273  1.0000 -0.6815232366
O   O9        1.0  0.55440  0.97280  0.34238  1.0000 -0.5865211442
O   O10       1.0  0.94560  0.47280  0.15762  1.0000 -0.5865211442
O   O11       1.0  0.05440  0.02720  0.15762  1.0000 -0.5865211442
O   O12       1.0  0.44560  0.52720  0.34238  1.0000 -0.5865211442
O   O13       1.0  0.44560  0.02720  0.65762  1.0000 -0.5865211442
O   O14       1.0  0.05440  0.52720  0.84238  1.0000 -0.5865211442
O   O15       1.0  0.94560  0.97280  0.84238  1.0000 -0.5865211442
O   O16       1.0  0.55440  0.47280  0.65762  1.0000 -0.5865211442
O   O17       1.0  0.65050  0.16631  0.18343  1.0000 -0.652981653
O   O18       1.0  0.84950  0.66631  0.31657  1.0000 -0.652981653
O   O19       1.0  0.15050  0.83369  0.31657  1.0000 -0.652981653
O   O20       1.0  0.34950  0.33369  0.18343  1.0000 -0.652981653
O   O21       1.0  0.34950  0.83369  0.81657  1.0000 -0.652981653
O   O22       1.0  0.15050  0.33369  0.68343  1.0000 -0.652981653
O   O23       1.0  0.84950  0.16631  0.68343  1.0000 -0.652981653
O   O24       1.0  0.65050  0.66631  0.81657  1.0000 -0.652981653
O   O25       1.0  0.86780  0.14490  0.20000  1.0000 -0.5669712007
O   O26       1.0  0.63220  0.64490  0.30000  1.0000 -0.5669712007
O   O27       1.0  0.36780  0.85510  0.30000  1.0000 -0.5669712007
O   O28       1.0  0.13220  0.35510  0.20000  1.0000 -0.5669712007
O   O29       1.0  0.13220  0.85510  0.80000  1.0000 -0.5669712007
O   O30       1.0  0.36780  0.35510  0.70000  1.0000 -0.5669712007
O   O31       1.0  0.63220  0.14490  0.70000  1.0000 -0.5669712007
O   O32       1.0  0.86780  0.64490  0.80000  1.0000 -0.5669712007
O   O33       1.0  0.48620  0.95312  0.18596  1.0000 -0.6815232366
O   O34       1.0  0.01380  0.45312  0.31404  1.0000 -0.6815232366
O   O35       1.0  0.98620  0.04688  0.31404  1.0000 -0.6815232366
O   O36       1.0  0.51380  0.54688  0.18596  1.0000 -0.6815232366
O   O37       1.0  0.51380  0.04688  0.81404  1.0000 -0.6815232366
O   O38       1.0  0.98620  0.54688  0.68596  1.0000 -0.6815232366
O   O39       1.0  0.01380  0.95312  0.68596  1.0000 -0.6815232366
O   O40       1.0  0.48620  0.45312  0.81404  1.0000 -0.6815232366
O   O41       1.0  0.41760  0.07585  0.25137  1.0000 -0.6651174605
O   O42       1.0  0.08240  0.57585  0.24863  1.0000 -0.6651174605
O   O43       1.0  0.91760  0.92415  0.24863  1.0000 -0.6651174605
O   O44       1.0  0.58240  0.42415  0.25137  1.0000 -0.6651174605
O   O45       1.0  0.58240  0.92415  0.74863  1.0000 -0.6651174605
O   O46       1.0  0.91760  0.42415  0.75137  1.0000 -0.6651174605
O   O47       1.0  0.08240  0.07585  0.75137  1.0000 -0.6651174605
O   O48       1.0  0.41760  0.57585  0.74863  1.0000 -0.6651174605
O   O49       1.0  0.47140  0.07916  0.08382  1.0000 -0.6815232366
O   O50       1.0  0.02860  0.57916  0.41618  1.0000 -0.6815232366
O   O51       1.0  0.97140  0.92084  0.41618  1.0000 -0.6815232366
O   O52       1.0  0.52860  0.42084  0.08382  1.0000 -0.6815232366
O   O53       1.0  0.52860  0.92084  0.91618  1.0000 -0.6815232366
O   O54       1.0  0.97140  0.42084  0.58382  1.0000 -0.6815232366
O   O55       1.0  0.02860  0.07916  0.58382  1.0000 -0.6815232366
O   O56       1.0  0.47140  0.57916  0.91618  1.0000 -0.6815232366
O   O57       1.0  0.75180  0.02038  0.12846  1.0000 -0.652981653
O   O58       1.0  0.74820  0.52038  0.37154  1.0000 -0.652981653
O   O59       1.0  0.25180  0.97962  0.37154  1.0000 -0.652981653
O   O60       1.0  0.24820  0.47962  0.12846  1.0000 -0.652981653
O   O61       1.0  0.24820  0.97962  0.87154  1.0000 -0.652981653
O   O62       1.0  0.25180  0.47962  0.62846  1.0000 -0.652981653
O   O63       1.0  0.74820  0.02038  0.62846  1.0000 -0.652981653
O   O64       1.0  0.75180  0.52038  0.87154  1.0000 -0.652981653
O   O65       1.0  0.39580  0.19730  0.26458  1.0000 -0.5595114335
O   O66       1.0  0.10420  0.69730  0.23542  1.0000 -0.5595114335
O   O67       1.0  0.89580  0.80270  0.23542  1.0000 -0.5595114335
O   O68       1.0  0.60420  0.30270  0.26458  1.0000 -0.5595114335
O   O69       1.0  0.60420  0.80270  0.73542  1.0000 -0.5595114335
O   O70       1.0  0.89580  0.30270  0.76458  1.0000 -0.5595114335
O   O71       1.0  0.10420  0.19730  0.76458  1.0000 -0.5595114335
O   O72       1.0  0.39580  0.69730  0.73542  1.0000 -0.5595114335
O   O73       1.0  0.39620  0.19270  0.10773  1.0000 -0.580943539
O   O74       1.0  0.10380  0.69270  0.39227  1.0000 -0.580943539
O   O75       1.0  0.89620  0.80730  0.39227  1.0000 -0.580943539
O   O76       1.0  0.60380  0.30730  0.10773  1.0000 -0.580943539
O   O77       1.0  0.60380  0.80730  0.89227  1.0000 -0.580943539
O   O78       1.0  0.89620  0.30730  0.60773  1.0000 -0.580943539
O   O79       1.0  0.10380  0.19270  0.60773  1.0000 -0.580943539
O   O80       1.0  0.39620  0.69270  0.89227  1.0000 -0.580943539
O   O81       1.0  0.70390  0.00890  0.01247  1.0000 -0.5595114335
O   O82       1.0  0.79610  0.50890  0.48753  1.0000 -0.5595114335
O   O83       1.0  0.20390  0.99110  0.48753  1.0000 -0.5595114335
O   O84       1.0  0.29610  0.49110  0.01247  1.0000 -0.5595114335
O   O85       1.0  0.29610  0.99110  0.98753  1.0000 -0.5595114335
O   O86       1.0  0.20390  0.49110  0.51247  1.0000 -0.5595114335
O   O87       1.0  0.79610  0.00890  0.51247  1.0000 -0.5595114335
O   O88       1.0  0.70390  0.50890  0.98753  1.0000 -0.5595114335
O   O89       1.0  0.49850  0.91490  0.07193  1.0000 -0.580943539
O   O90       1.0  0.00150  0.41490  0.42807  1.0000 -0.580943539
O   O91       1.0  0.99850  0.08510  0.42807  1.0000 -0.580943539
O   O92       1.0  0.50150  0.58510  0.07193  1.0000 -0.580943539
O   O93       1.0  0.50150  0.08510  0.92807  1.0000 -0.580943539
O   O94       1.0  0.99850  0.58510  0.57193  1.0000 -0.580943539
O   O95       1.0  0.00150  0.91490  0.57193  1.0000 -0.580943539
O   O96       1.0  0.49850  0.41490  0.92807  1.0000 -0.580943539
