# DDEC6 charges by PACMAN v1.1 (https://github.com/mtap-research/PACMAN-charge/)
data_2010[Y][rtl]3[ASR]1
_chemical_formula_sum              "Y4 P4 H44 C28 N4 O20"
_cell_length_a       5.5234
_cell_length_b       13.349
_cell_length_c       20.586
_cell_angle_alpha    90
_cell_angle_beta     95.29
_cell_angle_gamma    90

_symmetry_space_group_name_H-M    "P 1"
_symmetry_Int_Tables_number       1

loop_
  _symmetry_equiv_pos_as_xyz
  'x, y, z'

loop_
  _atom_site_type_symbol
  _atom_site_label
  _atom_site_symmetry_multiplicity
  _atom_site_fract_x
  _atom_site_fract_y
  _atom_site_fract_z
  _atom_site_occupancy
  _atom_site_charge
Y   Y1        1.0  0.62640  0.13175  0.97210  1.0000 1.8298861801
Y   Y2        1.0  0.37360  0.63175  0.52790  1.0000 1.8298861801
Y   Y3        1.0  0.37360  0.86825  0.02790  1.0000 1.8298861801
Y   Y4        1.0  0.62640  0.36825  0.47210  1.0000 1.8298861801
P   P1        1.0  0.90840  0.02047  0.08510  1.0000 1.3142043172
P   P2        1.0  0.09160  0.52047  0.41490  1.0000 1.3142043172
P   P3        1.0  0.09160  0.97953  0.91490  1.0000 1.3142043172
P   P4        1.0  0.90840  0.47953  0.58510  1.0000 1.3142043172
H   H1        1.0  0.76520  0.97180  0.18260  1.0000 0.1455294012
H   H2        1.0  0.23480  0.47180  0.31740  1.0000 0.1455294012
H   H3        1.0  0.23480  0.02820  0.81740  1.0000 0.1455294012
H   H4        1.0  0.76520  0.52820  0.68260  1.0000 0.1455294012
H   H5        1.0  0.66640  0.07840  0.16320  1.0000 0.1346113502
H   H6        1.0  0.33360  0.57840  0.33680  1.0000 0.1346113502
H   H7        1.0  0.33360  0.92160  0.83680  1.0000 0.1346113502
H   H8        1.0  0.66640  0.42160  0.66320  1.0000 0.1346113502
H   H9        1.0  0.75660  0.10410  0.28540  1.0000 0.0939879499
H   H10       1.0  0.24340  0.60410  0.21460  1.0000 0.0939879499
H   H11       1.0  0.24340  0.89590  0.71460  1.0000 0.0939879499
H   H12       1.0  0.75660  0.39590  0.78540  1.0000 0.0939879499
H   H13       1.0  0.88400  0.99900  0.29110  1.0000 0.1017637483
H   H14       1.0  0.11600  0.49900  0.20890  1.0000 0.1017637483
H   H15       1.0  0.11600  0.00100  0.70890  1.0000 0.1017637483
H   H16       1.0  0.88400  0.50100  0.79110  1.0000 0.1017637483
H   H17       1.0  0.03830  0.10210  0.37750  1.0000 0.1171836412
H   H18       1.0  0.96170  0.60210  0.12250  1.0000 0.1171836412
H   H19       1.0  0.96170  0.89790  0.62250  1.0000 0.1171836412
H   H20       1.0  0.03830  0.39790  0.87750  1.0000 0.1171836412
H   H21       1.0  0.24740  0.07350  0.33420  1.0000 0.1017637483
H   H22       1.0  0.75260  0.57350  0.16580  1.0000 0.1017637483
H   H23       1.0  0.75260  0.92650  0.66580  1.0000 0.1017637483
H   H24       1.0  0.24740  0.42650  0.83420  1.0000 0.1017637483
H   H25       1.0  0.99020  0.25710  0.32600  1.0000 0.1141644089
H   H26       1.0  0.00980  0.75710  0.17400  1.0000 0.1141644089
H   H27       1.0  0.00980  0.74290  0.67400  1.0000 0.1141644089
H   H28       1.0  0.99020  0.24290  0.82600  1.0000 0.1141644089
H   H29       1.0  0.23020  0.30710  0.24610  1.0000 0.1017637483
H   H30       1.0  0.76980  0.80710  0.25390  1.0000 0.1017637483
H   H31       1.0  0.76980  0.69290  0.75390  1.0000 0.1017637483
H   H32       1.0  0.23020  0.19290  0.74610  1.0000 0.1017637483
H   H33       1.0  0.37350  0.20560  0.25130  1.0000 0.1017637483
H   H34       1.0  0.62650  0.70560  0.24870  1.0000 0.1017637483
H   H35       1.0  0.62650  0.79440  0.74870  1.0000 0.1017637483
H   H36       1.0  0.37350  0.29440  0.75130  1.0000 0.1017637483
H   H37       1.0  0.09070  0.19820  0.16120  1.0000 0.1171836412
H   H38       1.0  0.90930  0.69820  0.33880  1.0000 0.1171836412
H   H39       1.0  0.90930  0.80180  0.83880  1.0000 0.1171836412
H   H40       1.0  0.09070  0.30180  0.66120  1.0000 0.1171836412
H   H41       1.0  0.87980  0.22610  0.20400  1.0000 0.0939879499
H   H42       1.0  0.12020  0.72610  0.29600  1.0000 0.0939879499
H   H43       1.0  0.12020  0.77390  0.79600  1.0000 0.0939879499
H   H44       1.0  0.87980  0.27390  0.70400  1.0000 0.0939879499
C   C1        1.0  0.81110  0.03690  0.16660  1.0000 -0.4452745498
C   C2        1.0  0.18890  0.53690  0.33340  1.0000 -0.4452745498
C   C3        1.0  0.18890  0.96310  0.83340  1.0000 -0.4452745498
C   C4        1.0  0.81110  0.46310  0.66667  1.0000 -0.44458856
C   C5        1.0  0.91000  0.06960  0.28300  1.0000 -0.1174643071
C   C6        1.0  0.09000  0.56960  0.21700  1.0000 -0.1174643071
C   C7        1.0  0.09000  0.93040  0.71700  1.0000 -0.1174643071
C   C8        1.0  0.91000  0.43040  0.78300  1.0000 -0.1174643071
C   C9        1.0  0.09670  0.11070  0.33490  1.0000 -0.201093185
C   C10       1.0  0.90330  0.61070  0.16510  1.0000 -0.201093185
C   C11       1.0  0.90330  0.88930  0.66510  1.0000 -0.201093185
C   C12       1.0  0.09670  0.38930  0.83490  1.0000 -0.201093185
C   C13       1.0  0.14420  0.22160  0.32320  1.0000 -0.11258576
C   C14       1.0  0.85580  0.72160  0.17680  1.0000 -0.11258576
C   C15       1.0  0.85580  0.77840  0.67680  1.0000 -0.11258576
C   C16       1.0  0.14420  0.27840  0.82320  1.0000 -0.11258576
C   C17       1.0  0.21570  0.23600  0.25470  1.0000 -0.2145238102
C   C18       1.0  0.78430  0.73600  0.24530  1.0000 -0.2145238102
C   C19       1.0  0.78430  0.76400  0.74530  1.0000 -0.2145238102
C   C20       1.0  0.21570  0.26400  0.75470  1.0000 -0.2145238102
C   C21       1.0  0.03280  0.19040  0.20400  1.0000 -0.11258576
C   C22       1.0  0.96720  0.69040  0.29600  1.0000 -0.11258576
C   C23       1.0  0.96720  0.80960  0.79600  1.0000 -0.11258576
C   C24       1.0  0.03280  0.30960  0.70400  1.0000 -0.11258576
C   C25       1.0  0.32790  0.26620  0.37490  1.0000 0.5513661324
C   C26       1.0  0.67210  0.76620  0.12510  1.0000 0.5513661324
C   C27       1.0  0.67210  0.73380  0.62510  1.0000 0.5513661324
C   C28       1.0  0.32790  0.23380  0.87490  1.0000 0.5513661324
N   N1        1.0  0.99150  0.08250  0.21640  1.0000 -0.0189991195
N   N2        1.0  0.00850  0.58250  0.28360  1.0000 -0.0189991195
N   N3        1.0  0.00850  0.91750  0.78360  1.0000 -0.0189991195
N   N4        1.0  0.99150  0.41750  0.71640  1.0000 -0.0189991195
O   O1        1.0  0.67980  0.97990  0.04550  1.0000 -0.8919520558
O   O2        1.0  0.32020  0.47990  0.45450  1.0000 -0.8919520558
O   O3        1.0  0.32020  0.02010  0.95450  1.0000 -0.8919520558
O   O4        1.0  0.67980  0.52010  0.54550  1.0000 -0.8919520558
O   O5        1.0  0.95750  0.12190  0.05410  1.0000 -0.8283885301
O   O6        1.0  0.04250  0.62190  0.44590  1.0000 -0.8283885301
O   O7        1.0  0.04250  0.87810  0.94590  1.0000 -0.8283885301
O   O8        1.0  0.95750  0.37810  0.55410  1.0000 -0.8283885301
O   O9        1.0  0.12260  0.95040  0.09070  1.0000 -0.7955775441
O   O10       1.0  0.87740  0.45040  0.40930  1.0000 -0.7955775441
O   O11       1.0  0.87740  0.04960  0.90930  1.0000 -0.7955775441
O   O12       1.0  0.12260  0.54960  0.59070  1.0000 -0.7955775441
O   O13       1.0  0.30270  0.24880  0.43420  1.0000 -0.5959953846
O   O14       1.0  0.69730  0.74880  0.06580  1.0000 -0.5959953846
O   O15       1.0  0.69730  0.75120  0.56580  1.0000 -0.5959953846
O   O16       1.0  0.30270  0.25120  0.93420  1.0000 -0.5959953846
O   O17       1.0  0.49510  0.32100  0.35940  1.0000 -0.5848914565
O   O18       1.0  0.50490  0.82100  0.14060  1.0000 -0.5848914565
O   O19       1.0  0.50490  0.67900  0.64060  1.0000 -0.5848914565
O   O20       1.0  0.49510  0.17900  0.85940  1.0000 -0.5848914565
