# DDEC6 charges by PACMAN v1.1 (https://github.com/mtap-research/PACMAN-charge/)
data_2010[Yb][nan]3[ASR]2
_chemical_formula_sum              "Yb4 H12 C36 O24"
_cell_length_a       10.241
_cell_length_b       10.241
_cell_length_c       14.4026
_cell_angle_alpha    90
_cell_angle_beta     90
_cell_angle_gamma    90

_symmetry_space_group_name_H-M    "P 1"
_symmetry_Int_Tables_number       1

loop_
  _symmetry_equiv_pos_as_xyz
  'x, y, z'

loop_
  _atom_site_type_symbol
  _atom_site_label
  _atom_site_symmetry_multiplicity
  _atom_site_fract_x
  _atom_site_fract_y
  _atom_site_fract_z
  _atom_site_occupancy
  _atom_site_charge
Yb  Yb1       1.0  0.14713  0.14713  0.87500  1.0000 2.1086505606
Yb  Yb2       1.0  0.85287  0.85287  0.37500  1.0000 2.1086505606
Yb  Yb3       1.0  0.85287  0.14713  0.12500  1.0000 2.1086505606
Yb  Yb4       1.0  0.14713  0.85287  0.62500  1.0000 2.1086505606
H   H1        1.0  0.55650  0.07330  0.87980  1.0000 0.1368717804
H   H2        1.0  0.44350  0.92670  0.37980  1.0000 0.1368717804
H   H3        1.0  0.92670  0.55650  0.12980  1.0000 0.1368717804
H   H4        1.0  0.07330  0.44350  0.62980  1.0000 0.1368717804
H   H5        1.0  0.44350  0.07330  0.12020  1.0000 0.1368717804
H   H6        1.0  0.55650  0.92670  0.62020  1.0000 0.1368717804
H   H7        1.0  0.07330  0.55650  0.87020  1.0000 0.1368717804
H   H8        1.0  0.92670  0.44350  0.37020  1.0000 0.1368717804
H   H9        1.0  0.89490  0.00000  0.75000  1.0000 0.1118862136
H   H10       1.0  0.10510  0.00000  0.25000  1.0000 0.1118862136
H   H11       1.0  0.00000  0.89490  0.00000  1.0000 0.1118862136
H   H12       1.0  0.00000  0.10510  0.50000  1.0000 0.1118862136
C   C1        1.0  0.38640  0.00000  0.75000  1.0000 0.6807712867
C   C2        1.0  0.61360  0.00000  0.25000  1.0000 0.6807712867
C   C3        1.0  0.00000  0.38640  0.00000  1.0000 0.6807712867
C   C4        1.0  0.00000  0.61360  0.50000  1.0000 0.6807712867
C   C5        1.0  0.53420  0.00000  0.75000  1.0000 -0.0376473105
C   C6        1.0  0.46580  0.00000  0.25000  1.0000 -0.0376473105
C   C7        1.0  0.00000  0.53420  0.00000  1.0000 -0.0376473105
C   C8        1.0  0.00000  0.46580  0.50000  1.0000 -0.0376473105
C   C9        1.0  0.60190  0.04330  0.82810  1.0000 -0.0987896443
C   C10       1.0  0.39810  0.95670  0.32810  1.0000 -0.0987896443
C   C11       1.0  0.95670  0.60190  0.07810  1.0000 -0.0987896443
C   C12       1.0  0.04330  0.39810  0.57810  1.0000 -0.0987896443
C   C13       1.0  0.39810  0.04330  0.17190  1.0000 -0.0987896443
C   C14       1.0  0.60190  0.95670  0.67190  1.0000 -0.0987896443
C   C15       1.0  0.04330  0.60190  0.92190  1.0000 -0.0987896443
C   C16       1.0  0.95670  0.39810  0.42190  1.0000 -0.0987896443
C   C17       1.0  0.73830  0.04140  0.82820  1.0000 -0.0317332436
C   C18       1.0  0.26170  0.95860  0.32820  1.0000 -0.0317332436
C   C19       1.0  0.95860  0.73830  0.07820  1.0000 -0.0317332436
C   C20       1.0  0.04140  0.26170  0.57820  1.0000 -0.0317332436
C   C21       1.0  0.26170  0.04140  0.17180  1.0000 -0.0317332436
C   C22       1.0  0.73830  0.95860  0.67180  1.0000 -0.0317332436
C   C23       1.0  0.04140  0.73830  0.92180  1.0000 -0.0317332436
C   C24       1.0  0.95860  0.26170  0.42180  1.0000 -0.0317332436
C   C25       1.0  0.80410  0.00000  0.75000  1.0000 -0.1112802968
C   C26       1.0  0.19590  0.00000  0.25000  1.0000 -0.1112802968
C   C27       1.0  0.00000  0.80410  0.00000  1.0000 -0.1112802968
C   C28       1.0  0.00000  0.19590  0.50000  1.0000 -0.1112802968
C   C29       1.0  0.81580  0.08490  0.91230  1.0000 0.6496794476
C   C30       1.0  0.18420  0.91510  0.41230  1.0000 0.6496794476
C   C31       1.0  0.91510  0.81580  0.16230  1.0000 0.6496794476
C   C32       1.0  0.08490  0.18420  0.66230  1.0000 0.6496794476
C   C33       1.0  0.18420  0.08490  0.08770  1.0000 0.6496794476
C   C34       1.0  0.81580  0.91510  0.58770  1.0000 0.6496794476
C   C35       1.0  0.08490  0.81580  0.83770  1.0000 0.6496794476
C   C36       1.0  0.91510  0.18420  0.33770  1.0000 0.6496794476
O   O1        1.0  0.33230  0.07220  0.80800  1.0000 -0.6812064284
O   O2        1.0  0.66770  0.92780  0.30800  1.0000 -0.6812064284
O   O3        1.0  0.92780  0.33230  0.05800  1.0000 -0.6812064284
O   O4        1.0  0.07220  0.66770  0.55800  1.0000 -0.6812064284
O   O5        1.0  0.66770  0.07220  0.19200  1.0000 -0.6812064284
O   O6        1.0  0.33230  0.92780  0.69200  1.0000 -0.6812064284
O   O7        1.0  0.07220  0.33230  0.94200  1.0000 -0.6812064284
O   O8        1.0  0.92780  0.66770  0.44200  1.0000 -0.6812064284
O   O9        1.0  0.93190  0.11130  0.90130  1.0000 -0.6812064284
O   O10       1.0  0.06810  0.88870  0.40130  1.0000 -0.6812064284
O   O11       1.0  0.88870  0.93190  0.15130  1.0000 -0.6812064284
O   O12       1.0  0.11130  0.06810  0.65130  1.0000 -0.6812064284
O   O13       1.0  0.06810  0.11130  0.09870  1.0000 -0.6812064284
O   O14       1.0  0.93190  0.88870  0.59870  1.0000 -0.6812064284
O   O15       1.0  0.11130  0.93190  0.84870  1.0000 -0.6812064284
O   O16       1.0  0.88870  0.06810  0.34870  1.0000 -0.6812064284
O   O17       1.0  0.75840  0.09220  0.98880  1.0000 -0.6698057101
O   O18       1.0  0.24160  0.90780  0.48880  1.0000 -0.6698057101
O   O19       1.0  0.90780  0.75840  0.23880  1.0000 -0.6698057101
O   O20       1.0  0.09220  0.24160  0.73880  1.0000 -0.6698057101
O   O21       1.0  0.24160  0.09220  0.01120  1.0000 -0.6698057101
O   O22       1.0  0.75840  0.90780  0.51120  1.0000 -0.6698057101
O   O23       1.0  0.09220  0.75840  0.76120  1.0000 -0.6698057101
O   O24       1.0  0.90780  0.24160  0.26120  1.0000 -0.6698057101
