# DDEC6 charges by PACMAN v1.1 (https://github.com/mtap-research/PACMAN-charge/)
data_2010[Mn][nan]3[ASR]11
_chemical_formula_sum              "Mn8 H64 C112 O32"
_cell_length_a       13.819
_cell_length_b       15.382
_cell_length_c       24.383
_cell_angle_alpha    100.41
_cell_angle_beta     95.25
_cell_angle_gamma    101.09

_symmetry_space_group_name_H-M    "P 1"
_symmetry_Int_Tables_number       1

loop_
  _symmetry_equiv_pos_as_xyz
  'x, y, z'

loop_
  _atom_site_type_symbol
  _atom_site_label
  _atom_site_symmetry_multiplicity
  _atom_site_fract_x
  _atom_site_fract_y
  _atom_site_fract_z
  _atom_site_occupancy
  _atom_site_charge
Mn  Mn1       1.0  0.82539  0.35644  0.67661  1.0000 1.0170560245
Mn  Mn2       1.0  0.17461  0.64356  0.32339  1.0000 1.0170560245
Mn  Mn3       1.0  0.63213  0.44387  0.72616  1.0000 1.0321596626
Mn  Mn4       1.0  0.36787  0.55613  0.27384  1.0000 1.0321596626
Mn  Mn5       1.0  0.39124  0.34591  0.67524  1.0000 0.9905442659
Mn  Mn6       1.0  0.60876  0.65409  0.32476  1.0000 0.9905442659
Mn  Mn7       1.0  0.18142  0.30163  0.73737  1.0000 1.0625041489
Mn  Mn8       1.0  0.81858  0.69837  0.26263  1.0000 1.0625041489
H   H1        1.0  0.71200  0.64700  0.68740  1.0000 0.1191037685
H   H2        1.0  0.28800  0.35300  0.31260  1.0000 0.1191037685
H   H3        1.0  0.73880  0.80040  0.68940  1.0000 0.1114316154
H   H4        1.0  0.26120  0.19960  0.31060  1.0000 0.1114316154
H   H5        1.0  0.01940  0.80400  0.66490  1.0000 0.1114316154
H   H6        1.0  0.98060  0.19600  0.33510  1.0000 0.1114316154
H   H7        1.0  0.99360  0.65220  0.66700  1.0000 0.1191037685
H   H8        1.0  0.00640  0.34780  0.33300  1.0000 0.1191037685
H   H9        1.0  0.76090  0.92290  0.65000  1.0000 0.1114316154
H   H10       1.0  0.23910  0.07710  0.35000  1.0000 0.1114316154
H   H11       1.0  0.78850  0.07500  0.65270  1.0000 0.1114316154
H   H12       1.0  0.21150  0.92500  0.34730  1.0000 0.1114316154
H   H13       1.0  0.06720  0.10310  0.71560  1.0000 0.1191037685
H   H14       1.0  0.93280  0.89690  0.28440  1.0000 0.1191037685
H   H15       1.0  0.04130  0.95030  0.71110  1.0000 0.1114316154
H   H16       1.0  0.95870  0.04970  0.28890  1.0000 0.1114316154
H   H17       1.0  0.77930  0.52490  0.89910  1.0000 0.1114316154
H   H18       1.0  0.22070  0.47510  0.10090  1.0000 0.1114316154
H   H19       1.0  0.86420  0.55600  0.98860  1.0000 0.1046938438
H   H20       1.0  0.13580  0.44400  0.01140  1.0000 0.1046938438
H   H21       1.0  0.06590  0.42400  0.93070  1.0000 0.1114316154
H   H22       1.0  0.93410  0.57600  0.06930  1.0000 0.1114316154
H   H23       1.0  0.97910  0.38830  0.84380  1.0000 0.1292802442
H   H24       1.0  0.02090  0.61170  0.15620  1.0000 0.1292802442
H   H25       1.0  0.44950  0.23620  0.55740  1.0000 0.1292802442
H   H26       1.0  0.55050  0.76380  0.44260  1.0000 0.1292802442
H   H27       1.0  0.40970  0.10340  0.49150  1.0000 0.1114316154
H   H28       1.0  0.59030  0.89660  0.50850  1.0000 0.1114316154
H   H29       1.0  0.62970  0.01540  0.56550  1.0000 0.1114316154
H   H30       1.0  0.37030  0.98460  0.43450  1.0000 0.1114316154
H   H31       1.0  0.67280  0.14940  0.63010  1.0000 0.1191037685
H   H32       1.0  0.32720  0.85060  0.36990  1.0000 0.1191037685
H   H33       1.0  0.31390  0.41170  0.86460  1.0000 0.1191037685
H   H34       1.0  0.68610  0.58830  0.13540  1.0000 0.1191037685
H   H35       1.0  0.34370  0.46740  0.96010  1.0000 0.1114316154
H   H36       1.0  0.65630  0.53260  0.03990  1.0000 0.1114316154
H   H37       1.0  0.62970  0.47890  0.95560  1.0000 0.1114316154
H   H38       1.0  0.37030  0.52110  0.04440  1.0000 0.1114316154
H   H39       1.0  0.60320  0.43480  0.86130  1.0000 0.1292802442
H   H40       1.0  0.39680  0.56520  0.13870  1.0000 0.1292802442
H   H41       1.0  0.30650  0.59270  0.68650  1.0000 0.1292802442
H   H42       1.0  0.69350  0.40730  0.31350  1.0000 0.1292802442
H   H43       1.0  0.25980  0.72740  0.68080  1.0000 0.1114316154
H   H44       1.0  0.74020  0.27260  0.31920  1.0000 0.1114316154
H   H45       1.0  0.54020  0.86130  0.73740  1.0000 0.1114316154
H   H46       1.0  0.45980  0.13870  0.26260  1.0000 0.1114316154
H   H47       1.0  0.58650  0.72750  0.74130  1.0000 0.1191037685
H   H48       1.0  0.41350  0.27250  0.25870  1.0000 0.1191037685
H   H49       1.0  0.24640  0.88340  0.74000  1.0000 0.1114316154
H   H50       1.0  0.75360  0.11660  0.26000  1.0000 0.1114316154
H   H51       1.0  0.21220  0.02280  0.73670  1.0000 0.1114316154
H   H52       1.0  0.78780  0.97720  0.26330  1.0000 0.1114316154
H   H53       1.0  0.44060  0.07460  0.65070  1.0000 0.1114316154
H   H54       1.0  0.55940  0.92540  0.34930  1.0000 0.1114316154
H   H55       1.0  0.48000  0.94010  0.65930  1.0000 0.1114316154
H   H56       1.0  0.52000  0.05990  0.34070  1.0000 0.1114316154
H   H57       1.0  0.23310  0.39820  0.51410  1.0000 0.1191037685
H   H58       1.0  0.76690  0.60180  0.48590  1.0000 0.1191037685
H   H59       1.0  0.13430  0.46910  0.46300  1.0000 0.1114316154
H   H60       1.0  0.86570  0.53090  0.53700  1.0000 0.1114316154
H   H61       1.0  0.96020  0.47790  0.58240  1.0000 0.1114316154
H   H62       1.0  0.03980  0.52210  0.41760  1.0000 0.1114316154
H   H63       1.0  0.06470  0.41750  0.63540  1.0000 0.1292802442
H   H64       1.0  0.93530  0.58250  0.36460  1.0000 0.1292802442
C   C1        1.0  0.85040  0.63320  0.67690  1.0000 -0.0222412512
C   C2        1.0  0.14960  0.36680  0.32310  1.0000 -0.0222412512
C   C3        1.0  0.77480  0.67830  0.68350  1.0000 -0.0990057371
C   C4        1.0  0.22520  0.32170  0.31650  1.0000 -0.0990057371
C   C5        1.0  0.79120  0.77090  0.68460  1.0000 -0.149987899
C   C6        1.0  0.20880  0.22910  0.31540  1.0000 -0.149987899
C   C7        1.0  0.88160  0.81950  0.67880  1.0000 0.07746289
C   C8        1.0  0.11840  0.18050  0.32120  1.0000 0.07746289
C   C9        1.0  0.95740  0.77350  0.67060  1.0000 -0.1577324357
C   C10       1.0  0.04260  0.22650  0.32940  1.0000 -0.1577324357
C   C11       1.0  0.94100  0.68160  0.67100  1.0000 -0.0990057371
C   C12       1.0  0.05900  0.31840  0.32900  1.0000 -0.0990057371
C   C13       1.0  0.89860  0.91860  0.67990  1.0000 0.07746289
C   C14       1.0  0.10140  0.08140  0.32010  1.0000 0.07746289
C   C15       1.0  0.82410  0.95840  0.66310  1.0000 -0.1577324357
C   C16       1.0  0.17590  0.04160  0.33690  1.0000 -0.1577324357
C   C17       1.0  0.84080  0.05040  0.66520  1.0000 -0.1073395248
C   C18       1.0  0.15920  0.94960  0.33480  1.0000 -0.1073395248
C   C19       1.0  0.93140  0.10660  0.68500  1.0000 -0.0222412512
C   C20       1.0  0.06860  0.89340  0.31500  1.0000 -0.0222412512
C   C21       1.0  0.00440  0.06740  0.70180  1.0000 -0.0990057371
C   C22       1.0  0.99560  0.93260  0.29820  1.0000 -0.0990057371
C   C23       1.0  0.98850  0.97480  0.69920  1.0000 -0.149987899
C   C24       1.0  0.01150  0.02520  0.30080  1.0000 -0.149987899
C   C25       1.0  0.83320  0.53380  0.67710  1.0000 0.5704884295
C   C26       1.0  0.16680  0.46620  0.32290  1.0000 0.5704884295
C   C27       1.0  0.94700  0.20730  0.68750  1.0000 0.6062285666
C   C28       1.0  0.05300  0.79270  0.31250  1.0000 0.6062285666
C   C29       1.0  0.86940  0.45150  0.86160  1.0000 -0.0314991355
C   C30       1.0  0.13060  0.54850  0.13840  1.0000 -0.0314991355
C   C31       1.0  0.83640  0.50270  0.90560  1.0000 -0.0990057371
C   C32       1.0  0.16360  0.49730  0.09440  1.0000 -0.0990057371
C   C33       1.0  0.88770  0.52150  0.95940  1.0000 -0.1577324357
C   C34       1.0  0.11230  0.47850  0.04060  1.0000 -0.1577324357
C   C35       1.0  0.97280  0.49000  0.97050  1.0000 0.07746289
C   C36       1.0  0.02720  0.51000  0.02950  1.0000 0.07746289
C   C37       1.0  0.00630  0.44270  0.92520  1.0000 -0.149987899
C   C38       1.0  0.99370  0.55730  0.07480  1.0000 -0.149987899
C   C39       1.0  0.95520  0.42260  0.87290  1.0000 -0.0929221689
C   C40       1.0  0.04480  0.57740  0.12710  1.0000 -0.0929221689
C   C41       1.0  0.81370  0.43120  0.80330  1.0000 0.5900121842
C   C42       1.0  0.18630  0.56880  0.19670  1.0000 0.5900121842
C   C43       1.0  0.56530  0.20700  0.60086  1.0000 -0.0351539787
C   C44       1.0  0.43470  0.79300  0.39914  1.0000 -0.0351539787
C   C45       1.0  0.48660  0.19210  0.55920  1.0000 -0.0842864301
C   C46       1.0  0.51340  0.80790  0.44080  1.0000 -0.0842864301
C   C47       1.0  0.46240  0.11180  0.51990  1.0000 -0.149987899
C   C48       1.0  0.53760  0.88820  0.48010  1.0000 -0.149987899
C   C49       1.0  0.51370  0.04380  0.52150  1.0000 0.07746289
C   C50       1.0  0.48630  0.95620  0.47850  1.0000 0.07746289
C   C51       1.0  0.59300  0.05970  0.56350  1.0000 -0.1577324357
C   C52       1.0  0.40700  0.94030  0.43650  1.0000 -0.1577324357
C   C53       1.0  0.61870  0.14010  0.60240  1.0000 -0.0990057371
C   C54       1.0  0.38130  0.85990  0.39760  1.0000 -0.0990057371
C   C55       1.0  0.59170  0.29140  0.64472  1.0000 0.5816699479
C   C56       1.0  0.40830  0.70860  0.35528  1.0000 0.5816699479
C   C57       1.0  0.45490  0.41540  0.85230  1.0000 -0.0222412512
C   C58       1.0  0.54510  0.58460  0.14770  1.0000 -0.0222412512
C   C59       1.0  0.37890  0.42650  0.88260  1.0000 -0.1073395248
C   C60       1.0  0.62110  0.57350  0.11740  1.0000 -0.1073395248
C   C61       1.0  0.39700  0.45970  0.94040  1.0000 -0.1577324357
C   C62       1.0  0.60300  0.54030  0.05960  1.0000 -0.1577324357
C   C63       1.0  0.49040  0.48130  0.96890  1.0000 0.07746289
C   C64       1.0  0.50960  0.51870  0.03110  1.0000 0.07746289
C   C65       1.0  0.56510  0.46770  0.93740  1.0000 -0.149987899
C   C66       1.0  0.43490  0.53230  0.06260  1.0000 -0.149987899
C   C67       1.0  0.54920  0.43890  0.88100  1.0000 -0.0990057371
C   C68       1.0  0.45080  0.56110  0.11900  1.0000 -0.0990057371
C   C69       1.0  0.43630  0.38130  0.78992  1.0000 0.5900121842
C   C70       1.0  0.56370  0.61870  0.21008  1.0000 0.5900121842
C   C71       1.0  0.45150  0.64580  0.71120  1.0000 -0.0222412512
C   C72       1.0  0.54850  0.35420  0.28880  1.0000 -0.0222412512
C   C73       1.0  0.35400  0.64660  0.69520  1.0000 -0.0990057371
C   C74       1.0  0.64600  0.35340  0.30480  1.0000 -0.0990057371
C   C75       1.0  0.32610  0.72760  0.69190  1.0000 -0.1432088922
C   C76       1.0  0.67390  0.27240  0.30810  1.0000 -0.1432088922
C   C77       1.0  0.39490  0.80850  0.70480  1.0000 0.0717762027
C   C78       1.0  0.60510  0.19150  0.29520  1.0000 0.0717762027
C   C79       1.0  0.49360  0.80710  0.72550  1.0000 -0.149987899
C   C80       1.0  0.50640  0.19290  0.27450  1.0000 -0.149987899
C   C81       1.0  0.52110  0.72750  0.72820  1.0000 -0.0990057371
C   C82       1.0  0.47890  0.27250  0.27180  1.0000 -0.1073395248
C   C83       1.0  0.36670  0.89600  0.69960  1.0000 0.0647534047
C   C84       1.0  0.63330  0.10400  0.30040  1.0000 0.0647534047
C   C85       1.0  0.28680  0.92250  0.72250  1.0000 -0.1577324357
C   C86       1.0  0.71320  0.07750  0.27750  1.0000 -0.149987899
C   C87       1.0  0.26540  0.00580  0.72000  1.0000 -0.1073395248
C   C88       1.0  0.73460  0.99420  0.28000  1.0000 -0.1073395248
C   C89       1.0  0.32290  0.06400  0.69270  1.0000 -0.0222412512
C   C90       1.0  0.67710  0.93600  0.30730  1.0000 -0.0222412512
C   C91       1.0  0.40160  0.03680  0.66970  1.0000 -0.0990057371
C   C92       1.0  0.59840  0.96320  0.33030  1.0000 -0.0990057371
C   C93       1.0  0.42430  0.95540  0.67400  1.0000 -0.149987899
C   C94       1.0  0.57570  0.04460  0.32600  1.0000 -0.149987899
C   C95       1.0  0.48270  0.55620  0.71070  1.0000 0.5816699479
C   C96       1.0  0.51730  0.44380  0.28930  1.0000 0.5816699479
C   C97       1.0  0.30550  0.15720  0.69140  1.0000 0.5900121842
C   C98       1.0  0.69450  0.84280  0.30860  1.0000 0.5900121842
C   C99       1.0  0.16110  0.40290  0.58040  1.0000 -0.0222412512
C   C100      1.0  0.83890  0.59710  0.41960  1.0000 -0.0222412512
C   C101      1.0  0.17880  0.41620  0.52900  1.0000 -0.0990057371
C   C102      1.0  0.82120  0.58380  0.47100  1.0000 -0.0990057371
C   C103      1.0  0.11760  0.45670  0.49730  1.0000 -0.149987899
C   C104      1.0  0.88240  0.54330  0.50270  1.0000 -0.149987899
C   C105      1.0  0.03300  0.47810  0.51650  1.0000 0.07746289
C   C106      1.0  0.96700  0.52190  0.48350  1.0000 0.07746289
C   C107      1.0  0.01620  0.46300  0.56800  1.0000 -0.1432088922
C   C108      1.0  0.98380  0.53700  0.43200  1.0000 -0.1432088922
C   C109      1.0  0.07890  0.42630  0.60000  1.0000 -0.0929221689
C   C110      1.0  0.92110  0.57370  0.40000  1.0000 -0.0929221689
C   C111      1.0  0.23100  0.36420  0.61530  1.0000 0.5900121842
C   C112      1.0  0.76900  0.63580  0.38470  1.0000 0.5900121842
O   O1        1.0  0.74560  0.49110  0.67715  1.0000 -0.5783137914
O   O2        1.0  0.25440  0.50890  0.32285  1.0000 -0.5783137914
O   O3        1.0  0.90430  0.49490  0.67618  1.0000 -0.5318416194
O   O4        1.0  0.09570  0.50510  0.32382  1.0000 -0.5318416194
O   O5        1.0  0.87270  0.23590  0.67051  1.0000 -0.5611737977
O   O6        1.0  0.12730  0.76410  0.32949  1.0000 -0.5611737977
O   O7        1.0  0.02900  0.25720  0.70530  1.0000 -0.5611737977
O   O8        1.0  0.97100  0.74280  0.29470  1.0000 -0.5611737977
O   O9        1.0  0.73630  0.46150  0.79668  1.0000 -0.5611737977
O   O10       1.0  0.26370  0.53850  0.20332  1.0000 -0.5611737977
O   O11       1.0  0.85070  0.38750  0.76512  1.0000 -0.5504621502
O   O12       1.0  0.14930  0.61250  0.23488  1.0000 -0.5504621502
O   O13       1.0  0.66640  0.30520  0.68164  1.0000 -0.5611737977
O   O14       1.0  0.33360  0.69480  0.31836  1.0000 -0.5611737977
O   O15       1.0  0.53720  0.35010  0.64568  1.0000 -0.5504621502
O   O16       1.0  0.46280  0.64990  0.35432  1.0000 -0.5504621502
O   O17       1.0  0.50900  0.37430  0.76341  1.0000 -0.5504621502
O   O18       1.0  0.49100  0.62570  0.23659  1.0000 -0.5504621502
O   O19       1.0  0.34910  0.36130  0.76556  1.0000 -0.5783137914
O   O20       1.0  0.65090  0.63870  0.23444  1.0000 -0.5783137914
O   O21       1.0  0.41900  0.48750  0.68906  1.0000 -0.5318416194
O   O22       1.0  0.58100  0.51250  0.31094  1.0000 -0.5318416194
O   O23       1.0  0.57040  0.55840  0.73120  1.0000 -0.5504621502
O   O24       1.0  0.42960  0.44160  0.26880  1.0000 -0.5504621502
O   O25       1.0  0.36810  0.20830  0.67134  1.0000 -0.5318416194
O   O26       1.0  0.63190  0.79170  0.32866  1.0000 -0.5318416194
O   O27       1.0  0.22990  0.17830  0.71227  1.0000 -0.5783137914
O   O28       1.0  0.77010  0.82170  0.28773  1.0000 -0.5881713665
O   O29       1.0  0.30770  0.34580  0.59540  1.0000 -0.5202710863
O   O30       1.0  0.69230  0.65420  0.40460  1.0000 -0.5202710863
O   O31       1.0  0.21470  0.35630  0.66429  1.0000 -0.5881713665
O   O32       1.0  0.78530  0.64370  0.33571  1.0000 -0.5881713665
