# DDEC6 charges by PACMAN v1.1 (https://github.com/mtap-research/PACMAN-charge/)
data_2010[Co][bcg]3[ASR]1
_chemical_formula_sum              "Co6 H32 C64 O32"
_cell_length_a       17.3273
_cell_length_b       17.3273
_cell_length_c       17.7341
_cell_angle_alpha    81.0533
_cell_angle_beta     98.9467
_cell_angle_gamma    146.97

_symmetry_space_group_name_H-M    "P 1"
_symmetry_Int_Tables_number       1

loop_
  _symmetry_equiv_pos_as_xyz
  'x, y, z'

loop_
  _atom_site_type_symbol
  _atom_site_label
  _atom_site_symmetry_multiplicity
  _atom_site_fract_x
  _atom_site_fract_y
  _atom_site_fract_z
  _atom_site_occupancy
  _atom_site_charge
Co  Co1       1.0  0.00000  0.50000  0.00000  1.0000 1.0976963164
Co  Co2       1.0  0.50000  0.00000  0.50000  1.0000 1.0976963164
Co  Co3       1.0  0.02977  0.32847  0.03440  1.0000 1.0070215186
Co  Co4       1.0  0.32847  0.02977  0.46560  1.0000 1.0045138718
Co  Co5       1.0  0.97023  0.67153  0.96560  1.0000 1.0070215186
Co  Co6       1.0  0.67153  0.97023  0.53440  1.0000 1.0070215186
H   H1        1.0  0.12920  0.62520  0.22960  1.0000 0.1393365012
H   H2        1.0  0.62520  0.12920  0.27040  1.0000 0.1393365012
H   H3        1.0  0.87080  0.37480  0.77040  1.0000 0.1393365012
H   H4        1.0  0.37480  0.87080  0.72960  1.0000 0.1393365012
H   H5        1.0  0.24710  0.73310  0.34450  1.0000 0.1393365012
H   H6        1.0  0.73310  0.24710  0.15550  1.0000 0.1393365012
H   H7        1.0  0.75290  0.26690  0.65550  1.0000 0.1393365012
H   H8        1.0  0.26690  0.75290  0.84450  1.0000 0.1393365012
H   H9        1.0  0.43460  0.68420  0.34320  1.0000 0.1393365012
H   H10       1.0  0.68420  0.43460  0.15680  1.0000 0.1393365012
H   H11       1.0  0.56540  0.31580  0.65680  1.0000 0.1393365012
H   H12       1.0  0.31580  0.56540  0.84320  1.0000 0.1393365012
H   H13       1.0  0.31350  0.57170  0.22990  1.0000 0.1393365012
H   H14       1.0  0.57170  0.31350  0.27010  1.0000 0.1393365012
H   H15       1.0  0.68650  0.42830  0.77010  1.0000 0.1393365012
H   H16       1.0  0.42830  0.68650  0.72990  1.0000 0.1393365012
H   H17       1.0  0.54910  0.95070  0.10870  1.0000 0.1313580711
H   H18       1.0  0.95070  0.54910  0.39130  1.0000 0.1313580711
H   H19       1.0  0.45090  0.04930  0.89130  1.0000 0.1313580711
H   H20       1.0  0.04930  0.45090  0.60870  1.0000 0.1313580711
H   H21       1.0  0.67990  0.19870  0.92150  1.0000 0.1313580711
H   H22       1.0  0.19870  0.67990  0.57850  1.0000 0.1313580711
H   H23       1.0  0.32010  0.80130  0.07850  1.0000 0.1313580711
H   H24       1.0  0.80130  0.32010  0.42150  1.0000 0.1313580711
H   H25       1.0  0.83880  0.94980  0.92670  1.0000 0.1313580711
H   H26       1.0  0.94980  0.83880  0.57330  1.0000 0.1313580711
H   H27       1.0  0.16120  0.05020  0.07330  1.0000 0.1313580711
H   H28       1.0  0.05020  0.16120  0.42670  1.0000 0.1313580711
H   H29       1.0  0.15820  0.18020  0.08550  1.0000 0.1313580711
H   H30       1.0  0.18020  0.15820  0.41450  1.0000 0.1313580711
H   H31       1.0  0.84180  0.81980  0.91450  1.0000 0.1313580711
H   H32       1.0  0.81980  0.84180  0.58550  1.0000 0.1313580711
C   C1        1.0  0.20790  0.58550  0.21830  1.0000 -0.0154847247
C   C2        1.0  0.58550  0.20790  0.28170  1.0000 -0.0154847247
C   C3        1.0  0.79210  0.41450  0.78170  1.0000 -0.0154847247
C   C4        1.0  0.41450  0.79210  0.71830  1.0000 -0.0154847247
C   C5        1.0  0.18960  0.63580  0.25260  1.0000 -0.0885027695
C   C6        1.0  0.63580  0.18960  0.24740  1.0000 -0.0885027695
C   C7        1.0  0.81040  0.36420  0.74740  1.0000 -0.0885027695
C   C8        1.0  0.36420  0.81040  0.75260  1.0000 -0.0885027695
C   C9        1.0  0.26160  0.70180  0.32110  1.0000 -0.0885027695
C   C10       1.0  0.70180  0.26160  0.17890  1.0000 -0.0885027695
C   C11       1.0  0.73840  0.29820  0.67890  1.0000 -0.0885027695
C   C12       1.0  0.29820  0.73840  0.82110  1.0000 -0.0885027695
C   C13       1.0  0.35410  0.72190  0.35510  1.0000 0.0063290919
C   C14       1.0  0.72190  0.35410  0.14490  1.0000 0.0063290919
C   C15       1.0  0.64590  0.27810  0.64490  1.0000 0.0063290919
C   C16       1.0  0.27810  0.64590  0.85510  1.0000 0.0063290919
C   C17       1.0  0.37290  0.67210  0.32050  1.0000 -0.0973783686
C   C18       1.0  0.67210  0.37290  0.17950  1.0000 -0.0973783686
C   C19       1.0  0.62710  0.32790  0.67950  1.0000 -0.0973783686
C   C20       1.0  0.32790  0.62710  0.82050  1.0000 -0.0973783686
C   C21       1.0  0.30030  0.60470  0.25270  1.0000 -0.0885027695
C   C22       1.0  0.60470  0.30030  0.24730  1.0000 -0.0885027695
C   C23       1.0  0.69970  0.39530  0.74730  1.0000 -0.0885027695
C   C24       1.0  0.39530  0.69970  0.75270  1.0000 -0.0885027695
C   C25       1.0  0.12900  0.51220  0.14490  1.0000 0.6015291334
C   C26       1.0  0.51220  0.12900  0.35510  1.0000 0.6015291334
C   C27       1.0  0.87100  0.48780  0.85510  1.0000 0.6015291334
C   C28       1.0  0.48780  0.87100  0.64490  1.0000 0.6015291334
C   C29       1.0  0.43760  0.80100  0.42720  1.0000 0.607419175
C   C30       1.0  0.80100  0.43760  0.07280  1.0000 0.607419175
C   C31       1.0  0.56240  0.19900  0.57280  1.0000 0.607419175
C   C32       1.0  0.19900  0.56240  0.92720  1.0000 0.607419175
C   C33       1.0  0.52910  0.97010  0.06490  1.0000 -0.0973783686
C   C34       1.0  0.97010  0.52910  0.43510  1.0000 -0.0973783686
C   C35       1.0  0.47090  0.02990  0.93510  1.0000 -0.0973783686
C   C36       1.0  0.02990  0.47090  0.56490  1.0000 -0.0973783686
C   C37       1.0  0.63810  0.08910  0.01780  1.0000 0.0026739855
C   C38       1.0  0.08910  0.63810  0.48220  1.0000 0.0026739855
C   C39       1.0  0.36190  0.91090  0.98220  1.0000 0.0026739855
C   C40       1.0  0.91090  0.36190  0.51780  1.0000 0.0026739855
C   C41       1.0  0.60750  0.11870  0.95280  1.0000 -0.0885027695
C   C42       1.0  0.11870  0.60750  0.54720  1.0000 -0.0824898311
C   C43       1.0  0.39250  0.88130  0.04720  1.0000 -0.0885027695
C   C44       1.0  0.88130  0.39250  0.45280  1.0000 -0.0885027695
C   C45       1.0  0.78470  0.18210  0.03580  1.0000 0.5611301383
C   C46       1.0  0.18210  0.78470  0.46420  1.0000 0.5611301383
C   C47       1.0  0.21530  0.81790  0.96420  1.0000 0.5611301383
C   C48       1.0  0.81790  0.21530  0.53580  1.0000 0.5611301383
C   C49       1.0  0.90350  0.97010  0.95610  1.0000 -0.0824898311
C   C50       1.0  0.97010  0.90350  0.54390  1.0000 -0.0824898311
C   C51       1.0  0.09650  0.02990  0.04390  1.0000 -0.0824898311
C   C52       1.0  0.02990  0.09650  0.45610  1.0000 -0.0824898311
C   C53       1.0  0.99910  0.07790  0.00740  1.0000 -0.0010284652
C   C54       1.0  0.07790  0.99910  0.49260  1.0000 -0.0010284652
C   C55       1.0  0.00090  0.92210  0.99260  1.0000 -0.0010284652
C   C56       1.0  0.92210  0.00090  0.50740  1.0000 0.0026739855
C   C57       1.0  0.09470  0.10810  0.05120  1.0000 -0.0824898311
C   C58       1.0  0.10810  0.09470  0.44880  1.0000 -0.0824898311
C   C59       1.0  0.90530  0.89190  0.94880  1.0000 -0.0824898311
C   C60       1.0  0.89190  0.90530  0.55120  1.0000 -0.0824898311
C   C61       1.0  0.99790  0.16190  0.01450  1.0000 0.5549658657
C   C62       1.0  0.16190  0.99790  0.48550  1.0000 0.5611301383
C   C63       1.0  0.00210  0.83810  0.98550  1.0000 0.5611301383
C   C64       1.0  0.83810  0.00210  0.51450  1.0000 0.5549658657
O   O1        1.0  0.13440  0.45080  0.12250  1.0000 -0.5330359369
O   O2        1.0  0.45080  0.13440  0.37750  1.0000 -0.5330359369
O   O3        1.0  0.86560  0.54920  0.87750  1.0000 -0.5330359369
O   O4        1.0  0.54920  0.86560  0.62250  1.0000 -0.5330359369
O   O5        1.0  0.06251  0.51549  0.11140  1.0000 -0.554041016
O   O6        1.0  0.51549  0.06251  0.38860  1.0000 -0.554041016
O   O7        1.0  0.93749  0.48451  0.88860  1.0000 -0.554041016
O   O8        1.0  0.48451  0.93749  0.61140  1.0000 -0.554041016
O   O9        1.0  0.53780  0.83780  0.44810  1.0000 -0.5155758439
O   O10       1.0  0.83780  0.53780  0.05190  1.0000 -0.5155758439
O   O11       1.0  0.46220  0.16220  0.55190  1.0000 -0.5155758439
O   O12       1.0  0.16220  0.46220  0.94810  1.0000 -0.5155758439
O   O13       1.0  0.40160  0.82600  0.46080  1.0000 -0.5744525074
O   O14       1.0  0.82600  0.40160  0.03920  1.0000 -0.5751094698
O   O15       1.0  0.59840  0.17400  0.53920  1.0000 -0.5751094698
O   O16       1.0  0.17400  0.59840  0.96080  1.0000 -0.5744525074
O   O17       1.0  0.81270  0.15090  0.08850  1.0000 -0.4926642208
O   O18       1.0  0.15090  0.81270  0.41150  1.0000 -0.4926642208
O   O19       1.0  0.18730  0.84910  0.91150  1.0000 -0.4926642208
O   O20       1.0  0.84910  0.18730  0.58850  1.0000 -0.4926642208
O   O21       1.0  0.88433  0.29447  0.99190  1.0000 -0.6011754452
O   O22       1.0  0.29447  0.88433  0.50810  1.0000 -0.6011754452
O   O23       1.0  0.11567  0.70553  0.00810  1.0000 -0.6011754452
O   O24       1.0  0.70553  0.11567  0.49190  1.0000 -0.6011754452
O   O25       1.0  0.92878  0.15182  0.96720  1.0000 -0.4926642208
O   O26       1.0  0.15182  0.92878  0.53280  1.0000 -0.4926642208
O   O27       1.0  0.07122  0.84818  0.03280  1.0000 -0.4926642208
O   O28       1.0  0.84818  0.07122  0.46720  1.0000 -0.4926642208
O   O29       1.0  0.07137  0.24623  0.06830  1.0000 -0.483381088
O   O30       1.0  0.24623  0.07137  0.43170  1.0000 -0.483381088
O   O31       1.0  0.92863  0.75377  0.93170  1.0000 -0.483381088
O   O32       1.0  0.75377  0.92863  0.56830  1.0000 -0.483381088
