# DDEC6 charges by PACMAN v1.1 (https://github.com/mtap-research/PACMAN-charge/)
data_2010[Co][pcu]3[ASR]3
_chemical_formula_sum              "Co24 H88 C160 O88"
_cell_length_a       10.8969
_cell_length_b       21.024
_cell_length_c       28.741
_cell_angle_alpha    90
_cell_angle_beta     90
_cell_angle_gamma    90

_symmetry_space_group_name_H-M    "P 1"
_symmetry_Int_Tables_number       1

loop_
  _symmetry_equiv_pos_as_xyz
  'x, y, z'

loop_
  _atom_site_type_symbol
  _atom_site_label
  _atom_site_symmetry_multiplicity
  _atom_site_fract_x
  _atom_site_fract_y
  _atom_site_fract_z
  _atom_site_occupancy
  _atom_site_charge
Co  Co1       1.0  0.15189  0.46503  0.70370  1.0000 1.071326319
Co  Co2       1.0  0.15189  0.53497  0.29630  1.0000 1.071326319
Co  Co3       1.0  0.84811  0.03497  0.20370  1.0000 1.071326319
Co  Co4       1.0  0.84811  0.96503  0.79630  1.0000 1.071326319
Co  Co5       1.0  0.71036  0.04333  0.70682  1.0000 1.071326319
Co  Co6       1.0  0.71036  0.95667  0.29318  1.0000 1.071326319
Co  Co7       1.0  0.28964  0.45667  0.20682  1.0000 1.071326319
Co  Co8       1.0  0.28964  0.54333  0.79318  1.0000 1.071326319
Co  Co9       1.0  0.43156  0.45650  0.88044  1.0000 1.071326319
Co  Co10      1.0  0.43156  0.54350  0.11956  1.0000 1.071326319
Co  Co11      1.0  0.56844  0.04350  0.38044  1.0000 1.071326319
Co  Co12      1.0  0.56844  0.95650  0.61956  1.0000 1.071326319
Co  Co13      1.0  0.02182  0.54329  0.61375  1.0000 1.071326319
Co  Co14      1.0  0.02182  0.45671  0.38625  1.0000 1.071326319
Co  Co15      1.0  0.97818  0.95671  0.11375  1.0000 1.071326319
Co  Co16      1.0  0.97818  0.04329  0.88625  1.0000 1.0761034406
Co  Co17      1.0  0.15107  0.41736  0.83799  1.0000 0.969801358
Co  Co18      1.0  0.15107  0.58264  0.16201  1.0000 0.969801358
Co  Co19      1.0  0.84893  0.08264  0.33799  1.0000 0.969801358
Co  Co20      1.0  0.84893  0.91736  0.66201  1.0000 0.969801358
Co  Co21      1.0  0.29572  0.60443  0.66386  1.0000 1.0143979407
Co  Co22      1.0  0.29572  0.39557  0.33614  1.0000 1.0143979407
Co  Co23      1.0  0.70428  0.89557  0.16386  1.0000 1.0143979407
Co  Co24      1.0  0.70428  0.10443  0.83614  1.0000 1.0143979407
H   H1        1.0  0.09090  0.57660  0.69220  1.0000 0.3657958127
H   H2        1.0  0.09090  0.42340  0.30780  1.0000 0.3657958127
H   H3        1.0  0.90910  0.92340  0.19220  1.0000 0.3657958127
H   H4        1.0  0.90910  0.07660  0.80780  1.0000 0.3657958127
H   H5        1.0  0.65080  0.92560  0.69890  1.0000 0.3792732275
H   H6        1.0  0.65080  0.07440  0.30110  1.0000 0.3792732275
H   H7        1.0  0.34920  0.57440  0.19890  1.0000 0.3792732275
H   H8        1.0  0.34920  0.42560  0.80110  1.0000 0.3792732275
H   H9        1.0  0.40430  0.36570  0.60630  1.0000 0.1201541101
H   H10       1.0  0.40430  0.63430  0.39370  1.0000 0.1201541101
H   H11       1.0  0.59570  0.13430  0.10630  1.0000 0.1201541101
H   H12       1.0  0.59570  0.86570  0.89370  1.0000 0.1201541101
H   H13       1.0  0.52040  0.32950  0.54340  1.0000 0.1125420013
H   H14       1.0  0.52040  0.67050  0.45660  1.0000 0.1125420013
H   H15       1.0  0.47960  0.17050  0.04340  1.0000 0.1125420013
H   H16       1.0  0.47960  0.82950  0.95660  1.0000 0.1125420013
H   H17       1.0  0.44590  0.34100  0.46830  1.0000 0.1201541101
H   H18       1.0  0.44590  0.65900  0.53170  1.0000 0.1201541101
H   H19       1.0  0.55410  0.15900  0.96830  1.0000 0.1201541101
H   H20       1.0  0.55410  0.84100  0.03170  1.0000 0.1201541101
H   H21       1.0  0.15480  0.43320  0.51700  1.0000 0.1294623748
H   H22       1.0  0.15480  0.56680  0.48300  1.0000 0.1294623748
H   H23       1.0  0.84520  0.06680  0.01700  1.0000 0.1294623748
H   H24       1.0  0.84520  0.93320  0.98300  1.0000 0.1294623748
H   H25       1.0  0.08370  0.32270  0.67220  1.0000 0.1294623748
H   H26       1.0  0.08370  0.67730  0.32780  1.0000 0.1294623748
H   H27       1.0  0.91630  0.17730  0.17220  1.0000 0.1294623748
H   H28       1.0  0.91630  0.82270  0.82780  1.0000 0.1294623748
H   H29       1.0  0.96180  0.25300  0.63300  1.0000 0.1125420013
H   H30       1.0  0.96180  0.74700  0.36700  1.0000 0.1125420013
H   H31       1.0  0.03820  0.24700  0.13300  1.0000 0.1125420013
H   H32       1.0  0.03820  0.75300  0.86700  1.0000 0.1125420013
H   H33       1.0  0.82210  0.18720  0.67150  1.0000 0.1201541101
H   H34       1.0  0.82210  0.81280  0.32850  1.0000 0.1201541101
H   H35       1.0  0.17790  0.31280  0.17150  1.0000 0.1201541101
H   H36       1.0  0.17790  0.68720  0.82850  1.0000 0.1201541101
H   H37       1.0  0.94690  0.25750  0.79330  1.0000 0.1294623748
H   H38       1.0  0.94690  0.74250  0.20670  1.0000 0.1294623748
H   H39       1.0  0.05310  0.24250  0.29330  1.0000 0.1294623748
H   H40       1.0  0.05310  0.75750  0.70670  1.0000 0.1294623748
H   H41       1.0  0.81720  0.36540  0.73280  1.0000 0.1125420013
H   H42       1.0  0.81720  0.63460  0.26720  1.0000 0.1125420013
H   H43       1.0  0.18280  0.13460  0.23280  1.0000 0.1125420013
H   H44       1.0  0.18280  0.86540  0.76720  1.0000 0.1125420013
H   H45       1.0  0.63050  0.32990  0.75820  1.0000 0.1125420013
H   H46       1.0  0.63050  0.67010  0.24180  1.0000 0.1125420013
H   H47       1.0  0.36950  0.17010  0.25820  1.0000 0.1125420013
H   H48       1.0  0.36950  0.82990  0.74180  1.0000 0.1125420013
H   H49       1.0  0.45430  0.38910  0.74540  1.0000 0.1294623748
H   H50       1.0  0.45430  0.61090  0.25460  1.0000 0.1294623748
H   H51       1.0  0.54570  0.11090  0.24540  1.0000 0.1294623748
H   H52       1.0  0.54570  0.88910  0.75460  1.0000 0.1294623748
H   H53       1.0  0.65310  0.51600  0.67470  1.0000 0.1294623748
H   H54       1.0  0.65310  0.48400  0.32530  1.0000 0.1294623748
H   H55       1.0  0.34690  0.98400  0.17470  1.0000 0.1294623748
H   H56       1.0  0.34690  0.01600  0.82530  1.0000 0.1294623748
H   H57       1.0  0.97490  0.61450  0.74030  1.0000 0.1125420013
H   H58       1.0  0.97490  0.38550  0.25970  1.0000 0.1125420013
H   H59       1.0  0.02510  0.88550  0.24030  1.0000 0.1125420013
H   H60       1.0  0.02510  0.11450  0.75970  1.0000 0.1125420013
H   H61       1.0  0.79900  0.67110  0.72640  1.0000 0.1125420013
H   H62       1.0  0.79900  0.32890  0.27360  1.0000 0.1125420013
H   H63       1.0  0.20100  0.82890  0.22640  1.0000 0.1125420013
H   H64       1.0  0.20100  0.17110  0.77360  1.0000 0.1125420013
H   H65       1.0  0.61400  0.63690  0.75450  1.0000 0.1201541101
H   H66       1.0  0.61400  0.36310  0.24550  1.0000 0.1201541101
H   H67       1.0  0.38600  0.86310  0.25450  1.0000 0.1201541101
H   H68       1.0  0.38600  0.13690  0.74550  1.0000 0.1201541101
H   H69       1.0  0.78670  0.49660  0.82370  1.0000 0.1294623748
H   H70       1.0  0.78670  0.50340  0.17630  1.0000 0.1294623748
H   H71       1.0  0.21330  0.00340  0.32370  1.0000 0.1294623748
H   H72       1.0  0.21330  0.99660  0.67630  1.0000 0.1294623748
H   H73       1.0  0.95140  0.12960  0.60390  1.0000 0.1201541101
H   H74       1.0  0.95140  0.87040  0.39610  1.0000 0.1201541101
H   H75       1.0  0.04860  0.37040  0.10390  1.0000 0.1201541101
H   H76       1.0  0.04860  0.62960  0.89610  1.0000 0.1201541101
H   H77       1.0  0.07430  0.15470  0.54350  1.0000 0.1201541101
H   H78       1.0  0.07430  0.84530  0.45650  1.0000 0.1201541101
H   H79       1.0  0.92570  0.34530  0.04350  1.0000 0.1201541101
H   H80       1.0  0.92570  0.65470  0.95650  1.0000 0.1201541101
H   H81       1.0  0.00030  0.15100  0.46740  1.0000 0.1201541101
H   H82       1.0  0.00030  0.84900  0.53260  1.0000 0.1201541101
H   H83       1.0  0.99970  0.34900  0.96740  1.0000 0.1201541101
H   H84       1.0  0.99970  0.65100  0.03260  1.0000 0.1201541101
H   H85       1.0  0.69560  0.06700  0.51660  1.0000 0.1351243175
H   H86       1.0  0.69560  0.93300  0.48340  1.0000 0.1351243175
H   H87       1.0  0.30440  0.43300  0.01660  1.0000 0.1351243175
H   H88       1.0  0.30440  0.56700  0.98340  1.0000 0.1351243175
C   C1        1.0  0.19110  0.42840  0.60650  1.0000 0.5994726038
C   C2        1.0  0.19110  0.57160  0.39350  1.0000 0.5994726038
C   C3        1.0  0.80890  0.07160  0.10650  1.0000 0.5994726038
C   C4        1.0  0.80890  0.92840  0.89350  1.0000 0.5994726038
C   C5        1.0  0.26350  0.40170  0.56780  1.0000 -0.0516620994
C   C6        1.0  0.26350  0.59830  0.43220  1.0000 -0.0516620994
C   C7        1.0  0.73650  0.09830  0.06780  1.0000 -0.0516620994
C   C8        1.0  0.73650  0.90170  0.93220  1.0000 -0.0516620994
C   C9        1.0  0.37600  0.37120  0.57610  1.0000 -0.090154886
C   C10       1.0  0.37600  0.62880  0.42390  1.0000 -0.090154886
C   C11       1.0  0.62400  0.12880  0.07610  1.0000 -0.090154886
C   C12       1.0  0.62400  0.87120  0.92390  1.0000 -0.090154886
C   C13       1.0  0.44520  0.34920  0.53840  1.0000 -0.1095089295
C   C14       1.0  0.44520  0.65080  0.46160  1.0000 -0.1095089295
C   C15       1.0  0.55480  0.15080  0.03840  1.0000 -0.1095089295
C   C16       1.0  0.55480  0.84920  0.96160  1.0000 -0.1095089295
C   C17       1.0  0.40120  0.35710  0.49330  1.0000 -0.0796868381
C   C18       1.0  0.40120  0.64290  0.50670  1.0000 -0.0796868381
C   C19       1.0  0.59880  0.14290  0.99330  1.0000 -0.0796868381
C   C20       1.0  0.59880  0.85710  0.00670  1.0000 -0.0796868381
C   C21       1.0  0.29380  0.38780  0.48520  1.0000 -0.0391060849
C   C22       1.0  0.29380  0.61220  0.51480  1.0000 -0.0391060849
C   C23       1.0  0.70620  0.11220  0.98520  1.0000 -0.0391060849
C   C24       1.0  0.70620  0.88780  0.01480  1.0000 -0.0391060849
C   C25       1.0  0.22690  0.41080  0.52270  1.0000 -0.090154886
C   C26       1.0  0.22690  0.58920  0.47730  1.0000 -0.090154886
C   C27       1.0  0.77310  0.08920  0.02270  1.0000 -0.090154886
C   C28       1.0  0.77310  0.91080  0.97730  1.0000 -0.090154886
C   C29       1.0  0.24700  0.39790  0.43710  1.0000 0.5994726038
C   C30       1.0  0.24700  0.60210  0.56290  1.0000 0.5994726038
C   C31       1.0  0.75300  0.10210  0.93710  1.0000 0.5994726038
C   C32       1.0  0.75300  0.89790  0.06290  1.0000 0.5994726038
C   C33       1.0  0.10650  0.34370  0.76400  1.0000 0.5680774889
C   C34       1.0  0.10650  0.65630  0.23600  1.0000 0.5680774889
C   C35       1.0  0.89350  0.15630  0.26400  1.0000 0.5680774889
C   C36       1.0  0.89350  0.84370  0.73600  1.0000 0.5680774889
C   C37       1.0  0.02690  0.29660  0.73740  1.0000 -0.0123802737
C   C38       1.0  0.02690  0.70340  0.26260  1.0000 -0.0123802737
C   C39       1.0  0.97310  0.20340  0.23740  1.0000 -0.0123802737
C   C40       1.0  0.97310  0.79660  0.76260  1.0000 -0.0123802737
C   C41       1.0  0.03120  0.29570  0.68830  1.0000 -0.090154886
C   C42       1.0  0.03120  0.70430  0.31170  1.0000 -0.090154886
C   C43       1.0  0.96880  0.20430  0.18830  1.0000 -0.090154886
C   C44       1.0  0.96880  0.79570  0.81170  1.0000 -0.090154886
C   C45       1.0  0.95710  0.25470  0.66530  1.0000 -0.0995840945
C   C46       1.0  0.95710  0.74530  0.33470  1.0000 -0.0995840945
C   C47       1.0  0.04290  0.24530  0.16530  1.0000 -0.0995840945
C   C48       1.0  0.04290  0.75470  0.83470  1.0000 -0.0995840945
C   C49       1.0  0.87300  0.21430  0.68820  1.0000 -0.0995840945
C   C50       1.0  0.87300  0.78570  0.31180  1.0000 -0.0995840945
C   C51       1.0  0.12700  0.28570  0.18820  1.0000 -0.0995840945
C   C52       1.0  0.12700  0.71430  0.81180  1.0000 -0.0995840945
C   C53       1.0  0.86860  0.21640  0.73660  1.0000 -0.0312225028
C   C54       1.0  0.86860  0.78360  0.26340  1.0000 -0.0312225028
C   C55       1.0  0.13140  0.28360  0.23660  1.0000 -0.0312225028
C   C56       1.0  0.13140  0.71640  0.76340  1.0000 -0.0312225028
C   C57       1.0  0.94790  0.25720  0.76090  1.0000 -0.1301065021
C   C58       1.0  0.94790  0.74280  0.23910  1.0000 -0.1301065021
C   C59       1.0  0.05210  0.24280  0.26090  1.0000 -0.1301065021
C   C60       1.0  0.05210  0.75720  0.73910  1.0000 -0.1301065021
C   C61       1.0  0.78800  0.17250  0.76350  1.0000 0.5680774889
C   C62       1.0  0.78800  0.82750  0.23650  1.0000 0.5680774889
C   C63       1.0  0.21200  0.32750  0.26350  1.0000 0.5680774889
C   C64       1.0  0.21200  0.67250  0.73650  1.0000 0.5680774889
C   C65       1.0  0.87560  0.46680  0.68280  1.0000 0.5994726038
C   C66       1.0  0.87560  0.53320  0.31720  1.0000 0.5994726038
C   C67       1.0  0.12440  0.03320  0.18280  1.0000 0.5994726038
C   C68       1.0  0.12440  0.96680  0.81720  1.0000 0.5994726038
C   C69       1.0  0.75430  0.44440  0.70000  1.0000 -0.0312225028
C   C70       1.0  0.75430  0.55560  0.30000  1.0000 -0.0312225028
C   C71       1.0  0.24570  0.05560  0.20000  1.0000 -0.0312225028
C   C72       1.0  0.24570  0.94440  0.80000  1.0000 -0.0312225028
C   C73       1.0  0.74660  0.38850  0.72610  1.0000 -0.090154886
C   C74       1.0  0.74660  0.61150  0.27390  1.0000 -0.090154886
C   C75       1.0  0.25340  0.11150  0.22610  1.0000 -0.090154886
C   C76       1.0  0.25340  0.88850  0.77390  1.0000 -0.090154886
C   C77       1.0  0.63550  0.36800  0.74190  1.0000 -0.090154886
C   C78       1.0  0.63550  0.63200  0.25810  1.0000 -0.090154886
C   C79       1.0  0.36450  0.13200  0.24190  1.0000 -0.090154886
C   C80       1.0  0.36450  0.86800  0.75810  1.0000 -0.090154886
C   C81       1.0  0.52940  0.40330  0.73400  1.0000 -0.0995840945
C   C82       1.0  0.52940  0.59670  0.26600  1.0000 -0.0995840945
C   C83       1.0  0.47060  0.09670  0.23400  1.0000 -0.0995840945
C   C84       1.0  0.47060  0.90330  0.76600  1.0000 -0.0995840945
C   C85       1.0  0.53580  0.45810  0.70970  1.0000 -0.0312225028
C   C86       1.0  0.53580  0.54190  0.29030  1.0000 -0.0312225028
C   C87       1.0  0.46420  0.04190  0.20970  1.0000 -0.0312225028
C   C88       1.0  0.46420  0.95810  0.79030  1.0000 -0.0312225028
C   C89       1.0  0.64920  0.47870  0.69199  1.0000 -0.1095089295
C   C90       1.0  0.64920  0.52130  0.30801  1.0000 -0.1095089295
C   C91       1.0  0.35080  0.02130  0.19199  1.0000 -0.1095089295
C   C92       1.0  0.35080  0.97870  0.80801  1.0000 -0.1095089295
C   C93       1.0  0.42480  0.49880  0.70350  1.0000 0.6054645992
C   C94       1.0  0.42480  0.50120  0.29650  1.0000 0.6054645992
C   C95       1.0  0.57520  0.00120  0.20350  1.0000 0.6054645992
C   C96       1.0  0.57520  0.99880  0.79650  1.0000 0.6054645992
C   C97       1.0  0.01210  0.51300  0.79320  1.0000 0.5994726038
C   C98       1.0  0.01210  0.48700  0.20680  1.0000 0.5994726038
C   C99       1.0  0.98790  0.98700  0.29320  1.0000 0.5994726038
C   C100      1.0  0.98790  0.01300  0.70680  1.0000 0.5994726038
C   C101      1.0  0.89980  0.55030  0.78360  1.0000 -0.0312225028
C   C102      1.0  0.89980  0.44970  0.21640  1.0000 -0.0391060849
C   C103      1.0  0.10020  0.94970  0.28360  1.0000 -0.0391060849
C   C104      1.0  0.10020  0.05030  0.71640  1.0000 -0.0391060849
C   C105      1.0  0.90160  0.60190  0.75410  1.0000 -0.1095089295
C   C106      1.0  0.90160  0.39810  0.24590  1.0000 -0.1095089295
C   C107      1.0  0.09840  0.89810  0.25410  1.0000 -0.1095089295
C   C108      1.0  0.09840  0.10190  0.74590  1.0000 -0.1095089295
C   C109      1.0  0.79570  0.63490  0.74500  1.0000 -0.090154886
C   C110      1.0  0.79570  0.36510  0.25500  1.0000 -0.090154886
C   C111      1.0  0.20430  0.86510  0.24500  1.0000 -0.090154886
C   C112      1.0  0.20430  0.13490  0.75500  1.0000 -0.090154886
C   C113      1.0  0.68590  0.61570  0.76260  1.0000 -0.0995840945
C   C114      1.0  0.68590  0.38430  0.23740  1.0000 -0.0995840945
C   C115      1.0  0.31410  0.88430  0.26260  1.0000 -0.0995840945
C   C116      1.0  0.31410  0.11570  0.73740  1.0000 -0.0995840945
C   C117      1.0  0.68210  0.56370  0.79310  1.0000 -0.0312225028
C   C118      1.0  0.68210  0.43630  0.20690  1.0000 -0.0312225028
C   C119      1.0  0.31790  0.93630  0.29310  1.0000 -0.0312225028
C   C120      1.0  0.31790  0.06370  0.70690  1.0000 -0.0312225028
C   C121      1.0  0.78880  0.53120  0.80350  1.0000 -0.1095089295
C   C122      1.0  0.78880  0.46880  0.19650  1.0000 -0.1095089295
C   C123      1.0  0.21120  0.96880  0.30350  1.0000 -0.1095089295
C   C124      1.0  0.21120  0.03120  0.69650  1.0000 -0.1095089295
C   C125      1.0  0.56200  0.54180  0.81270  1.0000 0.5933369762
C   C126      1.0  0.56200  0.45820  0.18730  1.0000 0.5933369762
C   C127      1.0  0.43800  0.95820  0.31270  1.0000 0.5933369762
C   C128      1.0  0.43800  0.04180  0.68730  1.0000 0.5933369762
C   C129      1.0  0.73850  0.06850  0.60620  1.0000 0.5994726038
C   C130      1.0  0.73850  0.93150  0.39380  1.0000 0.5994726038
C   C131      1.0  0.26150  0.43150  0.10620  1.0000 0.5994726038
C   C132      1.0  0.26150  0.56850  0.89380  1.0000 0.5994726038
C   C133      1.0  0.81600  0.09230  0.56640  1.0000 -0.0312225028
C   C134      1.0  0.81600  0.90770  0.43360  1.0000 -0.0312225028
C   C135      1.0  0.18400  0.40770  0.06640  1.0000 -0.0312225028
C   C136      1.0  0.18400  0.59230  0.93360  1.0000 -0.0312225028
C   C137      1.0  0.92520  0.12160  0.57360  1.0000 -0.0995840945
C   C138      1.0  0.92520  0.87840  0.42640  1.0000 -0.0995840945
C   C139      1.0  0.07480  0.37840  0.07360  1.0000 -0.0995840945
C   C140      1.0  0.07480  0.62160  0.92640  1.0000 -0.0995840945
C   C141      1.0  0.99580  0.13920  0.53780  1.0000 -0.1095089295
C   C142      1.0  0.99580  0.86080  0.46220  1.0000 -0.1095089295
C   C143      1.0  0.00420  0.36080  0.03780  1.0000 -0.1095089295
C   C144      1.0  0.00420  0.63920  0.96220  1.0000 -0.1095089295
C   C145      1.0  0.95420  0.13480  0.49190  1.0000 -0.090154886
C   C146      1.0  0.95420  0.86520  0.50810  1.0000 -0.090154886
C   C147      1.0  0.04580  0.36520  0.99190  1.0000 -0.090154886
C   C148      1.0  0.04580  0.63480  0.00810  1.0000 -0.090154886
C   C149      1.0  0.84140  0.10550  0.48410  1.0000 -0.0224166856
C   C150      1.0  0.84140  0.89450  0.51590  1.0000 -0.0224166856
C   C151      1.0  0.15860  0.39450  0.98410  1.0000 -0.0224166856
C   C152      1.0  0.15860  0.60550  0.01590  1.0000 -0.0224166856
C   C153      1.0  0.77220  0.08540  0.52160  1.0000 -0.0995840945
C   C154      1.0  0.77220  0.91460  0.47840  1.0000 -0.0995840945
C   C155      1.0  0.22780  0.41460  0.02160  1.0000 -0.0995840945
C   C156      1.0  0.22780  0.58540  0.97840  1.0000 -0.0995840945
C   C157      1.0  0.79500  0.09510  0.43470  1.0000 0.5933369762
C   C158      1.0  0.79500  0.90490  0.56530  1.0000 0.5933369762
C   C159      1.0  0.20500  0.40490  0.93470  1.0000 0.5933369762
C   C160      1.0  0.20500  0.59510  0.06530  1.0000 0.5933369762
O   O1        1.0  0.13960  0.55140  0.67026  1.0000 -0.9429500186
O   O2        1.0  0.13960  0.44860  0.32974  1.0000 -0.9429500186
O   O3        1.0  0.86040  0.94860  0.17026  1.0000 -0.9429500186
O   O4        1.0  0.86040  0.05140  0.82974  1.0000 -0.9429500186
O   O5        1.0  0.68860  0.95330  0.67550  1.0000 -0.9313348019
O   O6        1.0  0.68860  0.04670  0.32450  1.0000 -0.9313348019
O   O7        1.0  0.31140  0.54670  0.17550  1.0000 -0.9313348019
O   O8        1.0  0.31140  0.45330  0.82450  1.0000 -0.9313348019
O   O9        1.0  0.09060  0.45490  0.59750  1.0000 -0.5792139255
O   O10       1.0  0.09060  0.54510  0.40250  1.0000 -0.5792139255
O   O11       1.0  0.90940  0.04510  0.09750  1.0000 -0.5792139255
O   O12       1.0  0.90940  0.95490  0.90250  1.0000 -0.5792139255
O   O13       1.0  0.23260  0.42290  0.64776  1.0000 -0.553688296
O   O14       1.0  0.23260  0.57710  0.35224  1.0000 -0.553688296
O   O15       1.0  0.76740  0.07710  0.14776  1.0000 -0.553688296
O   O16       1.0  0.76740  0.92290  0.85224  1.0000 -0.553688296
O   O17       1.0  0.14150  0.41480  0.43232  1.0000 -0.553688296
O   O18       1.0  0.14150  0.58520  0.56768  1.0000 -0.553688296
O   O19       1.0  0.85850  0.08520  0.93232  1.0000 -0.553688296
O   O20       1.0  0.85850  0.91480  0.06768  1.0000 -0.553688296
O   O21       1.0  0.31810  0.38660  0.40488  1.0000 -0.5187514358
O   O22       1.0  0.31810  0.61340  0.59512  1.0000 -0.5187514358
O   O23       1.0  0.68190  0.11340  0.90488  1.0000 -0.5187514358
O   O24       1.0  0.68190  0.88660  0.09512  1.0000 -0.5187514358
O   O25       1.0  0.16900  0.38260  0.74438  1.0000 -0.5300001535
O   O26       1.0  0.16900  0.61740  0.25562  1.0000 -0.5300001535
O   O27       1.0  0.83100  0.11740  0.24438  1.0000 -0.5300001535
O   O28       1.0  0.83100  0.88260  0.75562  1.0000 -0.5300001535
O   O29       1.0  0.10210  0.33860  0.80805  1.0000 -0.5300001535
O   O30       1.0  0.10210  0.66140  0.19195  1.0000 -0.5300001535
O   O31       1.0  0.89790  0.16140  0.30805  1.0000 -0.5300001535
O   O32       1.0  0.89790  0.83860  0.69195  1.0000 -0.5300001535
O   O33       1.0  0.78220  0.18030  0.80733  1.0000 -0.5625515514
O   O34       1.0  0.78220  0.81970  0.19267  1.0000 -0.5625515514
O   O35       1.0  0.21780  0.31970  0.30733  1.0000 -0.5625515514
O   O36       1.0  0.21780  0.68030  0.69267  1.0000 -0.5625515514
O   O37       1.0  0.72990  0.12970  0.74450  1.0000 -0.5417967969
O   O38       1.0  0.72990  0.87030  0.25550  1.0000 -0.5417967969
O   O39       1.0  0.27010  0.37030  0.24450  1.0000 -0.5417967969
O   O40       1.0  0.27010  0.62970  0.75550  1.0000 -0.5417967969
O   O41       1.0  0.87510  0.50730  0.64963  1.0000 -0.6024219775
O   O42       1.0  0.87510  0.49270  0.35037  1.0000 -0.6024219775
O   O43       1.0  0.12490  0.99270  0.14963  1.0000 -0.6024219775
O   O44       1.0  0.12490  0.00730  0.85037  1.0000 -0.6024219775
O   O45       1.0  0.96930  0.44380  0.70178  1.0000 -0.5625515514
O   O46       1.0  0.96930  0.55620  0.29822  1.0000 -0.5625515514
O   O47       1.0  0.03070  0.05620  0.20178  1.0000 -0.5625515514
O   O48       1.0  0.03070  0.94380  0.79822  1.0000 -0.5625515514
O   O49       1.0  0.33310  0.48880  0.72889  1.0000 -0.6104502761
O   O50       1.0  0.33310  0.51120  0.27111  1.0000 -0.6104502761
O   O51       1.0  0.66690  0.01120  0.22889  1.0000 -0.6104502761
O   O52       1.0  0.66690  0.98880  0.77111  1.0000 -0.6104502761
O   O53       1.0  0.42850  0.54090  0.67276  1.0000 -0.5187514358
O   O54       1.0  0.42850  0.45910  0.32724  1.0000 -0.5187514358
O   O55       1.0  0.57150  0.95910  0.17276  1.0000 -0.5187514358
O   O56       1.0  0.57150  0.04090  0.82724  1.0000 -0.5187514358
O   O57       1.0  0.10830  0.52320  0.76868  1.0000 -0.6410359376
O   O58       1.0  0.10830  0.47680  0.23132  1.0000 -0.6410359376
O   O59       1.0  0.89170  0.97680  0.26868  1.0000 -0.6410359376
O   O60       1.0  0.89170  0.02320  0.73132  1.0000 -0.6410359376
O   O61       1.0  0.01030  0.47290  0.82536  1.0000 -0.5030910754
O   O62       1.0  0.01030  0.52710  0.17464  1.0000 -0.5030910754
O   O63       1.0  0.98970  0.02710  0.32536  1.0000 -0.5030910754
O   O64       1.0  0.98970  0.97290  0.67464  1.0000 -0.5030910754
O   O65       1.0  0.46700  0.56840  0.79822  1.0000 -0.5417967969
O   O66       1.0  0.46700  0.43160  0.20178  1.0000 -0.5417967969
O   O67       1.0  0.53300  0.93160  0.29822  1.0000 -0.5417967969
O   O68       1.0  0.53300  0.06840  0.70178  1.0000 -0.5417967969
O   O69       1.0  0.56750  0.49600  0.84120  1.0000 -0.6024219775
O   O70       1.0  0.56750  0.50400  0.15880  1.0000 -0.6024219775
O   O71       1.0  0.43250  0.00400  0.34120  1.0000 -0.6024219775
O   O72       1.0  0.43250  0.99600  0.65880  1.0000 -0.6024219775
O   O73       1.0  0.78290  0.07480  0.64636  1.0000 -0.5666520977
O   O74       1.0  0.78290  0.92520  0.35364  1.0000 -0.5666520977
O   O75       1.0  0.21710  0.42520  0.14636  1.0000 -0.5666520977
O   O76       1.0  0.21710  0.57480  0.85364  1.0000 -0.5666520977
O   O77       1.0  0.63900  0.04190  0.59700  1.0000 -0.5625515514
O   O78       1.0  0.63900  0.95810  0.40300  1.0000 -0.5625515514
O   O79       1.0  0.36100  0.45810  0.09700  1.0000 -0.5625515514
O   O80       1.0  0.36100  0.54190  0.90300  1.0000 -0.5625515514
O   O81       1.0  0.87670  0.09500  0.40418  1.0000 -0.5300001535
O   O82       1.0  0.87670  0.90500  0.59582  1.0000 -0.5300001535
O   O83       1.0  0.12330  0.40500  0.90418  1.0000 -0.5300001535
O   O84       1.0  0.12330  0.59500  0.09582  1.0000 -0.5300001535
O   O85       1.0  0.68420  0.08830  0.42810  1.0000 -0.5792139255
O   O86       1.0  0.68420  0.91170  0.57190  1.0000 -0.5792139255
O   O87       1.0  0.31580  0.41170  0.92810  1.0000 -0.5792139255
O   O88       1.0  0.31580  0.58830  0.07190  1.0000 -0.5792139255
