# DDEC6 charges by PACMAN v1.1 (https://github.com/mtap-research/PACMAN-charge/)
data_2010[V][bpq]3[ASR]1
_chemical_formula_sum              "V12 H48 C96 O60"
_cell_length_a       14.4447
_cell_length_b       15.6609
_cell_length_c       20.4563
_cell_angle_alpha    90
_cell_angle_beta     90
_cell_angle_gamma    90

_symmetry_space_group_name_H-M    "P 1"
_symmetry_Int_Tables_number       1

loop_
  _symmetry_equiv_pos_as_xyz
  'x, y, z'

loop_
  _atom_site_type_symbol
  _atom_site_label
  _atom_site_symmetry_multiplicity
  _atom_site_fract_x
  _atom_site_fract_y
  _atom_site_fract_z
  _atom_site_occupancy
  _atom_site_charge
V   V1        1.0  0.23600  0.74200  0.27950  1.0000 1.8309048931
V   V2        1.0  0.73000  0.24600  0.39550  1.0000 1.7909908514
V   V3        1.0  0.23500  0.74400  0.43200  1.0000 1.5086222212
V   V4        1.0  0.76400  0.24200  0.72050  1.0000 1.8309048931
V   V5        1.0  0.27000  0.74600  0.60450  1.0000 1.7909908514
V   V6        1.0  0.76500  0.24400  0.56800  1.0000 1.5086222212
V   V7        1.0  0.26400  0.74200  0.77950  1.0000 1.8309048931
V   V8        1.0  0.77000  0.24600  0.89550  1.0000 1.7909908514
V   V9        1.0  0.26500  0.74400  0.93200  1.0000 1.5086222212
V   V10       1.0  0.73600  0.24200  0.22050  1.0000 1.8309048931
V   V11       1.0  0.23000  0.74600  0.10450  1.0000 1.7909908514
V   V12       1.0  0.73500  0.24400  0.06800  1.0000 1.5086222212
H   H1        1.0  0.43332  0.56632  0.60131  1.0000 0.0908662455
H   H2        1.0  0.55109  0.44909  0.61064  1.0000 0.0992452485
H   H3        1.0  0.44890  0.55092  0.38936  1.0000 0.0992452485
H   H4        1.0  0.56669  0.43367  0.39870  1.0000 0.0992452485
H   H5        1.0  0.04588  0.54624  0.44123  1.0000 0.0992452485
H   H6        1.0  0.92929  0.42892  0.42659  1.0000 0.0992452485
H   H7        1.0  0.07072  0.57109  0.23042  1.0000 0.0908662455
H   H8        1.0  0.95417  0.45380  0.21575  1.0000 0.0908662455
H   H9        1.0  0.44070  0.55902  0.27020  1.0000 0.0908662455
H   H10       1.0  0.55904  0.44142  0.27026  1.0000 0.0908662455
H   H11       1.0  0.44101  0.55852  0.05771  1.0000 0.0908662455
H   H12       1.0  0.55920  0.44108  0.05774  1.0000 0.0992452485
H   H13       1.0  0.56668  0.06632  0.39869  1.0000 0.0908662455
H   H14       1.0  0.44891  0.94909  0.38936  1.0000 0.0992452485
H   H15       1.0  0.55110  0.05092  0.61064  1.0000 0.0992452485
H   H16       1.0  0.43331  0.93367  0.60130  1.0000 0.0992452485
H   H17       1.0  0.95412  0.04624  0.55877  1.0000 0.0992452485
H   H18       1.0  0.07071  0.92892  0.57341  1.0000 0.0992452485
H   H19       1.0  0.92928  0.07109  0.76958  1.0000 0.0908662455
H   H20       1.0  0.04583  0.95380  0.78425  1.0000 0.0908662455
H   H21       1.0  0.55930  0.05902  0.72980  1.0000 0.0908662455
H   H22       1.0  0.44096  0.94142  0.72974  1.0000 0.0908662455
H   H23       1.0  0.55899  0.05852  0.94229  1.0000 0.0908662455
H   H24       1.0  0.44080  0.94108  0.94226  1.0000 0.0992452485
H   H25       1.0  0.06668  0.56632  0.10131  1.0000 0.0908662455
H   H26       1.0  0.94891  0.44909  0.11064  1.0000 0.0992452485
H   H27       1.0  0.05110  0.55092  0.88936  1.0000 0.0992452485
H   H28       1.0  0.93331  0.43367  0.89870  1.0000 0.0992452485
H   H29       1.0  0.45412  0.54624  0.94123  1.0000 0.0992452485
H   H30       1.0  0.57071  0.42892  0.92659  1.0000 0.0992452485
H   H31       1.0  0.42928  0.57109  0.73042  1.0000 0.0908662455
H   H32       1.0  0.54583  0.45380  0.71575  1.0000 0.0908662455
H   H33       1.0  0.05930  0.55902  0.77020  1.0000 0.0908662455
H   H34       1.0  0.94096  0.44142  0.77026  1.0000 0.0908662455
H   H35       1.0  0.05899  0.55852  0.55771  1.0000 0.0908662455
H   H36       1.0  0.94080  0.44108  0.55774  1.0000 0.0992452485
H   H37       1.0  0.93332  0.06632  0.89869  1.0000 0.0908662455
H   H38       1.0  0.05109  0.94909  0.88936  1.0000 0.0992452485
H   H39       1.0  0.94890  0.05092  0.11064  1.0000 0.0992452485
H   H40       1.0  0.06669  0.93367  0.10130  1.0000 0.0992452485
H   H41       1.0  0.54588  0.04624  0.05877  1.0000 0.0992452485
H   H42       1.0  0.42929  0.92892  0.07341  1.0000 0.0992452485
H   H43       1.0  0.57072  0.07109  0.26958  1.0000 0.0908662455
H   H44       1.0  0.45417  0.95380  0.28425  1.0000 0.0908662455
H   H45       1.0  0.94070  0.05902  0.22980  1.0000 0.0908662455
H   H46       1.0  0.05904  0.94142  0.22974  1.0000 0.0908662455
H   H47       1.0  0.94101  0.05852  0.44229  1.0000 0.0908662455
H   H48       1.0  0.05920  0.94108  0.44226  1.0000 0.0992452485
C   C1        1.0  0.43570  0.56400  0.49490  1.0000 -0.0301218989
C   C2        1.0  0.46360  0.53620  0.55530  1.0000 -0.0888576009
C   C3        1.0  0.52790  0.47220  0.56040  1.0000 -0.0798089799
C   C4        1.0  0.47210  0.52780  0.43960  1.0000 -0.0798089799
C   C5        1.0  0.53640  0.46380  0.44470  1.0000 -0.0888576009
C   C6        1.0  0.56430  0.43600  0.50510  1.0000 -0.0301218989
C   C7        1.0  0.36530  0.63400  0.48940  1.0000 0.571086585
C   C8        1.0  0.63470  0.36600  0.51060  1.0000 0.5948545854
C   C9        1.0  0.06360  0.56400  0.33600  1.0000 0.0062783314
C   C10       1.0  0.02490  0.52510  0.39000  1.0000 -0.0798089799
C   C11       1.0  0.96130  0.46110  0.38200  1.0000 -0.0972034526
C   C12       1.0  0.03870  0.53890  0.27500  1.0000 -0.0972034526
C   C13       1.0  0.97510  0.47490  0.26700  1.0000 -0.0798089799
C   C14       1.0  0.93640  0.43600  0.32000  1.0000 -0.0301218989
C   C15       1.0  0.13320  0.63410  0.34600  1.0000 0.288766935
C   C16       1.0  0.86680  0.36590  0.31100  1.0000 0.6289183194
C   C17       1.0  0.43540  0.56400  0.16400  1.0000 -0.0301218989
C   C18       1.0  0.46760  0.53220  0.22200  1.0000 -0.0798089799
C   C19       1.0  0.53220  0.46810  0.22200  1.0000 -0.0972034526
C   C20       1.0  0.46780  0.53190  0.10600  1.0000 -0.0888576009
C   C21       1.0  0.53240  0.46780  0.10600  1.0000 -0.0888576009
C   C22       1.0  0.56460  0.43600  0.16400  1.0000 -0.0112273739
C   C23       1.0  0.36460  0.63410  0.16400  1.0000 0.6289183194
C   C24       1.0  0.63540  0.36590  0.16400  1.0000 0.571086585
C   C25       1.0  0.56430  0.06400  0.50510  1.0000 -0.0301218989
C   C26       1.0  0.53640  0.03620  0.44470  1.0000 -0.0888576009
C   C27       1.0  0.47210  0.97220  0.43960  1.0000 -0.0798089799
C   C28       1.0  0.52790  0.02780  0.56040  1.0000 -0.0798089799
C   C29       1.0  0.46360  0.96380  0.55530  1.0000 -0.0888576009
C   C30       1.0  0.43570  0.93600  0.49490  1.0000 -0.0301218989
C   C31       1.0  0.63470  0.13400  0.51060  1.0000 0.571086585
C   C32       1.0  0.36530  0.86600  0.48940  1.0000 0.5948545854
C   C33       1.0  0.93640  0.06400  0.66400  1.0000 0.0062783314
C   C34       1.0  0.97510  0.02510  0.61000  1.0000 -0.0798089799
C   C35       1.0  0.03870  0.96110  0.61800  1.0000 -0.0972034526
C   C36       1.0  0.96130  0.03890  0.72500  1.0000 -0.0972034526
C   C37       1.0  0.02490  0.97490  0.73300  1.0000 -0.0798089799
C   C38       1.0  0.06360  0.93600  0.68000  1.0000 -0.0301218989
C   C39       1.0  0.86680  0.13410  0.65400  1.0000 0.288766935
C   C40       1.0  0.13320  0.86590  0.68900  1.0000 0.6289183194
C   C41       1.0  0.56460  0.06400  0.83600  1.0000 -0.0301218989
C   C42       1.0  0.53240  0.03220  0.77800  1.0000 -0.0798089799
C   C43       1.0  0.46780  0.96810  0.77800  1.0000 -0.0972034526
C   C44       1.0  0.53220  0.03190  0.89400  1.0000 -0.0888576009
C   C45       1.0  0.46760  0.96780  0.89400  1.0000 -0.0888576009
C   C46       1.0  0.43540  0.93600  0.83600  1.0000 -0.0112273739
C   C47       1.0  0.63540  0.13410  0.83600  1.0000 0.6289183194
C   C48       1.0  0.36460  0.86590  0.83600  1.0000 0.571086585
C   C49       1.0  0.06430  0.56400  0.99490  1.0000 -0.0301218989
C   C50       1.0  0.03640  0.53620  0.05530  1.0000 -0.0888576009
C   C51       1.0  0.97210  0.47220  0.06040  1.0000 -0.0798089799
C   C52       1.0  0.02790  0.52780  0.93960  1.0000 -0.0798089799
C   C53       1.0  0.96360  0.46380  0.94470  1.0000 -0.0888576009
C   C54       1.0  0.93570  0.43600  0.00510  1.0000 -0.0301218989
C   C55       1.0  0.13470  0.63400  0.98940  1.0000 0.571086585
C   C56       1.0  0.86530  0.36600  0.01060  1.0000 0.5948545854
C   C57       1.0  0.43640  0.56400  0.83600  1.0000 0.0062783314
C   C58       1.0  0.47510  0.52510  0.89000  1.0000 -0.0798089799
C   C59       1.0  0.53870  0.46110  0.88200  1.0000 -0.0972034526
C   C60       1.0  0.46130  0.53890  0.77500  1.0000 -0.0972034526
C   C61       1.0  0.52490  0.47490  0.76700  1.0000 -0.0798089799
C   C62       1.0  0.56360  0.43600  0.82000  1.0000 -0.0301218989
C   C63       1.0  0.36680  0.63410  0.84600  1.0000 0.288766935
C   C64       1.0  0.63320  0.36590  0.81100  1.0000 0.6289183194
C   C65       1.0  0.06460  0.56400  0.66400  1.0000 -0.0301218989
C   C66       1.0  0.03240  0.53220  0.72200  1.0000 -0.0888576009
C   C67       1.0  0.96780  0.46810  0.72200  1.0000 -0.0972034526
C   C68       1.0  0.03220  0.53190  0.60600  1.0000 -0.0888576009
C   C69       1.0  0.96760  0.46780  0.60600  1.0000 -0.0798089799
C   C70       1.0  0.93540  0.43600  0.66400  1.0000 -0.0112273739
C   C71       1.0  0.13540  0.63410  0.66400  1.0000 0.6289183194
C   C72       1.0  0.86460  0.36590  0.66400  1.0000 0.571086585
C   C73       1.0  0.93570  0.06400  0.00510  1.0000 -0.0301218989
C   C74       1.0  0.96360  0.03620  0.94470  1.0000 -0.0888576009
C   C75       1.0  0.02790  0.97220  0.93960  1.0000 -0.0798089799
C   C76       1.0  0.97210  0.02780  0.06040  1.0000 -0.0798089799
C   C77       1.0  0.03640  0.96380  0.05530  1.0000 -0.0888576009
C   C78       1.0  0.06430  0.93600  0.99490  1.0000 -0.0301218989
C   C79       1.0  0.86530  0.13400  0.01060  1.0000 0.571086585
C   C80       1.0  0.13470  0.86600  0.98940  1.0000 0.5956866066
C   C81       1.0  0.56360  0.06400  0.16400  1.0000 0.0062783314
C   C82       1.0  0.52490  0.02510  0.11000  1.0000 -0.0798089799
C   C83       1.0  0.46130  0.96110  0.11800  1.0000 -0.0972034526
C   C84       1.0  0.53870  0.03890  0.22500  1.0000 -0.0972034526
C   C85       1.0  0.47510  0.97490  0.23300  1.0000 -0.0798089799
C   C86       1.0  0.43640  0.93600  0.18000  1.0000 -0.0301218989
C   C87       1.0  0.63320  0.13410  0.15400  1.0000 0.288766935
C   C88       1.0  0.36680  0.86590  0.18900  1.0000 0.6289183194
C   C89       1.0  0.93540  0.06400  0.33600  1.0000 -0.0301218989
C   C90       1.0  0.96760  0.03220  0.27800  1.0000 -0.0798089799
C   C91       1.0  0.03220  0.96810  0.27800  1.0000 -0.0972034526
C   C92       1.0  0.96780  0.03190  0.39400  1.0000 -0.0888576009
C   C93       1.0  0.03240  0.96780  0.39400  1.0000 -0.0888576009
C   C94       1.0  0.06460  0.93600  0.33600  1.0000 -0.0112273739
C   C95       1.0  0.86460  0.13410  0.33600  1.0000 0.6289183194
C   C96       1.0  0.13540  0.86590  0.33600  1.0000 0.571086585
O   O1        1.0  0.31000  0.72900  0.35500  1.0000 -0.7240802725
O   O2        1.0  0.76422  0.25813  0.46104  1.0000 -0.3675311361
O   O3        1.0  0.20300  0.75814  0.19173  1.0000 -0.9073422183
O   O4        1.0  0.33880  0.66040  0.43200  1.0000 -0.3928462942
O   O5        1.0  0.66920  0.33170  0.45800  1.0000 -0.4820056562
O   O6        1.0  0.33080  0.66830  0.54200  1.0000 -0.5500993212
O   O7        1.0  0.66120  0.33960  0.56800  1.0000 -0.5198387434
O   O8        1.0  0.16990  0.67100  0.29500  1.0000 -0.3615574245
O   O9        1.0  0.84310  0.34210  0.25200  1.0000 -0.5872970948
O   O10       1.0  0.15690  0.65790  0.40400  1.0000 -0.5683769067
O   O11       1.0  0.83010  0.32900  0.36200  1.0000 -0.5872970948
O   O12       1.0  0.33410  0.66440  0.10900  1.0000 -0.5872970948
O   O13       1.0  0.66620  0.33540  0.10900  1.0000 -0.6458295067
O   O14       1.0  0.33380  0.66460  0.21900  1.0000 -0.5974701126
O   O15       1.0  0.66590  0.33560  0.22000  1.0000 -0.5034209718
O   O16       1.0  0.69000  0.22900  0.64500  1.0000 -0.7256990949
O   O17       1.0  0.23578  0.75813  0.53896  1.0000 -0.3675311361
O   O18       1.0  0.79700  0.25814  0.80827  1.0000 -0.9073422183
O   O19       1.0  0.66120  0.16040  0.56800  1.0000 -0.3928462942
O   O20       1.0  0.33080  0.83170  0.54200  1.0000 -0.4820056562
O   O21       1.0  0.66920  0.16830  0.45800  1.0000 -0.5500993212
O   O22       1.0  0.33880  0.83960  0.43200  1.0000 -0.5198387434
O   O23       1.0  0.83010  0.17100  0.70500  1.0000 -0.3615574245
O   O24       1.0  0.15690  0.84210  0.74800  1.0000 -0.5872970948
O   O25       1.0  0.84310  0.15790  0.59600  1.0000 -0.5683769067
O   O26       1.0  0.16990  0.82900  0.63800  1.0000 -0.5872970948
O   O27       1.0  0.66590  0.16440  0.89100  1.0000 -0.5872970948
O   O28       1.0  0.33380  0.83540  0.89100  1.0000 -0.6458295067
O   O29       1.0  0.66620  0.16460  0.78100  1.0000 -0.5974701126
O   O30       1.0  0.33410  0.83560  0.78000  1.0000 -0.5034209718
O   O31       1.0  0.19000  0.72900  0.85500  1.0000 -0.7256990949
O   O32       1.0  0.73578  0.25813  0.96104  1.0000 -0.3675311361
O   O33       1.0  0.29700  0.75814  0.69173  1.0000 -0.9073422183
O   O34       1.0  0.16120  0.66040  0.93200  1.0000 -0.3928462942
O   O35       1.0  0.83080  0.33170  0.95800  1.0000 -0.4820056562
O   O36       1.0  0.16920  0.66830  0.04200  1.0000 -0.5500993212
O   O37       1.0  0.83880  0.33960  0.06800  1.0000 -0.5198387434
O   O38       1.0  0.33010  0.67100  0.79500  1.0000 -0.3615574245
O   O39       1.0  0.65690  0.34210  0.75200  1.0000 -0.5872970948
O   O40       1.0  0.34310  0.65790  0.90400  1.0000 -0.5683769067
O   O41       1.0  0.66990  0.32900  0.86200  1.0000 -0.5872970948
O   O42       1.0  0.16590  0.66440  0.60900  1.0000 -0.5872970948
O   O43       1.0  0.83380  0.33540  0.60900  1.0000 -0.6458295067
O   O44       1.0  0.16620  0.66460  0.71900  1.0000 -0.5974701126
O   O45       1.0  0.83410  0.33560  0.72000  1.0000 -0.5034209718
O   O46       1.0  0.81000  0.22900  0.14500  1.0000 -0.7256990949
O   O47       1.0  0.26422  0.75813  0.03896  1.0000 -0.3675311361
O   O48       1.0  0.70300  0.25814  0.30827  1.0000 -0.9073422183
O   O49       1.0  0.83880  0.16040  0.06800  1.0000 -0.3928462942
O   O50       1.0  0.16920  0.83170  0.04200  1.0000 -0.4820056562
O   O51       1.0  0.83080  0.16830  0.95800  1.0000 -0.5500993212
O   O52       1.0  0.16120  0.83960  0.93200  1.0000 -0.5198387434
O   O53       1.0  0.66990  0.17100  0.20500  1.0000 -0.3615574245
O   O54       1.0  0.34310  0.84210  0.24800  1.0000 -0.5872970948
O   O55       1.0  0.65690  0.15790  0.09600  1.0000 -0.5683769067
O   O56       1.0  0.33010  0.82900  0.13800  1.0000 -0.5872970948
O   O57       1.0  0.83410  0.16440  0.39100  1.0000 -0.5872970948
O   O58       1.0  0.16620  0.83540  0.39100  1.0000 -0.6458295067
O   O59       1.0  0.83380  0.16460  0.28100  1.0000 -0.5974701126
O   O60       1.0  0.16590  0.83560  0.28000  1.0000 -0.5034209718
