# DDEC6 charges by PACMAN v1.1 (https://github.com/mtap-research/PACMAN-charge/)
data_2010[Cu][ssa]3[ASR]1
_chemical_formula_sum              "Cu12 H72 C114 O60"
_cell_length_a       18.5773
_cell_length_b       18.5773
_cell_length_c       22.6933
_cell_angle_alpha    90
_cell_angle_beta     90
_cell_angle_gamma    120

_symmetry_space_group_name_H-M    "P 1"
_symmetry_Int_Tables_number       1

loop_
  _symmetry_equiv_pos_as_xyz
  'x, y, z'

loop_
  _atom_site_type_symbol
  _atom_site_label
  _atom_site_symmetry_multiplicity
  _atom_site_fract_x
  _atom_site_fract_y
  _atom_site_fract_z
  _atom_site_occupancy
  _atom_site_charge
Cu  Cu1       1.0  0.95435  0.49802  0.45120  1.0000 0.8669336669
Cu  Cu2       1.0  0.04565  0.50198  0.95120  1.0000 0.8669336669
Cu  Cu3       1.0  0.50198  0.45633  0.45120  1.0000 0.8669336669
Cu  Cu4       1.0  0.54367  0.04565  0.45120  1.0000 0.8669336669
Cu  Cu5       1.0  0.45633  0.95435  0.95120  1.0000 0.8669336669
Cu  Cu6       1.0  0.49802  0.54367  0.95120  1.0000 0.8669336669
Cu  Cu7       1.0  0.45633  0.50198  0.54880  1.0000 0.8669336669
Cu  Cu8       1.0  0.04565  0.54367  0.54880  1.0000 0.8669336669
Cu  Cu9       1.0  0.49802  0.95435  0.54880  1.0000 0.8669336669
Cu  Cu10      1.0  0.50198  0.04565  0.04880  1.0000 0.8669336669
Cu  Cu11      1.0  0.95435  0.45633  0.04880  1.0000 0.8669336669
Cu  Cu12      1.0  0.54367  0.49802  0.04880  1.0000 0.8669336669
H   H1        1.0  0.30760  0.95040  0.36830  1.0000 0.1509700263
H   H2        1.0  0.69240  0.04960  0.86830  1.0000 0.1509700263
H   H3        1.0  0.04960  0.35720  0.36830  1.0000 0.1509700263
H   H4        1.0  0.64280  0.69240  0.36830  1.0000 0.1509700263
H   H5        1.0  0.35720  0.30760  0.86830  1.0000 0.1509700263
H   H6        1.0  0.95040  0.64280  0.86830  1.0000 0.1509700263
H   H7        1.0  0.35720  0.04960  0.63170  1.0000 0.1509700263
H   H8        1.0  0.69240  0.64280  0.63170  1.0000 0.1509700263
H   H9        1.0  0.95040  0.30760  0.63170  1.0000 0.1509700263
H   H10       1.0  0.04960  0.69240  0.13170  1.0000 0.1509700263
H   H11       1.0  0.30760  0.35720  0.13170  1.0000 0.1509700263
H   H12       1.0  0.64280  0.95040  0.13170  1.0000 0.1509700263
H   H13       1.0  0.24970  0.76950  0.49010  1.0000 0.1442828956
H   H14       1.0  0.75030  0.23050  0.99010  1.0000 0.1442828956
H   H15       1.0  0.23050  0.48020  0.49010  1.0000 0.1442828956
H   H16       1.0  0.51980  0.75030  0.49010  1.0000 0.1442828956
H   H17       1.0  0.48020  0.24970  0.99010  1.0000 0.1442828956
H   H18       1.0  0.76950  0.51980  0.99010  1.0000 0.1442828956
H   H19       1.0  0.48020  0.23050  0.50990  1.0000 0.1442828956
H   H20       1.0  0.75030  0.51980  0.50990  1.0000 0.1442828956
H   H21       1.0  0.76950  0.24970  0.50990  1.0000 0.1442828956
H   H22       1.0  0.23050  0.75030  0.00990  1.0000 0.1442828956
H   H23       1.0  0.24970  0.48020  0.00990  1.0000 0.1442828956
H   H24       1.0  0.51980  0.76950  0.00990  1.0000 0.1442828956
H   H25       1.0  0.07400  0.74910  0.37240  1.0000 0.1307457917
H   H26       1.0  0.92600  0.25090  0.87240  1.0000 0.1307457917
H   H27       1.0  0.25090  0.32490  0.37240  1.0000 0.1307457917
H   H28       1.0  0.67510  0.92600  0.37240  1.0000 0.1307457917
H   H29       1.0  0.32490  0.07400  0.87240  1.0000 0.1307457917
H   H30       1.0  0.74910  0.67510  0.87240  1.0000 0.1307457917
H   H31       1.0  0.32490  0.25090  0.62760  1.0000 0.1307457917
H   H32       1.0  0.92600  0.67510  0.62760  1.0000 0.1307457917
H   H33       1.0  0.74910  0.07400  0.62760  1.0000 0.1307457917
H   H34       1.0  0.25090  0.92600  0.12760  1.0000 0.1307457917
H   H35       1.0  0.07400  0.32490  0.12760  1.0000 0.1307457917
H   H36       1.0  0.67510  0.74910  0.12760  1.0000 0.1307457917
H   H37       1.0  0.04790  0.85660  0.33320  1.0000 0.0969676454
H   H38       1.0  0.95210  0.14340  0.83320  1.0000 0.0969676454
H   H39       1.0  0.14340  0.19130  0.33320  1.0000 0.0969676454
H   H40       1.0  0.80870  0.95210  0.33320  1.0000 0.0969676454
H   H41       1.0  0.19130  0.04790  0.83320  1.0000 0.0969676454
H   H42       1.0  0.85660  0.80870  0.83320  1.0000 0.0969676454
H   H43       1.0  0.19130  0.14340  0.66680  1.0000 0.0969676454
H   H44       1.0  0.95210  0.80870  0.66680  1.0000 0.0969676454
H   H45       1.0  0.85660  0.04790  0.66680  1.0000 0.0969676454
H   H46       1.0  0.14340  0.95210  0.16680  1.0000 0.0969676454
H   H47       1.0  0.04790  0.19130  0.16680  1.0000 0.0969676454
H   H48       1.0  0.80870  0.85660  0.16680  1.0000 0.0969676454
H   H49       1.0  0.06540  0.80010  0.28810  1.0000 0.0969676454
H   H50       1.0  0.93460  0.19990  0.78810  1.0000 0.0969676454
H   H51       1.0  0.19990  0.26530  0.28810  1.0000 0.0969676454
H   H52       1.0  0.73470  0.93460  0.28810  1.0000 0.0969676454
H   H53       1.0  0.26530  0.06540  0.78810  1.0000 0.0969676454
H   H54       1.0  0.80010  0.73470  0.78810  1.0000 0.0969676454
H   H55       1.0  0.26530  0.19990  0.71190  1.0000 0.0969676454
H   H56       1.0  0.93460  0.73470  0.71190  1.0000 0.0969676454
H   H57       1.0  0.80010  0.06540  0.71190  1.0000 0.0969676454
H   H58       1.0  0.19990  0.93460  0.21190  1.0000 0.0969676454
H   H59       1.0  0.06540  0.26530  0.21190  1.0000 0.0969676454
H   H60       1.0  0.73470  0.80010  0.21190  1.0000 0.0969676454
H   H61       1.0  0.10850  0.96980  0.26470  1.0000 0.1139084531
H   H62       1.0  0.89150  0.03020  0.76470  1.0000 0.1139084531
H   H63       1.0  0.03020  0.13870  0.26470  1.0000 0.1139084531
H   H64       1.0  0.86130  0.89150  0.26470  1.0000 0.1139084531
H   H65       1.0  0.13870  0.10850  0.76470  1.0000 0.1139084531
H   H66       1.0  0.96980  0.86130  0.76470  1.0000 0.1139084531
H   H67       1.0  0.13870  0.03020  0.73530  1.0000 0.1139084531
H   H68       1.0  0.89150  0.86130  0.73530  1.0000 0.1139084531
H   H69       1.0  0.96980  0.10850  0.73530  1.0000 0.1139084531
H   H70       1.0  0.03020  0.89150  0.23530  1.0000 0.1139084531
H   H71       1.0  0.10850  0.13870  0.23530  1.0000 0.1139084531
H   H72       1.0  0.86130  0.96980  0.23530  1.0000 0.1139084531
C   C1        1.0  0.37896  0.91361  0.45564  1.0000 0.5844287557
C   C2        1.0  0.62104  0.08639  0.95564  1.0000 0.5844287557
C   C3        1.0  0.08639  0.46535  0.45564  1.0000 0.5844287557
C   C4        1.0  0.53465  0.62104  0.45564  1.0000 0.5844287557
C   C5        1.0  0.46535  0.37896  0.95564  1.0000 0.5844287557
C   C6        1.0  0.91361  0.53465  0.95564  1.0000 0.5844287557
C   C7        1.0  0.46535  0.08639  0.54436  1.0000 0.5844287557
C   C8        1.0  0.62104  0.53465  0.54436  1.0000 0.5844287557
C   C9        1.0  0.91361  0.37896  0.54436  1.0000 0.5844287557
C   C10       1.0  0.08639  0.62104  0.04436  1.0000 0.5844287557
C   C11       1.0  0.37896  0.46535  0.04436  1.0000 0.5844287557
C   C12       1.0  0.53465  0.91361  0.04436  1.0000 0.5844287557
C   C13       1.0  0.09551  0.66327  0.45977  1.0000 0.586681712
C   C14       1.0  0.90449  0.33673  0.95977  1.0000 0.586681712
C   C15       1.0  0.33673  0.43224  0.45977  1.0000 0.586681712
C   C16       1.0  0.56776  0.90449  0.45977  1.0000 0.586681712
C   C17       1.0  0.43224  0.09551  0.95977  1.0000 0.586681712
C   C18       1.0  0.66327  0.56776  0.95977  1.0000 0.586681712
C   C19       1.0  0.43224  0.33673  0.54023  1.0000 0.586681712
C   C20       1.0  0.90449  0.56776  0.54023  1.0000 0.586681712
C   C21       1.0  0.66327  0.09551  0.54023  1.0000 0.586681712
C   C22       1.0  0.33673  0.90449  0.04023  1.0000 0.586681712
C   C23       1.0  0.09551  0.43224  0.04023  1.0000 0.586681712
C   C24       1.0  0.56776  0.66327  0.04023  1.0000 0.586681712
C   C25       1.0  0.26796  0.89929  0.38580  1.0000 -0.2228769925
C   C26       1.0  0.73204  0.10071  0.88580  1.0000 -0.2228769925
C   C27       1.0  0.10071  0.36867  0.38580  1.0000 -0.2228769925
C   C28       1.0  0.63133  0.73204  0.38580  1.0000 -0.2228769925
C   C29       1.0  0.36867  0.26796  0.88580  1.0000 -0.2228769925
C   C30       1.0  0.89929  0.63133  0.88580  1.0000 -0.2228769925
C   C31       1.0  0.36867  0.10071  0.61420  1.0000 -0.2228769925
C   C32       1.0  0.73204  0.63133  0.61420  1.0000 -0.2228769925
C   C33       1.0  0.89929  0.26796  0.61420  1.0000 -0.2228769925
C   C34       1.0  0.10071  0.73204  0.11420  1.0000 -0.2228769925
C   C35       1.0  0.26796  0.36867  0.11420  1.0000 -0.2228769925
C   C36       1.0  0.63133  0.89929  0.11420  1.0000 -0.2228769925
C   C37       1.0  0.29195  0.86686  0.43187  1.0000 -0.0005602204
C   C38       1.0  0.70805  0.13314  0.93187  1.0000 -0.0005602204
C   C39       1.0  0.13314  0.42509  0.43187  1.0000 -0.0005602204
C   C40       1.0  0.57491  0.70805  0.43187  1.0000 -0.0005602204
C   C41       1.0  0.42509  0.29195  0.93187  1.0000 -0.0005602204
C   C42       1.0  0.86686  0.57491  0.93187  1.0000 -0.0005602204
C   C43       1.0  0.42509  0.13314  0.56813  1.0000 -0.0005602204
C   C44       1.0  0.70805  0.57491  0.56813  1.0000 -0.0005602204
C   C45       1.0  0.86686  0.29195  0.56813  1.0000 -0.0005602204
C   C46       1.0  0.13314  0.70805  0.06813  1.0000 -0.0005602204
C   C47       1.0  0.29195  0.42509  0.06813  1.0000 -0.0005602204
C   C48       1.0  0.57491  0.86686  0.06813  1.0000 -0.0005602204
C   C49       1.0  0.23443  0.79083  0.45738  1.0000 -0.1388711475
C   C50       1.0  0.76557  0.20917  0.95738  1.0000 -0.1388711475
C   C51       1.0  0.20917  0.44360  0.45738  1.0000 -0.1388711475
C   C52       1.0  0.55640  0.76557  0.45738  1.0000 -0.1388711475
C   C53       1.0  0.44360  0.23443  0.95738  1.0000 -0.1388711475
C   C54       1.0  0.79083  0.55640  0.95738  1.0000 -0.1388711475
C   C55       1.0  0.44360  0.20917  0.54262  1.0000 -0.1388711475
C   C56       1.0  0.76557  0.55640  0.54262  1.0000 -0.1388711475
C   C57       1.0  0.79083  0.23443  0.54262  1.0000 -0.1388711475
C   C58       1.0  0.20917  0.76557  0.04262  1.0000 -0.1388711475
C   C59       1.0  0.23443  0.44360  0.04262  1.0000 -0.1388711475
C   C60       1.0  0.55640  0.79083  0.04262  1.0000 -0.1388711475
C   C61       1.0  0.15441  0.74696  0.43388  1.0000 0.0144308005
C   C62       1.0  0.84559  0.25304  0.93388  1.0000 0.0154246671
C   C63       1.0  0.25304  0.40745  0.43388  1.0000 0.0144308005
C   C64       1.0  0.59255  0.84559  0.43388  1.0000 0.0144308005
C   C65       1.0  0.40745  0.15441  0.93388  1.0000 0.0144308005
C   C66       1.0  0.74696  0.59255  0.93388  1.0000 0.0154246671
C   C67       1.0  0.40745  0.25304  0.56612  1.0000 0.0144308005
C   C68       1.0  0.84559  0.59255  0.56612  1.0000 0.0144308005
C   C69       1.0  0.74696  0.15441  0.56612  1.0000 0.0144308005
C   C70       1.0  0.25304  0.84559  0.06612  1.0000 0.0144308005
C   C71       1.0  0.15441  0.40745  0.06612  1.0000 0.0144308005
C   C72       1.0  0.59255  0.74696  0.06612  1.0000 0.0144308005
C   C73       1.0  0.12880  0.77933  0.38780  1.0000 -0.2656109872
C   C74       1.0  0.87120  0.22067  0.88780  1.0000 -0.2656109872
C   C75       1.0  0.22067  0.34947  0.38780  1.0000 -0.2656109872
C   C76       1.0  0.65053  0.87120  0.38780  1.0000 -0.2656109872
C   C77       1.0  0.34947  0.12880  0.88780  1.0000 -0.2656109872
C   C78       1.0  0.77933  0.65053  0.88780  1.0000 -0.2656109872
C   C79       1.0  0.34947  0.22067  0.61220  1.0000 -0.2656109872
C   C80       1.0  0.87120  0.65053  0.61220  1.0000 -0.2656109872
C   C81       1.0  0.77933  0.12880  0.61220  1.0000 -0.2656109872
C   C82       1.0  0.22067  0.87120  0.11220  1.0000 -0.2656109872
C   C83       1.0  0.12880  0.34947  0.11220  1.0000 -0.2656109872
C   C84       1.0  0.65053  0.77933  0.11220  1.0000 -0.2656109872
C   C85       1.0  0.18673  0.85818  0.36483  1.0000 0.2640172524
C   C86       1.0  0.81327  0.14182  0.86483  1.0000 0.2650366706
C   C87       1.0  0.14182  0.32855  0.36483  1.0000 0.2640172524
C   C88       1.0  0.67145  0.81327  0.36483  1.0000 0.2640172524
C   C89       1.0  0.32855  0.18673  0.86483  1.0000 0.2650366706
C   C90       1.0  0.85818  0.67145  0.86483  1.0000 0.2650366706
C   C91       1.0  0.32855  0.14182  0.63517  1.0000 0.2640172524
C   C92       1.0  0.81327  0.67145  0.63517  1.0000 0.2640172524
C   C93       1.0  0.85818  0.18673  0.63517  1.0000 0.2640172524
C   C94       1.0  0.14182  0.81327  0.13517  1.0000 0.2640172524
C   C95       1.0  0.18673  0.32855  0.13517  1.0000 0.2640172524
C   C96       1.0  0.67145  0.85818  0.13517  1.0000 0.2640172524
C   C97       1.0  0.08484  0.85766  0.30141  1.0000 -0.0164210956
C   C98       1.0  0.91516  0.14234  0.80141  1.0000 -0.0164210956
C   C99       1.0  0.14234  0.22718  0.30141  1.0000 -0.0164210956
C   C100      1.0  0.77282  0.91516  0.30141  1.0000 -0.0164210956
C   C101      1.0  0.22718  0.08484  0.80141  1.0000 -0.0164210956
C   C102      1.0  0.85766  0.77282  0.80141  1.0000 -0.0164210956
C   C103      1.0  0.22718  0.14234  0.69859  1.0000 -0.0164210956
C   C104      1.0  0.91516  0.77282  0.69859  1.0000 -0.0164210956
C   C105      1.0  0.85766  0.08484  0.69859  1.0000 -0.0164210956
C   C106      1.0  0.14234  0.91516  0.19859  1.0000 -0.0164210956
C   C107      1.0  0.08484  0.22718  0.19859  1.0000 -0.0164210956
C   C108      1.0  0.77282  0.85766  0.19859  1.0000 -0.0164210956
C   C109      1.0  0.08748  0.91252  0.25000  1.0000 -0.2954270261
C   C110      1.0  0.91252  0.08748  0.75000  1.0000 -0.2943261283
C   C111      1.0  0.08748  0.17496  0.25000  1.0000 -0.2954270261
C   C112      1.0  0.82504  0.91252  0.25000  1.0000 -0.2954270261
C   C113      1.0  0.17496  0.08748  0.75000  1.0000 -0.2954270261
C   C114      1.0  0.91252  0.82504  0.75000  1.0000 -0.2954270261
O   O1        1.0  0.03215  0.61579  0.42966  1.0000 -0.5287428814
O   O2        1.0  0.96785  0.38421  0.92966  1.0000 -0.5287428814
O   O3        1.0  0.38421  0.41636  0.42966  1.0000 -0.5287428814
O   O4        1.0  0.58364  0.96785  0.42966  1.0000 -0.5287428814
O   O5        1.0  0.41636  0.03215  0.92966  1.0000 -0.5287428814
O   O6        1.0  0.61579  0.58364  0.92966  1.0000 -0.5287428814
O   O7        1.0  0.41636  0.38421  0.57034  1.0000 -0.5287428814
O   O8        1.0  0.96785  0.58364  0.57034  1.0000 -0.5287428814
O   O9        1.0  0.61579  0.03215  0.57034  1.0000 -0.5287428814
O   O10       1.0  0.38421  0.96785  0.07034  1.0000 -0.5287428814
O   O11       1.0  0.03215  0.41636  0.07034  1.0000 -0.5287428814
O   O12       1.0  0.58364  0.61579  0.07034  1.0000 -0.5287428814
O   O13       1.0  0.11552  0.64748  0.50950  1.0000 -0.5121582695
O   O14       1.0  0.88448  0.35252  0.00950  1.0000 -0.5121582695
O   O15       1.0  0.35252  0.46804  0.50950  1.0000 -0.5121582695
O   O16       1.0  0.53196  0.88448  0.50950  1.0000 -0.5121582695
O   O17       1.0  0.46804  0.11552  0.00950  1.0000 -0.5121582695
O   O18       1.0  0.64748  0.53196  0.00950  1.0000 -0.5121582695
O   O19       1.0  0.46804  0.35252  0.49050  1.0000 -0.5121582695
O   O20       1.0  0.88448  0.53196  0.49050  1.0000 -0.5121582695
O   O21       1.0  0.64748  0.11552  0.49050  1.0000 -0.5121582695
O   O22       1.0  0.35252  0.88448  0.99050  1.0000 -0.5121582695
O   O23       1.0  0.11552  0.46804  0.99050  1.0000 -0.5121582695
O   O24       1.0  0.53196  0.64748  0.99050  1.0000 -0.5121582695
O   O25       1.0  0.43281  0.96838  0.42290  1.0000 -0.5163937164
O   O26       1.0  0.56719  0.03162  0.92290  1.0000 -0.5163937164
O   O27       1.0  0.03162  0.46443  0.42290  1.0000 -0.5163937164
O   O28       1.0  0.53557  0.56719  0.42290  1.0000 -0.5163937164
O   O29       1.0  0.46443  0.43281  0.92290  1.0000 -0.5163937164
O   O30       1.0  0.96838  0.53557  0.92290  1.0000 -0.5163937164
O   O31       1.0  0.46443  0.03162  0.57710  1.0000 -0.5163937164
O   O32       1.0  0.56719  0.53557  0.57710  1.0000 -0.5163937164
O   O33       1.0  0.96838  0.43281  0.57710  1.0000 -0.5163937164
O   O34       1.0  0.03162  0.56719  0.07710  1.0000 -0.5163937164
O   O35       1.0  0.43281  0.46443  0.07710  1.0000 -0.5163937164
O   O36       1.0  0.53557  0.96838  0.07710  1.0000 -0.5163937164
O   O37       1.0  0.39073  0.89585  0.50657  1.0000 -0.5163937164
O   O38       1.0  0.60927  0.10415  0.00657  1.0000 -0.5163937164
O   O39       1.0  0.10415  0.49488  0.50657  1.0000 -0.5163937164
O   O40       1.0  0.50512  0.60927  0.50657  1.0000 -0.5121582695
O   O41       1.0  0.49488  0.39073  0.00657  1.0000 -0.5163937164
O   O42       1.0  0.89585  0.50512  0.00657  1.0000 -0.5163937164
O   O43       1.0  0.49488  0.10415  0.49343  1.0000 -0.5163937164
O   O44       1.0  0.60927  0.50512  0.49343  1.0000 -0.5163937164
O   O45       1.0  0.89585  0.39073  0.49343  1.0000 -0.5163937164
O   O46       1.0  0.10415  0.60927  0.99343  1.0000 -0.5163937164
O   O47       1.0  0.39073  0.49488  0.99343  1.0000 -0.5163937164
O   O48       1.0  0.50512  0.89585  0.99343  1.0000 -0.5163937164
O   O49       1.0  0.16934  0.89686  0.32085  1.0000 -0.1857111098
O   O50       1.0  0.83066  0.10314  0.82085  1.0000 -0.1841882484
O   O51       1.0  0.10314  0.27248  0.32085  1.0000 -0.1857111098
O   O52       1.0  0.72752  0.83066  0.32085  1.0000 -0.1857111098
O   O53       1.0  0.27248  0.16934  0.82085  1.0000 -0.1857111098
O   O54       1.0  0.89686  0.72752  0.82085  1.0000 -0.1857111098
O   O55       1.0  0.27248  0.10314  0.67915  1.0000 -0.1857111098
O   O56       1.0  0.83066  0.72752  0.67915  1.0000 -0.1857111098
O   O57       1.0  0.89686  0.16934  0.67915  1.0000 -0.1857111098
O   O58       1.0  0.10314  0.83066  0.17915  1.0000 -0.1857111098
O   O59       1.0  0.16934  0.27248  0.17915  1.0000 -0.1841882484
O   O60       1.0  0.72752  0.89686  0.17915  1.0000 -0.1857111098
