# DDEC6 charges by PACMAN v1.1 (https://github.com/mtap-research/PACMAN-charge/)
data_2010[Co][nan]3[ASR]8
_chemical_formula_sum              "Co48 H768 C1248 S96 N480"
_cell_length_a       45.1983
_cell_length_b       45.1983
_cell_length_c       45.1983
_cell_angle_alpha    60
_cell_angle_beta     60
_cell_angle_gamma    60

_symmetry_space_group_name_H-M    "P 1"
_symmetry_Int_Tables_number       1

loop_
  _symmetry_equiv_pos_as_xyz
  'x, y, z'

loop_
  _atom_site_type_symbol
  _atom_site_label
  _atom_site_symmetry_multiplicity
  _atom_site_fract_x
  _atom_site_fract_y
  _atom_site_fract_z
  _atom_site_occupancy
  _atom_site_charge
Co  Co1       1.0  0.25000  0.75000  0.50944  1.0000 0.6759376373
Co  Co2       1.0  0.75000  0.25000  0.99056  1.0000 0.6731292786
Co  Co3       1.0  0.50944  0.99056  0.25000  1.0000 0.6731292786
Co  Co4       1.0  0.99056  0.50944  0.75000  1.0000 0.6731292786
Co  Co5       1.0  0.50944  0.25000  0.75000  1.0000 0.6731292786
Co  Co6       1.0  0.99056  0.75000  0.25000  1.0000 0.6731292786
Co  Co7       1.0  0.25000  0.50944  0.99056  1.0000 0.6731292786
Co  Co8       1.0  0.75000  0.99056  0.50944  1.0000 0.6731292786
Co  Co9       1.0  0.75000  0.50944  0.25000  1.0000 0.6731292786
Co  Co10      1.0  0.25000  0.99056  0.75000  1.0000 0.6731292786
Co  Co11      1.0  0.99056  0.25000  0.50944  1.0000 0.6731292786
Co  Co12      1.0  0.50944  0.75000  0.99056  1.0000 0.6731292786
Co  Co13      1.0  0.75000  0.25000  0.49056  1.0000 0.6731292786
Co  Co14      1.0  0.25000  0.75000  0.00944  1.0000 0.6731292786
Co  Co15      1.0  0.49056  0.00944  0.75000  1.0000 0.6731292786
Co  Co16      1.0  0.00944  0.49056  0.25000  1.0000 0.6731292786
Co  Co17      1.0  0.49056  0.75000  0.25000  1.0000 0.6731292786
Co  Co18      1.0  0.00944  0.25000  0.75000  1.0000 0.6731292786
Co  Co19      1.0  0.75000  0.49056  0.00944  1.0000 0.6731292786
Co  Co20      1.0  0.25000  0.00944  0.49056  1.0000 0.6731292786
Co  Co21      1.0  0.25000  0.49056  0.75000  1.0000 0.6731292786
Co  Co22      1.0  0.75000  0.00944  0.25000  1.0000 0.6731292786
Co  Co23      1.0  0.00944  0.75000  0.49056  1.0000 0.6731292786
Co  Co24      1.0  0.49056  0.25000  0.00944  1.0000 0.6731292786
Co  Co25      1.0  0.49790  0.75210  0.49790  1.0000 0.6641355735
Co  Co26      1.0  0.75210  0.49790  0.75210  1.0000 0.6641355735
Co  Co27      1.0  0.49790  0.49790  0.75210  1.0000 0.6641355735
Co  Co28      1.0  0.75210  0.75210  0.49790  1.0000 0.6641355735
Co  Co29      1.0  0.75210  0.49790  0.49790  1.0000 0.6641355735
Co  Co30      1.0  0.49790  0.75210  0.75210  1.0000 0.6641355735
Co  Co31      1.0  0.00210  0.74790  0.74790  1.0000 0.6641355735
Co  Co32      1.0  0.74790  0.00210  0.00210  1.0000 0.6731292786
Co  Co33      1.0  0.00210  0.00210  0.74790  1.0000 0.6641355735
Co  Co34      1.0  0.74790  0.74790  0.00210  1.0000 0.6641355735
Co  Co35      1.0  0.74790  0.00210  0.74790  1.0000 0.6641355735
Co  Co36      1.0  0.00210  0.74790  0.00210  1.0000 0.6731292786
Co  Co37      1.0  0.50210  0.24790  0.50210  1.0000 0.6641355735
Co  Co38      1.0  0.24790  0.50210  0.24790  1.0000 0.6641355735
Co  Co39      1.0  0.50210  0.50210  0.24790  1.0000 0.6641355735
Co  Co40      1.0  0.24790  0.24790  0.50210  1.0000 0.6641355735
Co  Co41      1.0  0.24790  0.50210  0.50210  1.0000 0.6641355735
Co  Co42      1.0  0.50210  0.24790  0.24790  1.0000 0.6641355735
Co  Co43      1.0  0.99790  0.25210  0.25210  1.0000 0.6641355735
Co  Co44      1.0  0.25210  0.99790  0.99790  1.0000 0.6641355735
Co  Co45      1.0  0.99790  0.99790  0.25210  1.0000 0.6641355735
Co  Co46      1.0  0.25210  0.25210  0.99790  1.0000 0.6641355735
Co  Co47      1.0  0.25210  0.99790  0.25210  1.0000 0.6641355735
Co  Co48      1.0  0.99790  0.25210  0.99790  1.0000 0.6641355735
H   H1        1.0  0.31310  0.68630  0.54410  1.0000 0.1004571027
H   H2        1.0  0.35570  0.68030  0.56230  1.0000 0.1368367932
H   H3        1.0  0.36050  0.73210  0.55750  1.0000 0.1218765861
H   H4        1.0  0.27470  0.79150  0.52110  1.0000 0.1004571027
H   H5        1.0  0.28730  0.92670  0.51230  1.0000 0.1092298211
H   H6        1.0  0.23090  0.87670  0.51830  1.0000 0.1218765861
H   H7        1.0  0.18360  0.93140  0.51240  1.0000 0.1368367932
H   H8        1.0  0.18990  0.98330  0.50390  1.0000 0.1004571027
H   H9        1.0  0.41720  0.78260  0.50980  1.0000 0.1004571027
H   H10       1.0  0.48190  0.83450  0.47870  1.0000 0.1092298211
H   H11       1.0  0.43410  0.88850  0.47790  1.0000 0.1368367932
H   H12       1.0  0.37580  0.89040  0.49140  1.0000 0.1218765861
H   H13       1.0  0.54360  0.75600  0.52840  1.0000 0.1092298211
H   H14       1.0  0.48190  0.77190  0.62510  1.0000 0.1218765861
H   H15       1.0  0.43350  0.77130  0.62090  1.0000 0.1368367932
H   H16       1.0  0.44180  0.75880  0.57280  1.0000 0.1004571027
H   H17       1.0  0.68630  0.31310  0.95650  1.0000 0.1004571027
H   H18       1.0  0.68030  0.35570  0.90170  1.0000 0.1368367932
H   H19       1.0  0.73210  0.36050  0.84990  1.0000 0.1218765861
H   H20       1.0  0.79150  0.27470  0.91270  1.0000 0.1004571027
H   H21       1.0  0.92670  0.28730  0.77370  1.0000 0.1092298211
H   H22       1.0  0.87670  0.23090  0.87410  1.0000 0.1218765861
H   H23       1.0  0.93140  0.18360  0.87260  1.0000 0.1368367932
H   H24       1.0  0.98330  0.18990  0.82290  1.0000 0.1004571027
H   H25       1.0  0.78260  0.41720  0.79040  1.0000 0.1004571027
H   H26       1.0  0.83450  0.48190  0.70490  1.0000 0.1092298211
H   H27       1.0  0.88850  0.43410  0.69950  1.0000 0.1368367932
H   H28       1.0  0.89040  0.37580  0.74240  1.0000 0.1218765861
H   H29       1.0  0.75600  0.54360  0.67200  1.0000 0.1092298211
H   H30       1.0  0.77190  0.48190  0.62110  1.0000 0.1252415027
H   H31       1.0  0.77130  0.43350  0.67430  1.0000 0.1368367932
H   H32       1.0  0.75880  0.44180  0.72660  1.0000 0.1004571027
H   H33       1.0  0.54410  0.95650  0.31310  1.0000 0.1004571027
H   H34       1.0  0.56230  0.90170  0.35570  1.0000 0.1368367932
H   H35       1.0  0.55750  0.84990  0.36050  1.0000 0.1218765861
H   H36       1.0  0.52110  0.91270  0.27470  1.0000 0.1004571027
H   H37       1.0  0.51230  0.77370  0.28730  1.0000 0.1092298211
H   H38       1.0  0.51830  0.87410  0.23090  1.0000 0.1218765861
H   H39       1.0  0.51240  0.87260  0.18360  1.0000 0.1368367932
H   H40       1.0  0.50390  0.82290  0.18990  1.0000 0.1004571027
H   H41       1.0  0.50980  0.79040  0.41720  1.0000 0.1004571027
H   H42       1.0  0.47870  0.70490  0.48190  1.0000 0.1092298211
H   H43       1.0  0.47790  0.69950  0.43410  1.0000 0.1368367932
H   H44       1.0  0.49140  0.74240  0.37580  1.0000 0.1218765861
H   H45       1.0  0.52840  0.67200  0.54360  1.0000 0.1092298211
H   H46       1.0  0.62510  0.62110  0.48190  1.0000 0.1252415027
H   H47       1.0  0.62090  0.67430  0.43350  1.0000 0.1368367932
H   H48       1.0  0.57280  0.72660  0.44180  1.0000 0.1004571027
H   H49       1.0  0.95650  0.54410  0.68630  1.0000 0.1004571027
H   H50       1.0  0.90170  0.56230  0.68030  1.0000 0.1368367932
H   H51       1.0  0.84990  0.55750  0.73210  1.0000 0.1218765861
H   H52       1.0  0.91270  0.52110  0.79150  1.0000 0.1004571027
H   H53       1.0  0.77370  0.51230  0.92670  1.0000 0.1092298211
H   H54       1.0  0.87410  0.51830  0.87670  1.0000 0.1218765861
H   H55       1.0  0.87260  0.51240  0.93140  1.0000 0.1368367932
H   H56       1.0  0.82290  0.50390  0.98330  1.0000 0.1004571027
H   H57       1.0  0.79040  0.50980  0.78260  1.0000 0.1004571027
H   H58       1.0  0.70490  0.47870  0.83450  1.0000 0.1092298211
H   H59       1.0  0.69950  0.47790  0.88850  1.0000 0.1368367932
H   H60       1.0  0.74240  0.49140  0.89040  1.0000 0.1218765861
H   H61       1.0  0.67200  0.52840  0.75600  1.0000 0.1092298211
H   H62       1.0  0.62110  0.62510  0.77190  1.0000 0.1252415027
H   H63       1.0  0.67430  0.62090  0.77130  1.0000 0.1368367932
H   H64       1.0  0.72660  0.57280  0.75880  1.0000 0.1004571027
H   H65       1.0  0.54410  0.31310  0.68630  1.0000 0.1004571027
H   H66       1.0  0.56230  0.35570  0.68030  1.0000 0.1368367932
H   H67       1.0  0.55750  0.36050  0.73210  1.0000 0.1218765861
H   H68       1.0  0.52110  0.27470  0.79150  1.0000 0.1004571027
H   H69       1.0  0.51230  0.28730  0.92670  1.0000 0.1092298211
H   H70       1.0  0.51830  0.23090  0.87670  1.0000 0.1218765861
H   H71       1.0  0.51240  0.18360  0.93140  1.0000 0.1368367932
H   H72       1.0  0.50390  0.18990  0.98330  1.0000 0.1004571027
H   H73       1.0  0.50980  0.41720  0.78260  1.0000 0.1004571027
H   H74       1.0  0.47870  0.48190  0.83450  1.0000 0.1092298211
H   H75       1.0  0.47790  0.43410  0.88850  1.0000 0.1368367932
H   H76       1.0  0.49140  0.37580  0.89040  1.0000 0.1218765861
H   H77       1.0  0.52840  0.54360  0.75600  1.0000 0.1092298211
H   H78       1.0  0.62510  0.48190  0.77190  1.0000 0.1252415027
H   H79       1.0  0.62090  0.43350  0.77130  1.0000 0.1368367932
H   H80       1.0  0.57280  0.44180  0.75880  1.0000 0.1004571027
H   H81       1.0  0.95650  0.68630  0.31310  1.0000 0.1004571027
H   H82       1.0  0.90170  0.68030  0.35570  1.0000 0.1368367932
H   H83       1.0  0.84990  0.73210  0.36050  1.0000 0.1218765861
H   H84       1.0  0.91270  0.79150  0.27470  1.0000 0.1004571027
H   H85       1.0  0.77370  0.92670  0.28730  1.0000 0.1092298211
H   H86       1.0  0.87410  0.87670  0.23090  1.0000 0.1218765861
H   H87       1.0  0.87260  0.93140  0.18360  1.0000 0.1368367932
H   H88       1.0  0.82290  0.98330  0.18990  1.0000 0.1004571027
H   H89       1.0  0.79040  0.78260  0.41720  1.0000 0.1004571027
H   H90       1.0  0.70490  0.83450  0.48190  1.0000 0.1092298211
H   H91       1.0  0.69950  0.88850  0.43410  1.0000 0.1368367932
H   H92       1.0  0.74240  0.89040  0.37580  1.0000 0.1218765861
H   H93       1.0  0.67200  0.75600  0.54360  1.0000 0.1092298211
H   H94       1.0  0.62110  0.77190  0.48190  1.0000 0.1252415027
H   H95       1.0  0.67430  0.77130  0.43350  1.0000 0.1368367932
H   H96       1.0  0.72660  0.75880  0.44180  1.0000 0.1004571027
H   H97       1.0  0.31310  0.54410  0.95650  1.0000 0.1004571027
H   H98       1.0  0.35570  0.56230  0.90170  1.0000 0.1368367932
H   H99       1.0  0.36050  0.55750  0.84990  1.0000 0.1218765861
H   H100      1.0  0.27470  0.52110  0.91270  1.0000 0.1004571027
H   H101      1.0  0.28730  0.51230  0.77370  1.0000 0.1092298211
H   H102      1.0  0.23090  0.51830  0.87410  1.0000 0.1218765861
H   H103      1.0  0.18360  0.51240  0.87260  1.0000 0.1368367932
H   H104      1.0  0.18990  0.50390  0.82290  1.0000 0.1004571027
H   H105      1.0  0.41720  0.50980  0.79040  1.0000 0.1004571027
H   H106      1.0  0.48190  0.47870  0.70490  1.0000 0.1092298211
H   H107      1.0  0.43410  0.47790  0.69950  1.0000 0.1368367932
H   H108      1.0  0.37580  0.49140  0.74240  1.0000 0.1218765861
H   H109      1.0  0.54360  0.52840  0.67200  1.0000 0.1092298211
H   H110      1.0  0.48190  0.62510  0.62110  1.0000 0.1252415027
H   H111      1.0  0.43350  0.62090  0.67430  1.0000 0.1368367932
H   H112      1.0  0.44180  0.57280  0.72660  1.0000 0.1004571027
H   H113      1.0  0.68630  0.95650  0.54410  1.0000 0.1004571027
H   H114      1.0  0.68030  0.90170  0.56230  1.0000 0.1368367932
H   H115      1.0  0.73210  0.84990  0.55750  1.0000 0.1218765861
H   H116      1.0  0.79150  0.91270  0.52110  1.0000 0.1004571027
H   H117      1.0  0.92670  0.77370  0.51230  1.0000 0.1092298211
H   H118      1.0  0.87670  0.87410  0.51830  1.0000 0.1218765861
H   H119      1.0  0.93140  0.87260  0.51240  1.0000 0.1368367932
H   H120      1.0  0.98330  0.82290  0.50390  1.0000 0.1004571027
H   H121      1.0  0.78260  0.79040  0.50980  1.0000 0.1004571027
H   H122      1.0  0.83450  0.70490  0.47870  1.0000 0.1092298211
H   H123      1.0  0.88850  0.69950  0.47790  1.0000 0.1368367932
H   H124      1.0  0.89040  0.74240  0.49140  1.0000 0.1218765861
H   H125      1.0  0.75600  0.67200  0.52840  1.0000 0.1092298211
H   H126      1.0  0.77190  0.62110  0.62510  1.0000 0.1252415027
H   H127      1.0  0.77130  0.67430  0.62090  1.0000 0.1368367932
H   H128      1.0  0.75880  0.72660  0.57280  1.0000 0.1004571027
H   H129      1.0  0.68630  0.54410  0.31310  1.0000 0.1004571027
H   H130      1.0  0.68030  0.56230  0.35570  1.0000 0.1368367932
H   H131      1.0  0.73210  0.55750  0.36050  1.0000 0.1218765861
H   H132      1.0  0.79150  0.52110  0.27470  1.0000 0.1004571027
H   H133      1.0  0.92670  0.51230  0.28730  1.0000 0.1092298211
H   H134      1.0  0.87670  0.51830  0.23090  1.0000 0.1218765861
H   H135      1.0  0.93140  0.51240  0.18360  1.0000 0.1368367932
H   H136      1.0  0.98330  0.50390  0.18990  1.0000 0.1004571027
H   H137      1.0  0.78260  0.50980  0.41720  1.0000 0.1004571027
H   H138      1.0  0.83450  0.47870  0.48190  1.0000 0.1092298211
H   H139      1.0  0.88850  0.47790  0.43410  1.0000 0.1368367932
H   H140      1.0  0.89040  0.49140  0.37580  1.0000 0.1218765861
H   H141      1.0  0.75600  0.52840  0.54360  1.0000 0.1092298211
H   H142      1.0  0.77190  0.62510  0.48190  1.0000 0.1252415027
H   H143      1.0  0.77130  0.62090  0.43350  1.0000 0.1368367932
H   H144      1.0  0.75880  0.57280  0.44180  1.0000 0.1004571027
H   H145      1.0  0.31310  0.95650  0.68630  1.0000 0.1004571027
H   H146      1.0  0.35570  0.90170  0.68030  1.0000 0.1368367932
H   H147      1.0  0.36050  0.84990  0.73210  1.0000 0.1218765861
H   H148      1.0  0.27470  0.91270  0.79150  1.0000 0.1004571027
H   H149      1.0  0.28730  0.77370  0.92670  1.0000 0.1092298211
H   H150      1.0  0.23090  0.87410  0.87670  1.0000 0.1218765861
H   H151      1.0  0.18360  0.87260  0.93140  1.0000 0.1368367932
H   H152      1.0  0.18990  0.82290  0.98330  1.0000 0.1004571027
H   H153      1.0  0.41720  0.79040  0.78260  1.0000 0.1004571027
H   H154      1.0  0.48190  0.70490  0.83450  1.0000 0.1092298211
H   H155      1.0  0.43410  0.69950  0.88850  1.0000 0.1368367932
H   H156      1.0  0.37580  0.74240  0.89040  1.0000 0.1218765861
H   H157      1.0  0.54360  0.67200  0.75600  1.0000 0.1092298211
H   H158      1.0  0.48190  0.62110  0.77190  1.0000 0.1252415027
H   H159      1.0  0.43350  0.67430  0.77130  1.0000 0.1368367932
H   H160      1.0  0.44180  0.72660  0.75880  1.0000 0.1004571027
H   H161      1.0  0.95650  0.31310  0.54410  1.0000 0.1004571027
H   H162      1.0  0.90170  0.35570  0.56230  1.0000 0.1368367932
H   H163      1.0  0.84990  0.36050  0.55750  1.0000 0.1218765861
H   H164      1.0  0.91270  0.27470  0.52110  1.0000 0.1004571027
H   H165      1.0  0.77370  0.28730  0.51230  1.0000 0.1092298211
H   H166      1.0  0.87410  0.23090  0.51830  1.0000 0.1218765861
H   H167      1.0  0.87260  0.18360  0.51240  1.0000 0.1368367932
H   H168      1.0  0.82290  0.18990  0.50390  1.0000 0.1004571027
H   H169      1.0  0.79040  0.41720  0.50980  1.0000 0.1004571027
H   H170      1.0  0.70490  0.48190  0.47870  1.0000 0.1092298211
H   H171      1.0  0.69950  0.43410  0.47790  1.0000 0.1368367932
H   H172      1.0  0.74240  0.37580  0.49140  1.0000 0.1218765861
H   H173      1.0  0.67200  0.54360  0.52840  1.0000 0.1092298211
H   H174      1.0  0.62110  0.48190  0.62510  1.0000 0.1252415027
H   H175      1.0  0.67430  0.43350  0.62090  1.0000 0.1368367932
H   H176      1.0  0.72660  0.44180  0.57280  1.0000 0.1004571027
H   H177      1.0  0.54410  0.68630  0.95650  1.0000 0.1004571027
H   H178      1.0  0.56230  0.68030  0.90170  1.0000 0.1368367932
H   H179      1.0  0.55750  0.73210  0.84990  1.0000 0.1218765861
H   H180      1.0  0.52110  0.79150  0.91270  1.0000 0.1004571027
H   H181      1.0  0.51230  0.92670  0.77370  1.0000 0.1092298211
H   H182      1.0  0.51830  0.87670  0.87410  1.0000 0.1218765861
H   H183      1.0  0.51240  0.93140  0.87260  1.0000 0.1368367932
H   H184      1.0  0.50390  0.98330  0.82290  1.0000 0.1004571027
H   H185      1.0  0.50980  0.78260  0.79040  1.0000 0.1004571027
H   H186      1.0  0.47870  0.83450  0.70490  1.0000 0.1092298211
H   H187      1.0  0.47790  0.88850  0.69950  1.0000 0.1368367932
H   H188      1.0  0.49140  0.89040  0.74240  1.0000 0.1218765861
H   H189      1.0  0.52840  0.75600  0.67200  1.0000 0.1092298211
H   H190      1.0  0.62510  0.77190  0.62110  1.0000 0.1252415027
H   H191      1.0  0.62090  0.77130  0.67430  1.0000 0.1368367932
H   H192      1.0  0.57280  0.75880  0.72660  1.0000 0.1004571027
H   H193      1.0  0.18690  0.81370  0.54350  1.0000 0.1004571027
H   H194      1.0  0.14430  0.81970  0.59830  1.0000 0.1368367932
H   H195      1.0  0.13950  0.76790  0.65010  1.0000 0.1218765861
H   H196      1.0  0.22530  0.70850  0.58730  1.0000 0.1004571027
H   H197      1.0  0.21270  0.57330  0.72630  1.0000 0.1092298211
H   H198      1.0  0.26910  0.62330  0.62590  1.0000 0.1218765861
H   H199      1.0  0.31640  0.56860  0.62740  1.0000 0.1368367932
H   H200      1.0  0.31010  0.51670  0.67710  1.0000 0.1004571027
H   H201      1.0  0.08280  0.71740  0.70960  1.0000 0.1004571027
H   H202      1.0  0.01810  0.66550  0.79510  1.0000 0.1092298211
H   H203      1.0  0.06590  0.61150  0.80050  1.0000 0.1368367932
H   H204      1.0  0.12420  0.60960  0.75760  1.0000 0.1218765861
H   H205      1.0  0.95640  0.74400  0.82800  1.0000 0.1092298211
H   H206      1.0  0.01810  0.72810  0.87890  1.0000 0.1218765861
H   H207      1.0  0.06650  0.72870  0.82570  1.0000 0.1368367932
H   H208      1.0  0.05820  0.74120  0.77340  1.0000 0.1004571027
H   H209      1.0  0.81370  0.18690  0.95590  1.0000 0.1004571027
H   H210      1.0  0.81970  0.14430  0.93770  1.0000 0.1368367932
H   H211      1.0  0.76790  0.13950  0.94250  1.0000 0.1218765861
H   H212      1.0  0.70850  0.22530  0.97890  1.0000 0.1004571027
H   H213      1.0  0.57330  0.21270  0.98770  1.0000 0.1092298211
H   H214      1.0  0.62330  0.26910  0.98170  1.0000 0.1218765861
H   H215      1.0  0.56860  0.31640  0.98760  1.0000 0.1368367932
H   H216      1.0  0.51670  0.31010  0.99610  1.0000 0.1004571027
H   H217      1.0  0.71740  0.08280  0.99020  1.0000 0.1004571027
H   H218      1.0  0.66550  0.01810  0.02130  1.0000 0.1092298211
H   H219      1.0  0.61150  0.06590  0.02210  1.0000 0.1368367932
H   H220      1.0  0.60960  0.12420  0.00860  1.0000 0.1218765861
H   H221      1.0  0.74400  0.95640  0.97160  1.0000 0.1092298211
H   H222      1.0  0.72810  0.01810  0.87490  1.0000 0.1252415027
H   H223      1.0  0.72870  0.06650  0.87910  1.0000 0.1368367932
H   H224      1.0  0.74120  0.05820  0.92720  1.0000 0.1004571027
H   H225      1.0  0.95590  0.54350  0.81370  1.0000 0.1004571027
H   H226      1.0  0.93770  0.59830  0.81970  1.0000 0.1368367932
H   H227      1.0  0.94250  0.65010  0.76790  1.0000 0.1218765861
H   H228      1.0  0.97890  0.58730  0.70850  1.0000 0.1004571027
H   H229      1.0  0.98770  0.72630  0.57330  1.0000 0.1092298211
H   H230      1.0  0.98170  0.62590  0.62330  1.0000 0.1218765861
H   H231      1.0  0.98760  0.62740  0.56860  1.0000 0.1368367932
H   H232      1.0  0.99610  0.67710  0.51670  1.0000 0.1004571027
H   H233      1.0  0.99020  0.70960  0.71740  1.0000 0.1004571027
H   H234      1.0  0.02130  0.79510  0.66550  1.0000 0.1092298211
H   H235      1.0  0.02210  0.80050  0.61150  1.0000 0.1368367932
H   H236      1.0  0.00860  0.75760  0.60960  1.0000 0.1218765861
H   H237      1.0  0.97160  0.82800  0.74400  1.0000 0.1092298211
H   H238      1.0  0.87490  0.87890  0.72810  1.0000 0.1252415027
H   H239      1.0  0.87910  0.82570  0.72870  1.0000 0.1368367932
H   H240      1.0  0.92720  0.77340  0.74120  1.0000 0.1004571027
H   H241      1.0  0.54350  0.95590  0.18690  1.0000 0.1004571027
H   H242      1.0  0.59830  0.93770  0.14430  1.0000 0.1368367932
H   H243      1.0  0.65010  0.94250  0.13950  1.0000 0.1218765861
H   H244      1.0  0.58730  0.97890  0.22530  1.0000 0.1004571027
H   H245      1.0  0.72630  0.98770  0.21270  1.0000 0.1092298211
H   H246      1.0  0.62590  0.98170  0.26910  1.0000 0.1218765861
H   H247      1.0  0.62740  0.98760  0.31640  1.0000 0.1368367932
H   H248      1.0  0.67710  0.99610  0.31010  1.0000 0.1004571027
H   H249      1.0  0.70960  0.99020  0.08280  1.0000 0.1004571027
H   H250      1.0  0.79510  0.02130  0.01810  1.0000 0.1092298211
H   H251      1.0  0.80050  0.02210  0.06590  1.0000 0.1368367932
H   H252      1.0  0.75760  0.00860  0.12420  1.0000 0.1218765861
H   H253      1.0  0.82800  0.97160  0.95640  1.0000 0.1092298211
H   H254      1.0  0.87890  0.87490  0.01810  1.0000 0.1252415027
H   H255      1.0  0.82570  0.87910  0.06650  1.0000 0.1368367932
H   H256      1.0  0.77340  0.92720  0.05820  1.0000 0.1004571027
H   H257      1.0  0.95590  0.18690  0.54350  1.0000 0.1004571027
H   H258      1.0  0.93770  0.14430  0.59830  1.0000 0.1368367932
H   H259      1.0  0.94250  0.13950  0.65010  1.0000 0.1218765861
H   H260      1.0  0.97890  0.22530  0.58730  1.0000 0.1004571027
H   H261      1.0  0.98770  0.21270  0.72630  1.0000 0.1092298211
H   H262      1.0  0.98170  0.26910  0.62590  1.0000 0.1218765861
H   H263      1.0  0.98760  0.31640  0.62740  1.0000 0.1368367932
H   H264      1.0  0.99610  0.31010  0.67710  1.0000 0.1004571027
H   H265      1.0  0.99020  0.08280  0.70960  1.0000 0.1004571027
H   H266      1.0  0.02130  0.01810  0.79510  1.0000 0.1092298211
H   H267      1.0  0.02210  0.06590  0.80050  1.0000 0.1368367932
H   H268      1.0  0.00860  0.12420  0.75760  1.0000 0.1218765861
H   H269      1.0  0.97160  0.95640  0.82800  1.0000 0.1092298211
H   H270      1.0  0.87490  0.01810  0.87890  1.0000 0.1218765861
H   H271      1.0  0.87910  0.06650  0.82570  1.0000 0.1368367932
H   H272      1.0  0.92720  0.05820  0.77340  1.0000 0.1004571027
H   H273      1.0  0.54350  0.81370  0.95590  1.0000 0.1004571027
H   H274      1.0  0.59830  0.81970  0.93770  1.0000 0.1368367932
H   H275      1.0  0.65010  0.76790  0.94250  1.0000 0.1218765861
H   H276      1.0  0.58730  0.70850  0.97890  1.0000 0.1004571027
H   H277      1.0  0.72630  0.57330  0.98770  1.0000 0.1092298211
H   H278      1.0  0.62590  0.62330  0.98170  1.0000 0.1218765861
H   H279      1.0  0.62740  0.56860  0.98760  1.0000 0.1368367932
H   H280      1.0  0.67710  0.51670  0.99610  1.0000 0.1004571027
H   H281      1.0  0.70960  0.71740  0.99020  1.0000 0.1004571027
H   H282      1.0  0.79510  0.66550  0.02130  1.0000 0.1092298211
H   H283      1.0  0.80050  0.61150  0.02210  1.0000 0.1368367932
H   H284      1.0  0.75760  0.60960  0.00860  1.0000 0.1218765861
H   H285      1.0  0.82800  0.74400  0.97160  1.0000 0.1092298211
H   H286      1.0  0.87890  0.72810  0.87490  1.0000 0.1252415027
H   H287      1.0  0.82570  0.72870  0.87910  1.0000 0.1368367932
H   H288      1.0  0.77340  0.74120  0.92720  1.0000 0.1004571027
H   H289      1.0  0.18690  0.95590  0.81370  1.0000 0.1004571027
H   H290      1.0  0.14430  0.93770  0.81970  1.0000 0.1368367932
H   H291      1.0  0.13950  0.94250  0.76790  1.0000 0.1218765861
H   H292      1.0  0.22530  0.97890  0.70850  1.0000 0.1004571027
H   H293      1.0  0.21270  0.98770  0.57330  1.0000 0.1092298211
H   H294      1.0  0.26910  0.98170  0.62330  1.0000 0.1218765861
H   H295      1.0  0.31640  0.98760  0.56860  1.0000 0.1368367932
H   H296      1.0  0.31010  0.99610  0.51670  1.0000 0.1004571027
H   H297      1.0  0.08280  0.99020  0.71740  1.0000 0.1004571027
H   H298      1.0  0.01810  0.02130  0.66550  1.0000 0.1092298211
H   H299      1.0  0.06590  0.02210  0.61150  1.0000 0.1368367932
H   H300      1.0  0.12420  0.00860  0.60960  1.0000 0.1218765861
H   H301      1.0  0.95640  0.97160  0.74400  1.0000 0.1092298211
H   H302      1.0  0.01810  0.87490  0.72810  1.0000 0.1218765861
H   H303      1.0  0.06650  0.87910  0.72870  1.0000 0.1368367932
H   H304      1.0  0.05820  0.92720  0.74120  1.0000 0.1004571027
H   H305      1.0  0.81370  0.54350  0.18690  1.0000 0.1004571027
H   H306      1.0  0.81970  0.59830  0.14430  1.0000 0.1368367932
H   H307      1.0  0.76790  0.65010  0.13950  1.0000 0.1252415027
H   H308      1.0  0.70850  0.58730  0.22530  1.0000 0.1004571027
H   H309      1.0  0.57330  0.72630  0.21270  1.0000 0.1092298211
H   H310      1.0  0.62330  0.62590  0.26910  1.0000 0.1218765861
H   H311      1.0  0.56860  0.62740  0.31640  1.0000 0.1368367932
H   H312      1.0  0.51670  0.67710  0.31010  1.0000 0.1004571027
H   H313      1.0  0.71740  0.70960  0.08280  1.0000 0.1004571027
H   H314      1.0  0.66550  0.79510  0.01810  1.0000 0.1092298211
H   H315      1.0  0.61150  0.80050  0.06590  1.0000 0.1368367932
H   H316      1.0  0.60960  0.75760  0.12420  1.0000 0.1218765861
H   H317      1.0  0.74400  0.82800  0.95640  1.0000 0.1092298211
H   H318      1.0  0.72810  0.87890  0.01810  1.0000 0.1252415027
H   H319      1.0  0.72870  0.82570  0.06650  1.0000 0.1368367932
H   H320      1.0  0.74120  0.77340  0.05820  1.0000 0.1004571027
H   H321      1.0  0.81370  0.95590  0.54350  1.0000 0.1004571027
H   H322      1.0  0.81970  0.93770  0.59830  1.0000 0.1368367932
H   H323      1.0  0.76790  0.94250  0.65010  1.0000 0.1218765861
H   H324      1.0  0.70850  0.97890  0.58730  1.0000 0.1004571027
H   H325      1.0  0.57330  0.98770  0.72630  1.0000 0.1092298211
H   H326      1.0  0.62330  0.98170  0.62590  1.0000 0.1218765861
H   H327      1.0  0.56860  0.98760  0.62740  1.0000 0.1368367932
H   H328      1.0  0.51670  0.99610  0.67710  1.0000 0.1004571027
H   H329      1.0  0.71740  0.99020  0.70960  1.0000 0.1004571027
H   H330      1.0  0.66550  0.02130  0.79510  1.0000 0.1092298211
H   H331      1.0  0.61150  0.02210  0.80050  1.0000 0.1368367932
H   H332      1.0  0.60960  0.00860  0.75760  1.0000 0.1218765861
H   H333      1.0  0.74400  0.97160  0.82800  1.0000 0.1092298211
H   H334      1.0  0.72810  0.87490  0.87890  1.0000 0.1218765861
H   H335      1.0  0.72870  0.87910  0.82570  1.0000 0.1368367932
H   H336      1.0  0.74120  0.92720  0.77340  1.0000 0.1004571027
H   H337      1.0  0.18690  0.54350  0.95590  1.0000 0.1004571027
H   H338      1.0  0.14430  0.59830  0.93770  1.0000 0.1368367932
H   H339      1.0  0.13950  0.65010  0.94250  1.0000 0.1218765861
H   H340      1.0  0.22530  0.58730  0.97890  1.0000 0.1004571027
H   H341      1.0  0.21270  0.72630  0.98770  1.0000 0.1092298211
H   H342      1.0  0.26910  0.62590  0.98170  1.0000 0.1218765861
H   H343      1.0  0.31640  0.62740  0.98760  1.0000 0.1368367932
H   H344      1.0  0.31010  0.67710  0.99610  1.0000 0.1004571027
H   H345      1.0  0.08280  0.70960  0.99020  1.0000 0.1004571027
H   H346      1.0  0.01810  0.79510  0.02130  1.0000 0.1092298211
H   H347      1.0  0.06590  0.80050  0.02210  1.0000 0.1368367932
H   H348      1.0  0.12420  0.75760  0.00860  1.0000 0.1218765861
H   H349      1.0  0.95640  0.82800  0.97160  1.0000 0.1092298211
H   H350      1.0  0.01810  0.87890  0.87490  1.0000 0.1252415027
H   H351      1.0  0.06650  0.82570  0.87910  1.0000 0.1368367932
H   H352      1.0  0.05820  0.77340  0.92720  1.0000 0.1004571027
H   H353      1.0  0.54350  0.18690  0.81370  1.0000 0.1004571027
H   H354      1.0  0.59830  0.14430  0.81970  1.0000 0.1368367932
H   H355      1.0  0.65010  0.13950  0.76790  1.0000 0.1218765861
H   H356      1.0  0.58730  0.22530  0.70850  1.0000 0.1004571027
H   H357      1.0  0.72630  0.21270  0.57330  1.0000 0.1092298211
H   H358      1.0  0.62590  0.26910  0.62330  1.0000 0.1218765861
H   H359      1.0  0.62740  0.31640  0.56860  1.0000 0.1368367932
H   H360      1.0  0.67710  0.31010  0.51670  1.0000 0.1004571027
H   H361      1.0  0.70960  0.08280  0.71740  1.0000 0.1004571027
H   H362      1.0  0.79510  0.01810  0.66550  1.0000 0.1092298211
H   H363      1.0  0.80050  0.06590  0.61150  1.0000 0.1368367932
H   H364      1.0  0.75760  0.12420  0.60960  1.0000 0.1218765861
H   H365      1.0  0.82800  0.95640  0.74400  1.0000 0.1092298211
H   H366      1.0  0.87890  0.01810  0.72810  1.0000 0.1252415027
H   H367      1.0  0.82570  0.06650  0.72870  1.0000 0.1368367932
H   H368      1.0  0.77340  0.05820  0.74120  1.0000 0.1004571027
H   H369      1.0  0.95590  0.81370  0.18690  1.0000 0.1004571027
H   H370      1.0  0.93770  0.81970  0.14430  1.0000 0.1368367932
H   H371      1.0  0.94250  0.76790  0.13950  1.0000 0.1218765861
H   H372      1.0  0.97890  0.70850  0.22530  1.0000 0.1004571027
H   H373      1.0  0.98770  0.57330  0.21270  1.0000 0.1092298211
H   H374      1.0  0.98170  0.62330  0.26910  1.0000 0.1218765861
H   H375      1.0  0.98760  0.56860  0.31640  1.0000 0.1368367932
H   H376      1.0  0.99610  0.51670  0.31010  1.0000 0.1004571027
H   H377      1.0  0.99020  0.71740  0.08280  1.0000 0.1004571027
H   H378      1.0  0.02130  0.66550  0.01810  1.0000 0.1092298211
H   H379      1.0  0.02210  0.61150  0.06590  1.0000 0.1368367932
H   H380      1.0  0.00860  0.60960  0.12420  1.0000 0.1218765861
H   H381      1.0  0.97160  0.74400  0.95640  1.0000 0.1092298211
H   H382      1.0  0.87490  0.72810  0.01810  1.0000 0.1252415027
H   H383      1.0  0.87910  0.72870  0.06650  1.0000 0.1368367932
H   H384      1.0  0.92720  0.74120  0.05820  1.0000 0.1004571027
H   H385      1.0  0.68690  0.31370  0.45590  1.0000 0.1004571027
H   H386      1.0  0.64430  0.31970  0.43770  1.0000 0.1368367932
H   H387      1.0  0.63950  0.26790  0.44250  1.0000 0.1218765861
H   H388      1.0  0.72530  0.20850  0.47890  1.0000 0.1004571027
H   H389      1.0  0.71270  0.07330  0.48770  1.0000 0.1092298211
H   H390      1.0  0.76910  0.12330  0.48170  1.0000 0.1218765861
H   H391      1.0  0.81640  0.06860  0.48760  1.0000 0.1368367932
H   H392      1.0  0.81010  0.01670  0.49610  1.0000 0.1004571027
H   H393      1.0  0.58280  0.21740  0.49020  1.0000 0.1004571027
H   H394      1.0  0.51810  0.16550  0.52130  1.0000 0.1092298211
H   H395      1.0  0.56590  0.11150  0.52210  1.0000 0.1368367932
H   H396      1.0  0.62420  0.10960  0.50860  1.0000 0.1218765861
H   H397      1.0  0.45640  0.24400  0.47160  1.0000 0.1092298211
H   H398      1.0  0.51810  0.22810  0.37490  1.0000 0.1252415027
H   H399      1.0  0.56650  0.22870  0.37910  1.0000 0.1368367932
H   H400      1.0  0.55820  0.24120  0.42720  1.0000 0.1004571027
H   H401      1.0  0.31370  0.68690  0.04350  1.0000 0.1004571027
H   H402      1.0  0.31970  0.64430  0.09830  1.0000 0.1368367932
H   H403      1.0  0.26790  0.63950  0.15010  1.0000 0.1218765861
H   H404      1.0  0.20850  0.72530  0.08730  1.0000 0.1004571027
H   H405      1.0  0.07330  0.71270  0.22630  1.0000 0.1092298211
H   H406      1.0  0.12330  0.76910  0.12590  1.0000 0.1218765861
H   H407      1.0  0.06860  0.81640  0.12740  1.0000 0.1368367932
H   H408      1.0  0.01670  0.81010  0.17710  1.0000 0.1004571027
H   H409      1.0  0.21740  0.58280  0.20960  1.0000 0.1004571027
H   H410      1.0  0.16550  0.51810  0.29510  1.0000 0.1092298211
H   H411      1.0  0.11150  0.56590  0.30050  1.0000 0.1368367932
H   H412      1.0  0.10960  0.62420  0.25760  1.0000 0.1218765861
H   H413      1.0  0.24400  0.45640  0.32800  1.0000 0.1092298211
H   H414      1.0  0.22810  0.51810  0.37890  1.0000 0.1252415027
H   H415      1.0  0.22870  0.56650  0.32570  1.0000 0.1368367932
H   H416      1.0  0.24120  0.55820  0.27340  1.0000 0.1004571027
H   H417      1.0  0.45590  0.04350  0.68690  1.0000 0.1004571027
H   H418      1.0  0.43770  0.09830  0.64430  1.0000 0.1368367932
H   H419      1.0  0.44250  0.15010  0.63950  1.0000 0.1218765861
H   H420      1.0  0.47890  0.08730  0.72530  1.0000 0.1004571027
H   H421      1.0  0.48770  0.22630  0.71270  1.0000 0.1092298211
H   H422      1.0  0.48170  0.12590  0.76910  1.0000 0.1218765861
H   H423      1.0  0.48760  0.12740  0.81640  1.0000 0.1368367932
H   H424      1.0  0.49610  0.17710  0.81010  1.0000 0.1004571027
H   H425      1.0  0.49020  0.20960  0.58280  1.0000 0.1004571027
H   H426      1.0  0.52130  0.29510  0.51810  1.0000 0.1092298211
H   H427      1.0  0.52210  0.30050  0.56590  1.0000 0.1368367932
H   H428      1.0  0.50860  0.25760  0.62420  1.0000 0.1218765861
H   H429      1.0  0.47160  0.32800  0.45640  1.0000 0.1092298211
H   H430      1.0  0.37490  0.37890  0.51810  1.0000 0.1252415027
H   H431      1.0  0.37910  0.32570  0.56650  1.0000 0.1368367932
H   H432      1.0  0.42720  0.27340  0.55820  1.0000 0.1004571027
H   H433      1.0  0.04350  0.45590  0.31370  1.0000 0.1004571027
H   H434      1.0  0.09830  0.43770  0.31970  1.0000 0.1368367932
H   H435      1.0  0.15010  0.44250  0.26790  1.0000 0.1218765861
H   H436      1.0  0.08730  0.47890  0.20850  1.0000 0.1004571027
H   H437      1.0  0.22630  0.48770  0.07330  1.0000 0.1092298211
H   H438      1.0  0.12590  0.48170  0.12330  1.0000 0.1218765861
H   H439      1.0  0.12740  0.48760  0.06860  1.0000 0.1368367932
H   H440      1.0  0.17710  0.49610  0.01670  1.0000 0.1004571027
H   H441      1.0  0.20960  0.49020  0.21740  1.0000 0.1004571027
H   H442      1.0  0.29510  0.52130  0.16550  1.0000 0.1092298211
H   H443      1.0  0.30050  0.52210  0.11150  1.0000 0.1368367932
H   H444      1.0  0.25760  0.50860  0.10960  1.0000 0.1218765861
H   H445      1.0  0.32800  0.47160  0.24400  1.0000 0.1092298211
H   H446      1.0  0.37890  0.37490  0.22810  1.0000 0.1252415027
H   H447      1.0  0.32570  0.37910  0.22870  1.0000 0.1368367932
H   H448      1.0  0.27340  0.42720  0.24120  1.0000 0.1004571027
H   H449      1.0  0.45590  0.68690  0.31370  1.0000 0.1004571027
H   H450      1.0  0.43770  0.64430  0.31970  1.0000 0.1368367932
H   H451      1.0  0.44250  0.63950  0.26790  1.0000 0.1218765861
H   H452      1.0  0.47890  0.72530  0.20850  1.0000 0.1004571027
H   H453      1.0  0.48770  0.71270  0.07330  1.0000 0.1092298211
H   H454      1.0  0.48170  0.76910  0.12330  1.0000 0.1218765861
H   H455      1.0  0.48760  0.81640  0.06860  1.0000 0.1368367932
H   H456      1.0  0.49610  0.81010  0.01670  1.0000 0.1004571027
H   H457      1.0  0.49020  0.58280  0.21740  1.0000 0.1004571027
H   H458      1.0  0.52130  0.51810  0.16550  1.0000 0.1092298211
H   H459      1.0  0.52210  0.56590  0.11150  1.0000 0.1368367932
H   H460      1.0  0.50860  0.62420  0.10960  1.0000 0.1218765861
H   H461      1.0  0.47160  0.45640  0.24400  1.0000 0.1092298211
H   H462      1.0  0.37490  0.51810  0.22810  1.0000 0.1252415027
H   H463      1.0  0.37910  0.56650  0.22870  1.0000 0.1368367932
H   H464      1.0  0.42720  0.55820  0.24120  1.0000 0.1004571027
H   H465      1.0  0.04350  0.31370  0.68690  1.0000 0.1004571027
H   H466      1.0  0.09830  0.31970  0.64430  1.0000 0.1368367932
H   H467      1.0  0.15010  0.26790  0.63950  1.0000 0.1218765861
H   H468      1.0  0.08730  0.20850  0.72530  1.0000 0.1004571027
H   H469      1.0  0.22630  0.07330  0.71270  1.0000 0.1092298211
H   H470      1.0  0.12590  0.12330  0.76910  1.0000 0.1218765861
H   H471      1.0  0.12740  0.06860  0.81640  1.0000 0.1368367932
H   H472      1.0  0.17710  0.01670  0.81010  1.0000 0.1004571027
H   H473      1.0  0.20960  0.21740  0.58280  1.0000 0.1004571027
H   H474      1.0  0.29510  0.16550  0.51810  1.0000 0.1092298211
H   H475      1.0  0.30050  0.11150  0.56590  1.0000 0.1368367932
H   H476      1.0  0.25760  0.10960  0.62420  1.0000 0.1218765861
H   H477      1.0  0.32800  0.24400  0.45640  1.0000 0.1092298211
H   H478      1.0  0.37890  0.22810  0.51810  1.0000 0.1252415027
H   H479      1.0  0.32570  0.22870  0.56650  1.0000 0.1368367932
H   H480      1.0  0.27340  0.24120  0.55820  1.0000 0.1004571027
H   H481      1.0  0.68690  0.45590  0.04350  1.0000 0.1004571027
H   H482      1.0  0.64430  0.43770  0.09830  1.0000 0.1368367932
H   H483      1.0  0.63950  0.44250  0.15010  1.0000 0.1252415027
H   H484      1.0  0.72530  0.47890  0.08730  1.0000 0.1004571027
H   H485      1.0  0.71270  0.48770  0.22630  1.0000 0.1092298211
H   H486      1.0  0.76910  0.48170  0.12590  1.0000 0.1218765861
H   H487      1.0  0.81640  0.48760  0.12740  1.0000 0.1368367932
H   H488      1.0  0.81010  0.49610  0.17710  1.0000 0.1004571027
H   H489      1.0  0.58280  0.49020  0.20960  1.0000 0.1004571027
H   H490      1.0  0.51810  0.52130  0.29510  1.0000 0.1092298211
H   H491      1.0  0.56590  0.52210  0.30050  1.0000 0.1368367932
H   H492      1.0  0.62420  0.50860  0.25760  1.0000 0.1218765861
H   H493      1.0  0.45640  0.47160  0.32800  1.0000 0.1092298211
H   H494      1.0  0.51810  0.37490  0.37890  1.0000 0.1252415027
H   H495      1.0  0.56650  0.37910  0.32570  1.0000 0.1368367932
H   H496      1.0  0.55820  0.42720  0.27340  1.0000 0.1004571027
H   H497      1.0  0.31370  0.04350  0.45590  1.0000 0.1004571027
H   H498      1.0  0.31970  0.09830  0.43770  1.0000 0.1368367932
H   H499      1.0  0.26790  0.15010  0.44250  1.0000 0.1218765861
H   H500      1.0  0.20850  0.08730  0.47890  1.0000 0.1004571027
H   H501      1.0  0.07330  0.22630  0.48770  1.0000 0.1092298211
H   H502      1.0  0.12330  0.12590  0.48170  1.0000 0.1218765861
H   H503      1.0  0.06860  0.12740  0.48760  1.0000 0.1368367932
H   H504      1.0  0.01670  0.17710  0.49610  1.0000 0.1004571027
H   H505      1.0  0.21740  0.20960  0.49020  1.0000 0.1004571027
H   H506      1.0  0.16550  0.29510  0.52130  1.0000 0.1092298211
H   H507      1.0  0.11150  0.30050  0.52210  1.0000 0.1368367932
H   H508      1.0  0.10960  0.25760  0.50860  1.0000 0.1218765861
H   H509      1.0  0.24400  0.32800  0.47160  1.0000 0.1092298211
H   H510      1.0  0.22810  0.37890  0.37490  1.0000 0.1252415027
H   H511      1.0  0.22870  0.32570  0.37910  1.0000 0.1368367932
H   H512      1.0  0.24120  0.27340  0.42720  1.0000 0.1004571027
H   H513      1.0  0.31370  0.45590  0.68690  1.0000 0.1004571027
H   H514      1.0  0.31970  0.43770  0.64430  1.0000 0.1368367932
H   H515      1.0  0.26790  0.44250  0.63950  1.0000 0.1218765861
H   H516      1.0  0.20850  0.47890  0.72530  1.0000 0.1004571027
H   H517      1.0  0.07330  0.48770  0.71270  1.0000 0.1092298211
H   H518      1.0  0.12330  0.48170  0.76910  1.0000 0.1218765861
H   H519      1.0  0.06860  0.48760  0.81640  1.0000 0.1368367932
H   H520      1.0  0.01670  0.49610  0.81010  1.0000 0.1004571027
H   H521      1.0  0.21740  0.49020  0.58280  1.0000 0.1004571027
H   H522      1.0  0.16550  0.52130  0.51810  1.0000 0.1092298211
H   H523      1.0  0.11150  0.52210  0.56590  1.0000 0.1368367932
H   H524      1.0  0.10960  0.50860  0.62420  1.0000 0.1218765861
H   H525      1.0  0.24400  0.47160  0.45640  1.0000 0.1092298211
H   H526      1.0  0.22810  0.37490  0.51810  1.0000 0.1252415027
H   H527      1.0  0.22870  0.37910  0.56650  1.0000 0.1368367932
H   H528      1.0  0.24120  0.42720  0.55820  1.0000 0.1004571027
H   H529      1.0  0.68690  0.04350  0.31370  1.0000 0.1004571027
H   H530      1.0  0.64430  0.09830  0.31970  1.0000 0.1368367932
H   H531      1.0  0.63950  0.15010  0.26790  1.0000 0.1218765861
H   H532      1.0  0.72530  0.08730  0.20850  1.0000 0.1004571027
H   H533      1.0  0.71270  0.22630  0.07330  1.0000 0.1092298211
H   H534      1.0  0.76910  0.12590  0.12330  1.0000 0.1218765861
H   H535      1.0  0.81640  0.12740  0.06860  1.0000 0.1368367932
H   H536      1.0  0.81010  0.17710  0.01670  1.0000 0.1004571027
H   H537      1.0  0.58280  0.20960  0.21740  1.0000 0.1004571027
H   H538      1.0  0.51810  0.29510  0.16550  1.0000 0.1092298211
H   H539      1.0  0.56590  0.30050  0.11150  1.0000 0.1368367932
H   H540      1.0  0.62420  0.25760  0.10960  1.0000 0.1218765861
H   H541      1.0  0.45640  0.32800  0.24400  1.0000 0.1092298211
H   H542      1.0  0.51810  0.37890  0.22810  1.0000 0.1252415027
H   H543      1.0  0.56650  0.32570  0.22870  1.0000 0.1368367932
H   H544      1.0  0.55820  0.27340  0.24120  1.0000 0.1004571027
H   H545      1.0  0.04350  0.68690  0.45590  1.0000 0.1004571027
H   H546      1.0  0.09830  0.64430  0.43770  1.0000 0.1368367932
H   H547      1.0  0.15010  0.63950  0.44250  1.0000 0.1218765861
H   H548      1.0  0.08730  0.72530  0.47890  1.0000 0.1004571027
H   H549      1.0  0.22630  0.71270  0.48770  1.0000 0.1092298211
H   H550      1.0  0.12590  0.76910  0.48170  1.0000 0.1218765861
H   H551      1.0  0.12740  0.81640  0.48760  1.0000 0.1368367932
H   H552      1.0  0.17710  0.81010  0.49610  1.0000 0.1004571027
H   H553      1.0  0.20960  0.58280  0.49020  1.0000 0.1004571027
H   H554      1.0  0.29510  0.51810  0.52130  1.0000 0.1092298211
H   H555      1.0  0.30050  0.56590  0.52210  1.0000 0.1368367932
H   H556      1.0  0.25760  0.62420  0.50860  1.0000 0.1218765861
H   H557      1.0  0.32800  0.45640  0.47160  1.0000 0.1092298211
H   H558      1.0  0.37890  0.51810  0.37490  1.0000 0.1252415027
H   H559      1.0  0.32570  0.56650  0.37910  1.0000 0.1368367932
H   H560      1.0  0.27340  0.55820  0.42720  1.0000 0.1004571027
H   H561      1.0  0.45590  0.31370  0.04350  1.0000 0.1004571027
H   H562      1.0  0.43770  0.31970  0.09830  1.0000 0.1368367932
H   H563      1.0  0.44250  0.26790  0.15010  1.0000 0.1218765861
H   H564      1.0  0.47890  0.20850  0.08730  1.0000 0.1004571027
H   H565      1.0  0.48770  0.07330  0.22630  1.0000 0.1092298211
H   H566      1.0  0.48170  0.12330  0.12590  1.0000 0.1218765861
H   H567      1.0  0.48760  0.06860  0.12740  1.0000 0.1368367932
H   H568      1.0  0.49610  0.01670  0.17710  1.0000 0.1004571027
H   H569      1.0  0.49020  0.21740  0.20960  1.0000 0.1004571027
H   H570      1.0  0.52130  0.16550  0.29510  1.0000 0.1092298211
H   H571      1.0  0.52210  0.11150  0.30050  1.0000 0.1368367932
H   H572      1.0  0.50860  0.10960  0.25760  1.0000 0.1218765861
H   H573      1.0  0.47160  0.24400  0.32800  1.0000 0.1092298211
H   H574      1.0  0.37490  0.22810  0.37890  1.0000 0.1252415027
H   H575      1.0  0.37910  0.22870  0.32570  1.0000 0.1368367932
H   H576      1.0  0.42720  0.24120  0.27340  1.0000 0.1004571027
H   H577      1.0  0.81310  0.18630  0.45650  1.0000 0.1004571027
H   H578      1.0  0.85570  0.18030  0.40170  1.0000 0.1368367932
H   H579      1.0  0.86050  0.23210  0.34990  1.0000 0.1218765861
H   H580      1.0  0.77470  0.29150  0.41270  1.0000 0.1004571027
H   H581      1.0  0.78730  0.42670  0.27370  1.0000 0.1092298211
H   H582      1.0  0.73090  0.37670  0.37410  1.0000 0.1218765861
H   H583      1.0  0.68360  0.43140  0.37260  1.0000 0.1368367932
H   H584      1.0  0.68990  0.48330  0.32290  1.0000 0.1004571027
H   H585      1.0  0.91720  0.28260  0.29040  1.0000 0.1004571027
H   H586      1.0  0.98190  0.33450  0.20490  1.0000 0.1092298211
H   H587      1.0  0.93410  0.38850  0.19950  1.0000 0.1368367932
H   H588      1.0  0.87580  0.39040  0.24240  1.0000 0.1218765861
H   H589      1.0  0.04360  0.25600  0.17200  1.0000 0.1092298211
H   H590      1.0  0.98190  0.27190  0.12110  1.0000 0.1252415027
H   H591      1.0  0.93350  0.27130  0.17430  1.0000 0.1368367932
H   H592      1.0  0.94180  0.25880  0.22660  1.0000 0.1004571027
H   H593      1.0  0.18630  0.81310  0.04410  1.0000 0.1004571027
H   H594      1.0  0.18030  0.85570  0.06230  1.0000 0.1368367932
H   H595      1.0  0.23210  0.86050  0.05750  1.0000 0.1218765861
H   H596      1.0  0.29150  0.77470  0.02110  1.0000 0.1004571027
H   H597      1.0  0.42670  0.78730  0.01230  1.0000 0.1092298211
H   H598      1.0  0.37670  0.73090  0.01830  1.0000 0.1218765861
H   H599      1.0  0.43140  0.68360  0.01240  1.0000 0.1368367932
H   H600      1.0  0.48330  0.68990  0.00390  1.0000 0.1004571027
H   H601      1.0  0.28260  0.91720  0.00980  1.0000 0.1004571027
H   H602      1.0  0.33450  0.98190  0.97870  1.0000 0.1092298211
H   H603      1.0  0.38850  0.93410  0.97790  1.0000 0.1368367932
H   H604      1.0  0.39040  0.87580  0.99140  1.0000 0.1218765861
H   H605      1.0  0.25600  0.04360  0.02840  1.0000 0.1092298211
H   H606      1.0  0.27190  0.98190  0.12510  1.0000 0.1252415027
H   H607      1.0  0.27130  0.93350  0.12090  1.0000 0.1368367932
H   H608      1.0  0.25880  0.94180  0.07280  1.0000 0.1004571027
H   H609      1.0  0.04410  0.45650  0.18630  1.0000 0.1004571027
H   H610      1.0  0.06230  0.40170  0.18030  1.0000 0.1368367932
H   H611      1.0  0.05750  0.34990  0.23210  1.0000 0.1252415027
H   H612      1.0  0.02110  0.41270  0.29150  1.0000 0.1004571027
H   H613      1.0  0.01230  0.27370  0.42670  1.0000 0.1092298211
H   H614      1.0  0.01830  0.37410  0.37670  1.0000 0.1218765861
H   H615      1.0  0.01240  0.37260  0.43140  1.0000 0.1368367932
H   H616      1.0  0.00390  0.32290  0.48330  1.0000 0.1004571027
H   H617      1.0  0.00980  0.29040  0.28260  1.0000 0.1004571027
H   H618      1.0  0.97870  0.20490  0.33450  1.0000 0.1092298211
H   H619      1.0  0.97790  0.19950  0.38850  1.0000 0.1368367932
H   H620      1.0  0.99140  0.24240  0.39040  1.0000 0.1218765861
H   H621      1.0  0.02840  0.17200  0.25600  1.0000 0.1092298211
H   H622      1.0  0.12510  0.12110  0.27190  1.0000 0.1252415027
H   H623      1.0  0.12090  0.17430  0.27130  1.0000 0.1368367932
H   H624      1.0  0.07280  0.22660  0.25880  1.0000 0.1004571027
H   H625      1.0  0.45650  0.04410  0.81310  1.0000 0.1004571027
H   H626      1.0  0.40170  0.06230  0.85570  1.0000 0.1368367932
H   H627      1.0  0.34990  0.05750  0.86050  1.0000 0.1218765861
H   H628      1.0  0.41270  0.02110  0.77470  1.0000 0.1004571027
H   H629      1.0  0.27370  0.01230  0.78730  1.0000 0.1092298211
H   H630      1.0  0.37410  0.01830  0.73090  1.0000 0.1218765861
H   H631      1.0  0.37260  0.01240  0.68360  1.0000 0.1368367932
H   H632      1.0  0.32290  0.00390  0.68990  1.0000 0.1004571027
H   H633      1.0  0.29040  0.00980  0.91720  1.0000 0.1004571027
H   H634      1.0  0.20490  0.97870  0.98190  1.0000 0.1092298211
H   H635      1.0  0.19950  0.97790  0.93410  1.0000 0.1368367932
H   H636      1.0  0.24240  0.99140  0.87580  1.0000 0.1218765861
H   H637      1.0  0.17200  0.02840  0.04360  1.0000 0.1092298211
H   H638      1.0  0.12110  0.12510  0.98190  1.0000 0.1252415027
H   H639      1.0  0.17430  0.12090  0.93350  1.0000 0.1368367932
H   H640      1.0  0.22660  0.07280  0.94180  1.0000 0.1004571027
H   H641      1.0  0.04410  0.81310  0.45650  1.0000 0.1004571027
H   H642      1.0  0.06230  0.85570  0.40170  1.0000 0.1368367932
H   H643      1.0  0.05750  0.86050  0.34990  1.0000 0.1218765861
H   H644      1.0  0.02110  0.77470  0.41270  1.0000 0.1004571027
H   H645      1.0  0.01230  0.78730  0.27370  1.0000 0.1092298211
H   H646      1.0  0.01830  0.73090  0.37410  1.0000 0.1218765861
H   H647      1.0  0.01240  0.68360  0.37260  1.0000 0.1368367932
H   H648      1.0  0.00390  0.68990  0.32290  1.0000 0.1004571027
H   H649      1.0  0.00980  0.91720  0.29040  1.0000 0.1004571027
H   H650      1.0  0.97870  0.98190  0.20490  1.0000 0.1092298211
H   H651      1.0  0.97790  0.93410  0.19950  1.0000 0.1368367932
H   H652      1.0  0.99140  0.87580  0.24240  1.0000 0.1218765861
H   H653      1.0  0.02840  0.04360  0.17200  1.0000 0.1092298211
H   H654      1.0  0.12510  0.98190  0.12110  1.0000 0.1252415027
H   H655      1.0  0.12090  0.93350  0.17430  1.0000 0.1368367932
H   H656      1.0  0.07280  0.94180  0.22660  1.0000 0.1004571027
H   H657      1.0  0.45650  0.18630  0.04410  1.0000 0.1004571027
H   H658      1.0  0.40170  0.18030  0.06230  1.0000 0.1368367932
H   H659      1.0  0.34990  0.23210  0.05750  1.0000 0.1218765861
H   H660      1.0  0.41270  0.29150  0.02110  1.0000 0.1004571027
H   H661      1.0  0.27370  0.42670  0.01230  1.0000 0.1092298211
H   H662      1.0  0.37410  0.37670  0.01830  1.0000 0.1218765861
H   H663      1.0  0.37260  0.43140  0.01240  1.0000 0.1368367932
H   H664      1.0  0.32290  0.48330  0.00390  1.0000 0.1004571027
H   H665      1.0  0.29040  0.28260  0.00980  1.0000 0.1004571027
H   H666      1.0  0.20490  0.33450  0.97870  1.0000 0.1092298211
H   H667      1.0  0.19950  0.38850  0.97790  1.0000 0.1368367932
H   H668      1.0  0.24240  0.39040  0.99140  1.0000 0.1218765861
H   H669      1.0  0.17200  0.25600  0.02840  1.0000 0.1092298211
H   H670      1.0  0.12110  0.27190  0.12510  1.0000 0.1252415027
H   H671      1.0  0.17430  0.27130  0.12090  1.0000 0.1368367932
H   H672      1.0  0.22660  0.25880  0.07280  1.0000 0.1004571027
H   H673      1.0  0.81310  0.04410  0.18630  1.0000 0.1004571027
H   H674      1.0  0.85570  0.06230  0.18030  1.0000 0.1368367932
H   H675      1.0  0.86050  0.05750  0.23210  1.0000 0.1218765861
H   H676      1.0  0.77470  0.02110  0.29150  1.0000 0.1004571027
H   H677      1.0  0.78730  0.01230  0.42670  1.0000 0.1092298211
H   H678      1.0  0.73090  0.01830  0.37670  1.0000 0.1218765861
H   H679      1.0  0.68360  0.01240  0.43140  1.0000 0.1368367932
H   H680      1.0  0.68990  0.00390  0.48330  1.0000 0.1004571027
H   H681      1.0  0.91720  0.00980  0.28260  1.0000 0.1004571027
H   H682      1.0  0.98190  0.97870  0.33450  1.0000 0.1092298211
H   H683      1.0  0.93410  0.97790  0.38850  1.0000 0.1368367932
H   H684      1.0  0.87580  0.99140  0.39040  1.0000 0.1218765861
H   H685      1.0  0.04360  0.02840  0.25600  1.0000 0.1092298211
H   H686      1.0  0.98190  0.12510  0.27190  1.0000 0.1252415027
H   H687      1.0  0.93350  0.12090  0.27130  1.0000 0.1368367932
H   H688      1.0  0.94180  0.07280  0.25880  1.0000 0.1004571027
H   H689      1.0  0.18630  0.45650  0.81310  1.0000 0.1004571027
H   H690      1.0  0.18030  0.40170  0.85570  1.0000 0.1368367932
H   H691      1.0  0.23210  0.34990  0.86050  1.0000 0.1218765861
H   H692      1.0  0.29150  0.41270  0.77470  1.0000 0.1004571027
H   H693      1.0  0.42670  0.27370  0.78730  1.0000 0.1092298211
H   H694      1.0  0.37670  0.37410  0.73090  1.0000 0.1218765861
H   H695      1.0  0.43140  0.37260  0.68360  1.0000 0.1368367932
H   H696      1.0  0.48330  0.32290  0.68990  1.0000 0.1004571027
H   H697      1.0  0.28260  0.29040  0.91720  1.0000 0.1004571027
H   H698      1.0  0.33450  0.20490  0.98190  1.0000 0.1092298211
H   H699      1.0  0.38850  0.19950  0.93410  1.0000 0.1368367932
H   H700      1.0  0.39040  0.24240  0.87580  1.0000 0.1218765861
H   H701      1.0  0.25600  0.17200  0.04360  1.0000 0.1092298211
H   H702      1.0  0.27190  0.12110  0.98190  1.0000 0.1252415027
H   H703      1.0  0.27130  0.17430  0.93350  1.0000 0.1368367932
H   H704      1.0  0.25880  0.22660  0.94180  1.0000 0.1004571027
H   H705      1.0  0.18630  0.04410  0.45650  1.0000 0.1004571027
H   H706      1.0  0.18030  0.06230  0.40170  1.0000 0.1368367932
H   H707      1.0  0.23210  0.05750  0.34990  1.0000 0.1218765861
H   H708      1.0  0.29150  0.02110  0.41270  1.0000 0.1004571027
H   H709      1.0  0.42670  0.01230  0.27370  1.0000 0.1092298211
H   H710      1.0  0.37670  0.01830  0.37410  1.0000 0.1218765861
H   H711      1.0  0.43140  0.01240  0.37260  1.0000 0.1368367932
H   H712      1.0  0.48330  0.00390  0.32290  1.0000 0.1004571027
H   H713      1.0  0.28260  0.00980  0.29040  1.0000 0.1004571027
H   H714      1.0  0.33450  0.97870  0.20490  1.0000 0.1092298211
H   H715      1.0  0.38850  0.97790  0.19950  1.0000 0.1368367932
H   H716      1.0  0.39040  0.99140  0.24240  1.0000 0.1218765861
H   H717      1.0  0.25600  0.02840  0.17200  1.0000 0.1092298211
H   H718      1.0  0.27190  0.12510  0.12110  1.0000 0.1252415027
H   H719      1.0  0.27130  0.12090  0.17430  1.0000 0.1368367932
H   H720      1.0  0.25880  0.07280  0.22660  1.0000 0.1004571027
H   H721      1.0  0.81310  0.45650  0.04410  1.0000 0.1004571027
H   H722      1.0  0.85570  0.40170  0.06230  1.0000 0.1368367932
H   H723      1.0  0.86050  0.34990  0.05750  1.0000 0.1218765861
H   H724      1.0  0.77470  0.41270  0.02110  1.0000 0.1004571027
H   H725      1.0  0.78730  0.27370  0.01230  1.0000 0.1092298211
H   H726      1.0  0.73090  0.37410  0.01830  1.0000 0.1218765861
H   H727      1.0  0.68360  0.37260  0.01240  1.0000 0.1368367932
H   H728      1.0  0.68990  0.32290  0.00390  1.0000 0.1004571027
H   H729      1.0  0.91720  0.29040  0.00980  1.0000 0.1004571027
H   H730      1.0  0.98190  0.20490  0.97870  1.0000 0.1092298211
H   H731      1.0  0.93410  0.19950  0.97790  1.0000 0.1368367932
H   H732      1.0  0.87580  0.24240  0.99140  1.0000 0.1218765861
H   H733      1.0  0.04360  0.17200  0.02840  1.0000 0.1092298211
H   H734      1.0  0.98190  0.12110  0.12510  1.0000 0.1252415027
H   H735      1.0  0.93350  0.17430  0.12090  1.0000 0.1368367932
H   H736      1.0  0.94180  0.22660  0.07280  1.0000 0.1004571027
H   H737      1.0  0.45650  0.81310  0.18630  1.0000 0.1004571027
H   H738      1.0  0.40170  0.85570  0.18030  1.0000 0.1368367932
H   H739      1.0  0.34990  0.86050  0.23210  1.0000 0.1218765861
H   H740      1.0  0.41270  0.77470  0.29150  1.0000 0.1004571027
H   H741      1.0  0.27370  0.78730  0.42670  1.0000 0.1092298211
H   H742      1.0  0.37410  0.73090  0.37670  1.0000 0.1218765861
H   H743      1.0  0.37260  0.68360  0.43140  1.0000 0.1368367932
H   H744      1.0  0.32290  0.68990  0.48330  1.0000 0.1004571027
H   H745      1.0  0.29040  0.91720  0.28260  1.0000 0.1004571027
H   H746      1.0  0.20490  0.98190  0.33450  1.0000 0.1092298211
H   H747      1.0  0.19950  0.93410  0.38850  1.0000 0.1368367932
H   H748      1.0  0.24240  0.87580  0.39040  1.0000 0.1218765861
H   H749      1.0  0.17200  0.04360  0.25600  1.0000 0.1092298211
H   H750      1.0  0.12110  0.98190  0.27190  1.0000 0.1252415027
H   H751      1.0  0.17430  0.93350  0.27130  1.0000 0.1368367932
H   H752      1.0  0.22660  0.94180  0.25880  1.0000 0.1004571027
H   H753      1.0  0.04410  0.18630  0.81310  1.0000 0.1004571027
H   H754      1.0  0.06230  0.18030  0.85570  1.0000 0.1368367932
H   H755      1.0  0.05750  0.23210  0.86050  1.0000 0.1218765861
H   H756      1.0  0.02110  0.29150  0.77470  1.0000 0.1004571027
H   H757      1.0  0.01230  0.42670  0.78730  1.0000 0.1092298211
H   H758      1.0  0.01830  0.37670  0.73090  1.0000 0.1218765861
H   H759      1.0  0.01240  0.43140  0.68360  1.0000 0.1368367932
H   H760      1.0  0.00390  0.48330  0.68990  1.0000 0.1004571027
H   H761      1.0  0.00980  0.28260  0.91720  1.0000 0.1004571027
H   H762      1.0  0.97870  0.33450  0.98190  1.0000 0.1092298211
H   H763      1.0  0.97790  0.38850  0.93410  1.0000 0.1368367932
H   H764      1.0  0.99140  0.39040  0.87580  1.0000 0.1218765861
H   H765      1.0  0.02840  0.25600  0.04360  1.0000 0.1092298211
H   H766      1.0  0.12510  0.27190  0.98190  1.0000 0.1252415027
H   H767      1.0  0.12090  0.27130  0.93350  1.0000 0.1368367932
H   H768      1.0  0.07280  0.25880  0.94180  1.0000 0.1004571027
C   C1        1.0  0.22699  0.83611  0.47629  1.0000 0.2433098941
C   C2        1.0  0.31400  0.70758  0.54266  1.0000 0.0722078258
C   C3        1.0  0.33987  0.70371  0.55331  1.0000 -0.1364613329
C   C4        1.0  0.34268  0.73402  0.55078  1.0000 -0.06134746
C   C5        1.0  0.31807  0.76767  0.53777  1.0000 -0.0218085795
C   C6        1.0  0.29201  0.76867  0.52885  1.0000 0.059145129
C   C7        1.0  0.26596  0.92784  0.51188  1.0000 0.059145129
C   C8        1.0  0.26425  0.89645  0.51677  1.0000 -0.0250065033
C   C9        1.0  0.23288  0.89782  0.51600  1.0000 -0.06134746
C   C10       1.0  0.20549  0.93001  0.51191  1.0000 -0.1274336713
C   C11       1.0  0.20928  0.96106  0.50702  1.0000 0.0830249186
C   C12       1.0  0.29532  0.86226  0.51988  1.0000 0.3810974275
C   C13       1.0  0.32049  0.80195  0.53087  1.0000 0.3659435643
C   C14       1.0  0.35487  0.83381  0.51431  1.0000 0.3810974275
C   C15       1.0  0.39084  0.83584  0.50356  1.0000 -0.0218085795
C   C16       1.0  0.42066  0.80450  0.50322  1.0000 0.059145129
C   C17       1.0  0.45834  0.83478  0.48492  1.0000 0.0722078258
C   C18       1.0  0.42994  0.86716  0.48422  1.0000 -0.1274336713
C   C19       1.0  0.39546  0.86824  0.49282  1.0000 -0.0501697119
C   C20       1.0  0.44592  0.70420  0.55684  1.0000 0.2466005232
C   C21       1.0  0.52127  0.75853  0.54769  1.0000 0.054527964
C   C22       1.0  0.51853  0.76401  0.57659  1.0000 -0.014210653
C   C23       1.0  0.48473  0.76835  0.60473  1.0000 -0.06134746
C   C24       1.0  0.45663  0.76741  0.60251  1.0000 -0.1152145244
C   C25       1.0  0.46153  0.76071  0.57341  1.0000 0.0722078258
C   C26       1.0  0.55045  0.76439  0.57779  1.0000 0.3596194152
C   C27       1.0  0.83611  0.22699  0.96061  1.0000 0.2433098941
C   C28       1.0  0.70758  0.31400  0.93576  1.0000 0.0722078258
C   C29       1.0  0.70371  0.33987  0.90311  1.0000 -0.1364613329
C   C30       1.0  0.73402  0.34268  0.87252  1.0000 -0.06134746
C   C31       1.0  0.76767  0.31807  0.87649  1.0000 -0.0218085795
C   C32       1.0  0.76867  0.29201  0.91047  1.0000 0.059145129
C   C33       1.0  0.92784  0.26596  0.79432  1.0000 0.059145129
C   C34       1.0  0.89645  0.26425  0.82253  1.0000 -0.0218085795
C   C35       1.0  0.89782  0.23288  0.85330  1.0000 -0.06134746
C   C36       1.0  0.93001  0.20549  0.85259  1.0000 -0.1274336713
C   C37       1.0  0.96106  0.20928  0.82264  1.0000 0.0830249186
C   C38       1.0  0.86226  0.29532  0.82254  1.0000 0.3810974275
C   C39       1.0  0.80195  0.32049  0.84669  1.0000 0.3659435643
C   C40       1.0  0.83381  0.35487  0.79701  1.0000 0.3810974275
C   C41       1.0  0.83584  0.39084  0.76976  1.0000 -0.0218085795
C   C42       1.0  0.80450  0.42066  0.77162  1.0000 0.059145129
C   C43       1.0  0.83478  0.45834  0.72196  1.0000 0.0722078258
C   C44       1.0  0.86716  0.42994  0.71868  1.0000 -0.1274336713
C   C45       1.0  0.86824  0.39546  0.74348  1.0000 -0.0501697119
C   C46       1.0  0.70420  0.44592  0.79304  1.0000 0.2466005232
C   C47       1.0  0.75853  0.52127  0.67251  1.0000 0.054527964
C   C48       1.0  0.76401  0.51853  0.64087  1.0000 -0.014210653
C   C49       1.0  0.76835  0.48473  0.64219  1.0000 -0.06134746
C   C50       1.0  0.76741  0.45663  0.67345  1.0000 -0.1152145244
C   C51       1.0  0.76071  0.46153  0.70435  1.0000 0.0722078258
C   C52       1.0  0.76439  0.55045  0.60737  1.0000 0.3596194152
C   C53       1.0  0.47629  0.96061  0.22699  1.0000 0.2433098941
C   C54       1.0  0.54266  0.93576  0.31400  1.0000 0.0722078258
C   C55       1.0  0.55331  0.90311  0.33987  1.0000 -0.1364613329
C   C56       1.0  0.55078  0.87252  0.34268  1.0000 -0.06134746
C   C57       1.0  0.53777  0.87649  0.31807  1.0000 -0.0218085795
C   C58       1.0  0.52885  0.91047  0.29201  1.0000 0.059145129
C   C59       1.0  0.51188  0.79432  0.26596  1.0000 0.059145129
C   C60       1.0  0.51677  0.82253  0.26425  1.0000 -0.0250065033
C   C61       1.0  0.51600  0.85330  0.23288  1.0000 -0.06134746
C   C62       1.0  0.51191  0.85259  0.20549  1.0000 -0.1274336713
C   C63       1.0  0.50702  0.82264  0.20928  1.0000 0.0830249186
C   C64       1.0  0.51988  0.82254  0.29532  1.0000 0.3810974275
C   C65       1.0  0.53087  0.84669  0.32049  1.0000 0.3659435643
C   C66       1.0  0.51431  0.79701  0.35487  1.0000 0.3810974275
C   C67       1.0  0.50356  0.76976  0.39084  1.0000 -0.0218085795
C   C68       1.0  0.50322  0.77162  0.42066  1.0000 0.059145129
C   C69       1.0  0.48492  0.72196  0.45834  1.0000 0.0722078258
C   C70       1.0  0.48422  0.71868  0.42994  1.0000 -0.1274336713
C   C71       1.0  0.49282  0.74348  0.39546  1.0000 -0.0501697119
C   C72       1.0  0.55684  0.79304  0.44592  1.0000 0.2466005232
C   C73       1.0  0.54769  0.67251  0.52127  1.0000 0.054527964
C   C74       1.0  0.57659  0.64087  0.51853  1.0000 -0.014210653
C   C75       1.0  0.60473  0.64219  0.48473  1.0000 -0.06134746
C   C76       1.0  0.60251  0.67345  0.45663  1.0000 -0.1152145244
C   C77       1.0  0.57341  0.70435  0.46153  1.0000 0.0722078258
C   C78       1.0  0.57779  0.60737  0.55045  1.0000 0.3596194152
C   C79       1.0  0.96061  0.47629  0.83611  1.0000 0.2433098941
C   C80       1.0  0.93576  0.54266  0.70758  1.0000 0.0722078258
C   C81       1.0  0.90311  0.55331  0.70371  1.0000 -0.1364613329
C   C82       1.0  0.87252  0.55078  0.73402  1.0000 -0.06134746
C   C83       1.0  0.87649  0.53777  0.76767  1.0000 -0.0218085795
C   C84       1.0  0.91047  0.52885  0.76867  1.0000 0.059145129
C   C85       1.0  0.79432  0.51188  0.92784  1.0000 0.059145129
C   C86       1.0  0.82253  0.51677  0.89645  1.0000 -0.0218085795
C   C87       1.0  0.85330  0.51600  0.89782  1.0000 -0.06134746
C   C88       1.0  0.85259  0.51191  0.93001  1.0000 -0.1274336713
C   C89       1.0  0.82264  0.50702  0.96106  1.0000 0.0830249186
C   C90       1.0  0.82254  0.51988  0.86226  1.0000 0.3810974275
C   C91       1.0  0.84669  0.53087  0.80195  1.0000 0.3659435643
C   C92       1.0  0.79701  0.51431  0.83381  1.0000 0.3810974275
C   C93       1.0  0.76976  0.50356  0.83584  1.0000 -0.0218085795
C   C94       1.0  0.77162  0.50322  0.80450  1.0000 0.059145129
C   C95       1.0  0.72196  0.48492  0.83478  1.0000 0.0722078258
C   C96       1.0  0.71868  0.48422  0.86716  1.0000 -0.1274336713
C   C97       1.0  0.74348  0.49282  0.86824  1.0000 -0.0501697119
C   C98       1.0  0.79304  0.55684  0.70420  1.0000 0.2466005232
C   C99       1.0  0.67251  0.54769  0.75853  1.0000 0.054527964
C   C100      1.0  0.64087  0.57659  0.76401  1.0000 -0.014210653
C   C101      1.0  0.64219  0.60473  0.76835  1.0000 -0.06134746
C   C102      1.0  0.67345  0.60251  0.76741  1.0000 -0.1152145244
C   C103      1.0  0.70435  0.57341  0.76071  1.0000 0.0722078258
C   C104      1.0  0.60737  0.57779  0.76439  1.0000 0.3596194152
C   C105      1.0  0.47629  0.22699  0.83611  1.0000 0.2433098941
C   C106      1.0  0.54266  0.31400  0.70758  1.0000 0.0722078258
C   C107      1.0  0.55331  0.33987  0.70371  1.0000 -0.1364613329
C   C108      1.0  0.55078  0.34268  0.73402  1.0000 -0.06134746
C   C109      1.0  0.53777  0.31807  0.76767  1.0000 -0.0218085795
C   C110      1.0  0.52885  0.29201  0.76867  1.0000 0.059145129
C   C111      1.0  0.51188  0.26596  0.92784  1.0000 0.059145129
C   C112      1.0  0.51677  0.26425  0.89645  1.0000 -0.0218085795
C   C113      1.0  0.51600  0.23288  0.89782  1.0000 -0.06134746
C   C114      1.0  0.51191  0.20549  0.93001  1.0000 -0.1274336713
C   C115      1.0  0.50702  0.20928  0.96106  1.0000 0.0830249186
C   C116      1.0  0.51988  0.29532  0.86226  1.0000 0.3810974275
C   C117      1.0  0.53087  0.32049  0.80195  1.0000 0.3659435643
C   C118      1.0  0.51431  0.35487  0.83381  1.0000 0.3810974275
C   C119      1.0  0.50356  0.39084  0.83584  1.0000 -0.0218085795
C   C120      1.0  0.50322  0.42066  0.80450  1.0000 0.059145129
C   C121      1.0  0.48492  0.45834  0.83478  1.0000 0.0722078258
C   C122      1.0  0.48422  0.42994  0.86716  1.0000 -0.1274336713
C   C123      1.0  0.49282  0.39546  0.86824  1.0000 -0.0501697119
C   C124      1.0  0.55684  0.44592  0.70420  1.0000 0.2466005232
C   C125      1.0  0.54769  0.52127  0.75853  1.0000 0.054527964
C   C126      1.0  0.57659  0.51853  0.76401  1.0000 -0.014210653
C   C127      1.0  0.60473  0.48473  0.76835  1.0000 -0.06134746
C   C128      1.0  0.60251  0.45663  0.76741  1.0000 -0.1152145244
C   C129      1.0  0.57341  0.46153  0.76071  1.0000 0.0722078258
C   C130      1.0  0.57779  0.55045  0.76439  1.0000 0.3596194152
C   C131      1.0  0.96061  0.83611  0.22699  1.0000 0.2433098941
C   C132      1.0  0.93576  0.70758  0.31400  1.0000 0.0722078258
C   C133      1.0  0.90311  0.70371  0.33987  1.0000 -0.1364613329
C   C134      1.0  0.87252  0.73402  0.34268  1.0000 -0.06134746
C   C135      1.0  0.87649  0.76767  0.31807  1.0000 -0.0218085795
C   C136      1.0  0.91047  0.76867  0.29201  1.0000 0.059145129
C   C137      1.0  0.79432  0.92784  0.26596  1.0000 0.059145129
C   C138      1.0  0.82253  0.89645  0.26425  1.0000 -0.0218085795
C   C139      1.0  0.85330  0.89782  0.23288  1.0000 -0.06134746
C   C140      1.0  0.85259  0.93001  0.20549  1.0000 -0.1274336713
C   C141      1.0  0.82264  0.96106  0.20928  1.0000 0.0830249186
C   C142      1.0  0.82254  0.86226  0.29532  1.0000 0.3810974275
C   C143      1.0  0.84669  0.80195  0.32049  1.0000 0.3659435643
C   C144      1.0  0.79701  0.83381  0.35487  1.0000 0.3810974275
C   C145      1.0  0.76976  0.83584  0.39084  1.0000 -0.0218085795
C   C146      1.0  0.77162  0.80450  0.42066  1.0000 0.059145129
C   C147      1.0  0.72196  0.83478  0.45834  1.0000 0.0722078258
C   C148      1.0  0.71868  0.86716  0.42994  1.0000 -0.1274336713
C   C149      1.0  0.74348  0.86824  0.39546  1.0000 -0.0501697119
C   C150      1.0  0.79304  0.70420  0.44592  1.0000 0.2466005232
C   C151      1.0  0.67251  0.75853  0.52127  1.0000 0.054527964
C   C152      1.0  0.64087  0.76401  0.51853  1.0000 -0.014210653
C   C153      1.0  0.64219  0.76835  0.48473  1.0000 -0.06134746
C   C154      1.0  0.67345  0.76741  0.45663  1.0000 -0.1152145244
C   C155      1.0  0.70435  0.76071  0.46153  1.0000 0.0722078258
C   C156      1.0  0.60737  0.76439  0.55045  1.0000 0.3596194152
C   C157      1.0  0.22699  0.47629  0.96061  1.0000 0.2433098941
C   C158      1.0  0.31400  0.54266  0.93576  1.0000 0.0722078258
C   C159      1.0  0.33987  0.55331  0.90311  1.0000 -0.1364613329
C   C160      1.0  0.34268  0.55078  0.87252  1.0000 -0.06134746
C   C161      1.0  0.31807  0.53777  0.87649  1.0000 -0.0218085795
C   C162      1.0  0.29201  0.52885  0.91047  1.0000 0.059145129
C   C163      1.0  0.26596  0.51188  0.79432  1.0000 0.059145129
C   C164      1.0  0.26425  0.51677  0.82253  1.0000 -0.0250065033
C   C165      1.0  0.23288  0.51600  0.85330  1.0000 -0.06134746
C   C166      1.0  0.20549  0.51191  0.85259  1.0000 -0.1274336713
C   C167      1.0  0.20928  0.50702  0.82264  1.0000 0.0830249186
C   C168      1.0  0.29532  0.51988  0.82254  1.0000 0.3810974275
C   C169      1.0  0.32049  0.53087  0.84669  1.0000 0.3659435643
C   C170      1.0  0.35487  0.51431  0.79701  1.0000 0.3810974275
C   C171      1.0  0.39084  0.50356  0.76976  1.0000 -0.0218085795
C   C172      1.0  0.42066  0.50322  0.77162  1.0000 0.059145129
C   C173      1.0  0.45834  0.48492  0.72196  1.0000 0.0722078258
C   C174      1.0  0.42994  0.48422  0.71868  1.0000 -0.1274336713
C   C175      1.0  0.39546  0.49282  0.74348  1.0000 -0.0501697119
C   C176      1.0  0.44592  0.55684  0.79304  1.0000 0.2466005232
C   C177      1.0  0.52127  0.54769  0.67251  1.0000 0.054527964
C   C178      1.0  0.51853  0.57659  0.64087  1.0000 -0.014210653
C   C179      1.0  0.48473  0.60473  0.64219  1.0000 -0.06134746
C   C180      1.0  0.45663  0.60251  0.67345  1.0000 -0.1152145244
C   C181      1.0  0.46153  0.57341  0.70435  1.0000 0.0722078258
C   C182      1.0  0.55045  0.57779  0.60737  1.0000 0.3596194152
C   C183      1.0  0.83611  0.96061  0.47629  1.0000 0.2433098941
C   C184      1.0  0.70758  0.93576  0.54266  1.0000 0.0722078258
C   C185      1.0  0.70371  0.90311  0.55331  1.0000 -0.1364613329
C   C186      1.0  0.73402  0.87252  0.55078  1.0000 -0.06134746
C   C187      1.0  0.76767  0.87649  0.53777  1.0000 -0.0218085795
C   C188      1.0  0.76867  0.91047  0.52885  1.0000 0.059145129
C   C189      1.0  0.92784  0.79432  0.51188  1.0000 0.059145129
C   C190      1.0  0.89645  0.82253  0.51677  1.0000 -0.0218085795
C   C191      1.0  0.89782  0.85330  0.51600  1.0000 -0.06134746
C   C192      1.0  0.93001  0.85259  0.51191  1.0000 -0.1274336713
C   C193      1.0  0.96106  0.82264  0.50702  1.0000 0.0830249186
C   C194      1.0  0.86226  0.82254  0.51988  1.0000 0.3810974275
C   C195      1.0  0.80195  0.84669  0.53087  1.0000 0.3659435643
C   C196      1.0  0.83381  0.79701  0.51431  1.0000 0.3810974275
C   C197      1.0  0.83584  0.76976  0.50356  1.0000 -0.0218085795
C   C198      1.0  0.80450  0.77162  0.50322  1.0000 0.059145129
C   C199      1.0  0.83478  0.72196  0.48492  1.0000 0.0722078258
C   C200      1.0  0.86716  0.71868  0.48422  1.0000 -0.1274336713
C   C201      1.0  0.86824  0.74348  0.49282  1.0000 -0.0501697119
C   C202      1.0  0.70420  0.79304  0.55684  1.0000 0.2466005232
C   C203      1.0  0.75853  0.67251  0.54769  1.0000 0.054527964
C   C204      1.0  0.76401  0.64087  0.57659  1.0000 -0.014210653
C   C205      1.0  0.76835  0.64219  0.60473  1.0000 -0.06134746
C   C206      1.0  0.76741  0.67345  0.60251  1.0000 -0.1152145244
C   C207      1.0  0.76071  0.70435  0.57341  1.0000 0.0722078258
C   C208      1.0  0.76439  0.60737  0.57779  1.0000 0.3596194152
C   C209      1.0  0.83611  0.47629  0.22699  1.0000 0.2433098941
C   C210      1.0  0.70758  0.54266  0.31400  1.0000 0.0722078258
C   C211      1.0  0.70371  0.55331  0.33987  1.0000 -0.1364613329
C   C212      1.0  0.73402  0.55078  0.34268  1.0000 -0.06134746
C   C213      1.0  0.76767  0.53777  0.31807  1.0000 -0.0218085795
C   C214      1.0  0.76867  0.52885  0.29201  1.0000 0.059145129
C   C215      1.0  0.92784  0.51188  0.26596  1.0000 0.059145129
C   C216      1.0  0.89645  0.51677  0.26425  1.0000 -0.0218085795
C   C217      1.0  0.89782  0.51600  0.23288  1.0000 -0.06134746
C   C218      1.0  0.93001  0.51191  0.20549  1.0000 -0.1274336713
C   C219      1.0  0.96106  0.50702  0.20928  1.0000 0.0830249186
C   C220      1.0  0.86226  0.51988  0.29532  1.0000 0.3810974275
C   C221      1.0  0.80195  0.53087  0.32049  1.0000 0.3659435643
C   C222      1.0  0.83381  0.51431  0.35487  1.0000 0.3810974275
C   C223      1.0  0.83584  0.50356  0.39084  1.0000 -0.0218085795
C   C224      1.0  0.80450  0.50322  0.42066  1.0000 0.059145129
C   C225      1.0  0.83478  0.48492  0.45834  1.0000 0.0722078258
C   C226      1.0  0.86716  0.48422  0.42994  1.0000 -0.1274336713
C   C227      1.0  0.86824  0.49282  0.39546  1.0000 -0.0501697119
C   C228      1.0  0.70420  0.55684  0.44592  1.0000 0.2466005232
C   C229      1.0  0.75853  0.54769  0.52127  1.0000 0.054527964
C   C230      1.0  0.76401  0.57659  0.51853  1.0000 -0.014210653
C   C231      1.0  0.76835  0.60473  0.48473  1.0000 -0.06134746
C   C232      1.0  0.76741  0.60251  0.45663  1.0000 -0.1147651453
C   C233      1.0  0.76071  0.57341  0.46153  1.0000 0.0722078258
C   C234      1.0  0.76439  0.57779  0.55045  1.0000 0.3596194152
C   C235      1.0  0.22699  0.96061  0.83611  1.0000 0.2433098941
C   C236      1.0  0.31400  0.93576  0.70758  1.0000 0.0722078258
C   C237      1.0  0.33987  0.90311  0.70371  1.0000 -0.1364613329
C   C238      1.0  0.34268  0.87252  0.73402  1.0000 -0.06134746
C   C239      1.0  0.31807  0.87649  0.76767  1.0000 -0.0218085795
C   C240      1.0  0.29201  0.91047  0.76867  1.0000 0.059145129
C   C241      1.0  0.26596  0.79432  0.92784  1.0000 0.059145129
C   C242      1.0  0.26425  0.82253  0.89645  1.0000 -0.0250065033
C   C243      1.0  0.23288  0.85330  0.89782  1.0000 -0.06134746
C   C244      1.0  0.20549  0.85259  0.93001  1.0000 -0.1274336713
C   C245      1.0  0.20928  0.82264  0.96106  1.0000 0.0830249186
C   C246      1.0  0.29532  0.82254  0.86226  1.0000 0.3810974275
C   C247      1.0  0.32049  0.84669  0.80195  1.0000 0.3659435643
C   C248      1.0  0.35487  0.79701  0.83381  1.0000 0.3810974275
C   C249      1.0  0.39084  0.76976  0.83584  1.0000 -0.0218085795
C   C250      1.0  0.42066  0.77162  0.80450  1.0000 0.059145129
C   C251      1.0  0.45834  0.72196  0.83478  1.0000 0.0722078258
C   C252      1.0  0.42994  0.71868  0.86716  1.0000 -0.1274336713
C   C253      1.0  0.39546  0.74348  0.86824  1.0000 -0.0501697119
C   C254      1.0  0.44592  0.79304  0.70420  1.0000 0.2466005232
C   C255      1.0  0.52127  0.67251  0.75853  1.0000 0.054527964
C   C256      1.0  0.51853  0.64087  0.76401  1.0000 -0.014210653
C   C257      1.0  0.48473  0.64219  0.76835  1.0000 -0.06134746
C   C258      1.0  0.45663  0.67345  0.76741  1.0000 -0.1152145244
C   C259      1.0  0.46153  0.70435  0.76071  1.0000 0.0722078258
C   C260      1.0  0.55045  0.60737  0.76439  1.0000 0.3596194152
C   C261      1.0  0.96061  0.22699  0.47629  1.0000 0.2433098941
C   C262      1.0  0.93576  0.31400  0.54266  1.0000 0.0722078258
C   C263      1.0  0.90311  0.33987  0.55331  1.0000 -0.1364613329
C   C264      1.0  0.87252  0.34268  0.55078  1.0000 -0.06134746
C   C265      1.0  0.87649  0.31807  0.53777  1.0000 -0.0218085795
C   C266      1.0  0.91047  0.29201  0.52885  1.0000 0.059145129
C   C267      1.0  0.79432  0.26596  0.51188  1.0000 0.059145129
C   C268      1.0  0.82253  0.26425  0.51677  1.0000 -0.0218085795
C   C269      1.0  0.85330  0.23288  0.51600  1.0000 -0.06134746
C   C270      1.0  0.85259  0.20549  0.51191  1.0000 -0.1274336713
C   C271      1.0  0.82264  0.20928  0.50702  1.0000 0.0830249186
C   C272      1.0  0.82254  0.29532  0.51988  1.0000 0.3810974275
C   C273      1.0  0.84669  0.32049  0.53087  1.0000 0.3659435643
C   C274      1.0  0.79701  0.35487  0.51431  1.0000 0.3810974275
C   C275      1.0  0.76976  0.39084  0.50356  1.0000 -0.0218085795
C   C276      1.0  0.77162  0.42066  0.50322  1.0000 0.059145129
C   C277      1.0  0.72196  0.45834  0.48492  1.0000 0.0722078258
C   C278      1.0  0.71868  0.42994  0.48422  1.0000 -0.1274336713
C   C279      1.0  0.74348  0.39546  0.49282  1.0000 -0.0501697119
C   C280      1.0  0.79304  0.44592  0.55684  1.0000 0.2466005232
C   C281      1.0  0.67251  0.52127  0.54769  1.0000 0.054527964
C   C282      1.0  0.64087  0.51853  0.57659  1.0000 -0.014210653
C   C283      1.0  0.64219  0.48473  0.60473  1.0000 -0.06134746
C   C284      1.0  0.67345  0.45663  0.60251  1.0000 -0.1152145244
C   C285      1.0  0.70435  0.46153  0.57341  1.0000 0.0722078258
C   C286      1.0  0.60737  0.55045  0.57779  1.0000 0.3596194152
C   C287      1.0  0.47629  0.83611  0.96061  1.0000 0.2433098941
C   C288      1.0  0.54266  0.70758  0.93576  1.0000 0.0722078258
C   C289      1.0  0.55331  0.70371  0.90311  1.0000 -0.1364613329
C   C290      1.0  0.55078  0.73402  0.87252  1.0000 -0.06134746
C   C291      1.0  0.53777  0.76767  0.87649  1.0000 -0.0218085795
C   C292      1.0  0.52885  0.76867  0.91047  1.0000 0.059145129
C   C293      1.0  0.51188  0.92784  0.79432  1.0000 0.059145129
C   C294      1.0  0.51677  0.89645  0.82253  1.0000 -0.0218085795
C   C295      1.0  0.51600  0.89782  0.85330  1.0000 -0.06134746
C   C296      1.0  0.51191  0.93001  0.85259  1.0000 -0.1274336713
C   C297      1.0  0.50702  0.96106  0.82264  1.0000 0.0830249186
C   C298      1.0  0.51988  0.86226  0.82254  1.0000 0.3810974275
C   C299      1.0  0.53087  0.80195  0.84669  1.0000 0.3659435643
C   C300      1.0  0.51431  0.83381  0.79701  1.0000 0.3810974275
C   C301      1.0  0.50356  0.83584  0.76976  1.0000 -0.0218085795
C   C302      1.0  0.50322  0.80450  0.77162  1.0000 0.059145129
C   C303      1.0  0.48492  0.83478  0.72196  1.0000 0.0722078258
C   C304      1.0  0.48422  0.86716  0.71868  1.0000 -0.1274336713
C   C305      1.0  0.49282  0.86824  0.74348  1.0000 -0.0501697119
C   C306      1.0  0.55684  0.70420  0.79304  1.0000 0.2466005232
C   C307      1.0  0.54769  0.75853  0.67251  1.0000 0.054527964
C   C308      1.0  0.57659  0.76401  0.64087  1.0000 -0.014210653
C   C309      1.0  0.60473  0.76835  0.64219  1.0000 -0.06134746
C   C310      1.0  0.60251  0.76741  0.67345  1.0000 -0.1152145244
C   C311      1.0  0.57341  0.76071  0.70435  1.0000 0.0722078258
C   C312      1.0  0.57779  0.76439  0.60737  1.0000 0.3596194152
C   C313      1.0  0.27301  0.66389  0.53939  1.0000 0.2433098941
C   C314      1.0  0.18600  0.79242  0.56424  1.0000 0.0722078258
C   C315      1.0  0.16013  0.79629  0.59689  1.0000 -0.1364613329
C   C316      1.0  0.15732  0.76598  0.62748  1.0000 -0.06134746
C   C317      1.0  0.18193  0.73233  0.62351  1.0000 -0.0218085795
C   C318      1.0  0.20799  0.73133  0.58953  1.0000 0.059145129
C   C319      1.0  0.23404  0.57216  0.70568  1.0000 0.059145129
C   C320      1.0  0.23575  0.60355  0.67747  1.0000 -0.0218085795
C   C321      1.0  0.26712  0.60218  0.64670  1.0000 -0.06134746
C   C322      1.0  0.29451  0.56999  0.64741  1.0000 -0.1274336713
C   C323      1.0  0.29072  0.53894  0.67736  1.0000 0.0830249186
C   C324      1.0  0.20468  0.63774  0.67746  1.0000 0.3810974275
C   C325      1.0  0.17951  0.69805  0.65331  1.0000 0.3659435643
C   C326      1.0  0.14513  0.66619  0.70299  1.0000 0.3810974275
C   C327      1.0  0.10916  0.66416  0.73024  1.0000 -0.0218085795
C   C328      1.0  0.07934  0.69550  0.72838  1.0000 0.059145129
C   C329      1.0  0.04166  0.66522  0.77804  1.0000 0.0722078258
C   C330      1.0  0.07006  0.63284  0.78132  1.0000 -0.1274336713
C   C331      1.0  0.10454  0.63176  0.75652  1.0000 -0.0501697119
C   C332      1.0  0.05408  0.79580  0.70696  1.0000 0.2466005232
C   C333      1.0  0.97873  0.74147  0.82749  1.0000 0.054527964
C   C334      1.0  0.98147  0.73599  0.85913  1.0000 -0.014210653
C   C335      1.0  0.01527  0.73165  0.85781  1.0000 -0.06134746
C   C336      1.0  0.04337  0.73259  0.82655  1.0000 -0.1152145244
C   C337      1.0  0.03847  0.73929  0.79565  1.0000 0.0722078258
C   C338      1.0  0.94955  0.73561  0.89263  1.0000 0.3596194152
C   C339      1.0  0.66389  0.27301  0.02371  1.0000 0.2433098941
C   C340      1.0  0.79242  0.18600  0.95734  1.0000 0.0722078258
C   C341      1.0  0.79629  0.16013  0.94669  1.0000 -0.1364613329
C   C342      1.0  0.76598  0.15732  0.94922  1.0000 -0.06134746
C   C343      1.0  0.73233  0.18193  0.96223  1.0000 -0.0218085795
C   C344      1.0  0.73133  0.20799  0.97115  1.0000 0.059145129
C   C345      1.0  0.57216  0.23404  0.98812  1.0000 0.059145129
C   C346      1.0  0.60355  0.23575  0.98323  1.0000 -0.0218085795
C   C347      1.0  0.60218  0.26712  0.98400  1.0000 -0.06134746
C   C348      1.0  0.56999  0.29451  0.98809  1.0000 -0.1274336713
C   C349      1.0  0.53894  0.29072  0.99298  1.0000 0.0830249186
C   C350      1.0  0.63774  0.20468  0.98012  1.0000 0.3810974275
C   C351      1.0  0.69805  0.17951  0.96913  1.0000 0.3659435643
C   C352      1.0  0.66619  0.14513  0.98569  1.0000 0.3810974275
C   C353      1.0  0.66416  0.10916  0.99644  1.0000 -0.0218085795
C   C354      1.0  0.69550  0.07934  0.99678  1.0000 0.059145129
C   C355      1.0  0.66522  0.04166  0.01508  1.0000 0.0722078258
C   C356      1.0  0.63284  0.07006  0.01578  1.0000 -0.1274336713
C   C357      1.0  0.63176  0.10454  0.00718  1.0000 -0.0501697119
C   C358      1.0  0.79580  0.05408  0.94316  1.0000 0.2466005232
C   C359      1.0  0.74147  0.97873  0.95231  1.0000 0.054527964
C   C360      1.0  0.73599  0.98147  0.92341  1.0000 -0.014210653
C   C361      1.0  0.73165  0.01527  0.89527  1.0000 -0.06134746
C   C362      1.0  0.73259  0.04337  0.89749  1.0000 -0.1152145244
C   C363      1.0  0.73929  0.03847  0.92659  1.0000 0.0722078258
C   C364      1.0  0.73561  0.94955  0.92221  1.0000 0.3596194152
C   C365      1.0  0.02371  0.53939  0.66389  1.0000 0.2433098941
C   C366      1.0  0.95734  0.56424  0.79242  1.0000 0.0722078258
C   C367      1.0  0.94669  0.59689  0.79629  1.0000 -0.1364613329
C   C368      1.0  0.94922  0.62748  0.76598  1.0000 -0.06134746
C   C369      1.0  0.96223  0.62351  0.73233  1.0000 -0.0218085795
C   C370      1.0  0.97115  0.58953  0.73133  1.0000 0.059145129
C   C371      1.0  0.98812  0.70568  0.57216  1.0000 0.059145129
C   C372      1.0  0.98323  0.67747  0.60355  1.0000 -0.0218085795
C   C373      1.0  0.98400  0.64670  0.60218  1.0000 -0.06134746
C   C374      1.0  0.98809  0.64741  0.56999  1.0000 -0.1274336713
C   C375      1.0  0.99298  0.67736  0.53894  1.0000 0.0830249186
C   C376      1.0  0.98012  0.67746  0.63774  1.0000 0.3810974275
C   C377      1.0  0.96913  0.65331  0.69805  1.0000 0.3659435643
C   C378      1.0  0.98569  0.70299  0.66619  1.0000 0.3810974275
C   C379      1.0  0.99644  0.73024  0.66416  1.0000 -0.0218085795
C   C380      1.0  0.99678  0.72838  0.69550  1.0000 0.059145129
C   C381      1.0  0.01508  0.77804  0.66522  1.0000 0.0722078258
C   C382      1.0  0.01578  0.78132  0.63284  1.0000 -0.1274336713
C   C383      1.0  0.00718  0.75652  0.63176  1.0000 -0.0501697119
C   C384      1.0  0.94316  0.70696  0.79580  1.0000 0.2466005232
C   C385      1.0  0.95231  0.82749  0.74147  1.0000 0.054527964
C   C386      1.0  0.92341  0.85913  0.73599  1.0000 -0.014210653
C   C387      1.0  0.89527  0.85781  0.73165  1.0000 -0.06134746
C   C388      1.0  0.89749  0.82655  0.73259  1.0000 -0.1152145244
C   C389      1.0  0.92659  0.79565  0.73929  1.0000 0.0722078258
C   C390      1.0  0.92221  0.89263  0.73561  1.0000 0.3596194152
C   C391      1.0  0.53939  0.02371  0.27301  1.0000 0.2433098941
C   C392      1.0  0.56424  0.95734  0.18600  1.0000 0.0722078258
C   C393      1.0  0.59689  0.94669  0.16013  1.0000 -0.1364613329
C   C394      1.0  0.62748  0.94922  0.15732  1.0000 -0.06134746
C   C395      1.0  0.62351  0.96223  0.18193  1.0000 -0.0218085795
C   C396      1.0  0.58953  0.97115  0.20799  1.0000 0.059145129
C   C397      1.0  0.70568  0.98812  0.23404  1.0000 0.059145129
C   C398      1.0  0.67747  0.98323  0.23575  1.0000 -0.0218085795
C   C399      1.0  0.64670  0.98400  0.26712  1.0000 -0.06134746
C   C400      1.0  0.64741  0.98809  0.29451  1.0000 -0.1274336713
C   C401      1.0  0.67736  0.99298  0.29072  1.0000 0.0830249186
C   C402      1.0  0.67746  0.98012  0.20468  1.0000 0.3810974275
C   C403      1.0  0.65331  0.96913  0.17951  1.0000 0.3659435643
C   C404      1.0  0.70299  0.98569  0.14513  1.0000 0.3810974275
C   C405      1.0  0.73024  0.99644  0.10916  1.0000 -0.0218085795
C   C406      1.0  0.72838  0.99678  0.07934  1.0000 0.059145129
C   C407      1.0  0.77804  0.01508  0.04166  1.0000 0.0722078258
C   C408      1.0  0.78132  0.01578  0.07006  1.0000 -0.1274336713
C   C409      1.0  0.75652  0.00718  0.10454  1.0000 -0.0501697119
C   C410      1.0  0.70696  0.94316  0.05408  1.0000 0.2466005232
C   C411      1.0  0.82749  0.95231  0.97873  1.0000 0.054527964
C   C412      1.0  0.85913  0.92341  0.98147  1.0000 -0.014210653
C   C413      1.0  0.85781  0.89527  0.01527  1.0000 -0.06134746
C   C414      1.0  0.82655  0.89749  0.04337  1.0000 -0.1147651453
C   C415      1.0  0.79565  0.92659  0.03847  1.0000 0.0722078258
C   C416      1.0  0.89263  0.92221  0.94955  1.0000 0.3596194152
C   C417      1.0  0.02371  0.27301  0.53939  1.0000 0.2433098941
C   C418      1.0  0.95734  0.18600  0.56424  1.0000 0.0722078258
C   C419      1.0  0.94669  0.16013  0.59689  1.0000 -0.1364613329
C   C420      1.0  0.94922  0.15732  0.62748  1.0000 -0.06134746
C   C421      1.0  0.96223  0.18193  0.62351  1.0000 -0.0218085795
C   C422      1.0  0.97115  0.20799  0.58953  1.0000 0.059145129
C   C423      1.0  0.98812  0.23404  0.70568  1.0000 0.059145129
C   C424      1.0  0.98323  0.23575  0.67747  1.0000 -0.0218085795
C   C425      1.0  0.98400  0.26712  0.64670  1.0000 -0.06134746
C   C426      1.0  0.98809  0.29451  0.64741  1.0000 -0.1274336713
C   C427      1.0  0.99298  0.29072  0.67736  1.0000 0.0830249186
C   C428      1.0  0.98012  0.20468  0.67746  1.0000 0.3810974275
C   C429      1.0  0.96913  0.17951  0.65331  1.0000 0.3659435643
C   C430      1.0  0.98569  0.14513  0.70299  1.0000 0.3810974275
C   C431      1.0  0.99644  0.10916  0.73024  1.0000 -0.0218085795
C   C432      1.0  0.99678  0.07934  0.72838  1.0000 0.059145129
C   C433      1.0  0.01508  0.04166  0.77804  1.0000 0.0722078258
C   C434      1.0  0.01578  0.07006  0.78132  1.0000 -0.1274336713
C   C435      1.0  0.00718  0.10454  0.75652  1.0000 -0.0501697119
C   C436      1.0  0.94316  0.05408  0.70696  1.0000 0.2466005232
C   C437      1.0  0.95231  0.97873  0.82749  1.0000 0.054527964
C   C438      1.0  0.92341  0.98147  0.85913  1.0000 -0.014210653
C   C439      1.0  0.89527  0.01527  0.85781  1.0000 -0.06134746
C   C440      1.0  0.89749  0.04337  0.82655  1.0000 -0.1147651453
C   C441      1.0  0.92659  0.03847  0.79565  1.0000 0.0722078258
C   C442      1.0  0.92221  0.94955  0.89263  1.0000 0.3596194152
C   C443      1.0  0.53939  0.66389  0.02371  1.0000 0.2433098941
C   C444      1.0  0.56424  0.79242  0.95734  1.0000 0.0722078258
C   C445      1.0  0.59689  0.79629  0.94669  1.0000 -0.1364613329
C   C446      1.0  0.62748  0.76598  0.94922  1.0000 -0.06134746
C   C447      1.0  0.62351  0.73233  0.96223  1.0000 -0.0218085795
C   C448      1.0  0.58953  0.73133  0.97115  1.0000 0.059145129
C   C449      1.0  0.70568  0.57216  0.98812  1.0000 0.059145129
C   C450      1.0  0.67747  0.60355  0.98323  1.0000 -0.0218085795
C   C451      1.0  0.64670  0.60218  0.98400  1.0000 -0.06134746
C   C452      1.0  0.64741  0.56999  0.98809  1.0000 -0.1274336713
C   C453      1.0  0.67736  0.53894  0.99298  1.0000 0.0830249186
C   C454      1.0  0.67746  0.63774  0.98012  1.0000 0.3810974275
C   C455      1.0  0.65331  0.69805  0.96913  1.0000 0.3659435643
C   C456      1.0  0.70299  0.66619  0.98569  1.0000 0.3810974275
C   C457      1.0  0.73024  0.66416  0.99644  1.0000 -0.0218085795
C   C458      1.0  0.72838  0.69550  0.99678  1.0000 0.059145129
C   C459      1.0  0.77804  0.66522  0.01508  1.0000 0.0722078258
C   C460      1.0  0.78132  0.63284  0.01578  1.0000 -0.1274336713
C   C461      1.0  0.75652  0.63176  0.00718  1.0000 -0.0501697119
C   C462      1.0  0.70696  0.79580  0.94316  1.0000 0.2466005232
C   C463      1.0  0.82749  0.74147  0.95231  1.0000 0.054527964
C   C464      1.0  0.85913  0.73599  0.92341  1.0000 -0.014210653
C   C465      1.0  0.85781  0.73165  0.89527  1.0000 -0.06134746
C   C466      1.0  0.82655  0.73259  0.89749  1.0000 -0.1152145244
C   C467      1.0  0.79565  0.73929  0.92659  1.0000 0.0722078258
C   C468      1.0  0.89263  0.73561  0.92221  1.0000 0.3596194152
C   C469      1.0  0.27301  0.02371  0.66389  1.0000 0.2433098941
C   C470      1.0  0.18600  0.95734  0.79242  1.0000 0.0722078258
C   C471      1.0  0.16013  0.94669  0.79629  1.0000 -0.1364613329
C   C472      1.0  0.15732  0.94922  0.76598  1.0000 -0.06134746
C   C473      1.0  0.18193  0.96223  0.73233  1.0000 -0.0218085795
C   C474      1.0  0.20799  0.97115  0.73133  1.0000 0.059145129
C   C475      1.0  0.23404  0.98812  0.57216  1.0000 0.059145129
C   C476      1.0  0.23575  0.98323  0.60355  1.0000 -0.0250065033
C   C477      1.0  0.26712  0.98400  0.60218  1.0000 -0.06134746
C   C478      1.0  0.29451  0.98809  0.56999  1.0000 -0.1274336713
C   C479      1.0  0.29072  0.99298  0.53894  1.0000 0.0830249186
C   C480      1.0  0.20468  0.98012  0.63774  1.0000 0.3810974275
C   C481      1.0  0.17951  0.96913  0.69805  1.0000 0.3659435643
C   C482      1.0  0.14513  0.98569  0.66619  1.0000 0.3810974275
C   C483      1.0  0.10916  0.99644  0.66416  1.0000 -0.0218085795
C   C484      1.0  0.07934  0.99678  0.69550  1.0000 0.059145129
C   C485      1.0  0.04166  0.01508  0.66522  1.0000 0.0722078258
C   C486      1.0  0.07006  0.01578  0.63284  1.0000 -0.1274336713
C   C487      1.0  0.10454  0.00718  0.63176  1.0000 -0.0501697119
C   C488      1.0  0.05408  0.94316  0.79580  1.0000 0.2466005232
C   C489      1.0  0.97873  0.95231  0.74147  1.0000 0.054527964
C   C490      1.0  0.98147  0.92341  0.73599  1.0000 -0.014210653
C   C491      1.0  0.01527  0.89527  0.73165  1.0000 -0.06134746
C   C492      1.0  0.04337  0.89749  0.73259  1.0000 -0.1152145244
C   C493      1.0  0.03847  0.92659  0.73929  1.0000 0.0722078258
C   C494      1.0  0.94955  0.92221  0.73561  1.0000 0.3596194152
C   C495      1.0  0.66389  0.53939  0.27301  1.0000 0.2433098941
C   C496      1.0  0.79242  0.56424  0.18600  1.0000 0.0722078258
C   C497      1.0  0.79629  0.59689  0.16013  1.0000 -0.1364613329
C   C498      1.0  0.76598  0.62748  0.15732  1.0000 -0.06134746
C   C499      1.0  0.73233  0.62351  0.18193  1.0000 -0.0218085795
C   C500      1.0  0.73133  0.58953  0.20799  1.0000 0.059145129
C   C501      1.0  0.57216  0.70568  0.23404  1.0000 0.059145129
C   C502      1.0  0.60355  0.67747  0.23575  1.0000 -0.0218085795
C   C503      1.0  0.60218  0.64670  0.26712  1.0000 -0.06134746
C   C504      1.0  0.56999  0.64741  0.29451  1.0000 -0.1274336713
C   C505      1.0  0.53894  0.67736  0.29072  1.0000 0.0830249186
C   C506      1.0  0.63774  0.67746  0.20468  1.0000 0.3810974275
C   C507      1.0  0.69805  0.65331  0.17951  1.0000 0.3659435643
C   C508      1.0  0.66619  0.70299  0.14513  1.0000 0.3810974275
C   C509      1.0  0.66416  0.73024  0.10916  1.0000 -0.0218085795
C   C510      1.0  0.69550  0.72838  0.07934  1.0000 0.059145129
C   C511      1.0  0.66522  0.77804  0.04166  1.0000 0.0722078258
C   C512      1.0  0.63284  0.78132  0.07006  1.0000 -0.1274336713
C   C513      1.0  0.63176  0.75652  0.10454  1.0000 -0.0501697119
C   C514      1.0  0.79580  0.70696  0.05408  1.0000 0.2466005232
C   C515      1.0  0.74147  0.82749  0.97873  1.0000 0.054527964
C   C516      1.0  0.73599  0.85913  0.98147  1.0000 -0.014210653
C   C517      1.0  0.73165  0.85781  0.01527  1.0000 -0.06134746
C   C518      1.0  0.73259  0.82655  0.04337  1.0000 -0.1147651453
C   C519      1.0  0.73929  0.79565  0.03847  1.0000 0.0722078258
C   C520      1.0  0.73561  0.89263  0.94955  1.0000 0.3596194152
C   C521      1.0  0.66389  0.02371  0.53939  1.0000 0.2433098941
C   C522      1.0  0.79242  0.95734  0.56424  1.0000 0.0722078258
C   C523      1.0  0.79629  0.94669  0.59689  1.0000 -0.1364613329
C   C524      1.0  0.76598  0.94922  0.62748  1.0000 -0.06134746
C   C525      1.0  0.73233  0.96223  0.62351  1.0000 -0.0218085795
C   C526      1.0  0.73133  0.97115  0.58953  1.0000 0.059145129
C   C527      1.0  0.57216  0.98812  0.70568  1.0000 0.059145129
C   C528      1.0  0.60355  0.98323  0.67747  1.0000 -0.0218085795
C   C529      1.0  0.60218  0.98400  0.64670  1.0000 -0.06134746
C   C530      1.0  0.56999  0.98809  0.64741  1.0000 -0.1274336713
C   C531      1.0  0.53894  0.99298  0.67736  1.0000 0.0830249186
C   C532      1.0  0.63774  0.98012  0.67746  1.0000 0.3810974275
C   C533      1.0  0.69805  0.96913  0.65331  1.0000 0.3659435643
C   C534      1.0  0.66619  0.98569  0.70299  1.0000 0.3810974275
C   C535      1.0  0.66416  0.99644  0.73024  1.0000 -0.0218085795
C   C536      1.0  0.69550  0.99678  0.72838  1.0000 0.059145129
C   C537      1.0  0.66522  0.01508  0.77804  1.0000 0.0722078258
C   C538      1.0  0.63284  0.01578  0.78132  1.0000 -0.1274336713
C   C539      1.0  0.63176  0.00718  0.75652  1.0000 -0.0501697119
C   C540      1.0  0.79580  0.94316  0.70696  1.0000 0.2466005232
C   C541      1.0  0.74147  0.95231  0.82749  1.0000 0.054527964
C   C542      1.0  0.73599  0.92341  0.85913  1.0000 -0.014210653
C   C543      1.0  0.73165  0.89527  0.85781  1.0000 -0.06134746
C   C544      1.0  0.73259  0.89749  0.82655  1.0000 -0.1152145244
C   C545      1.0  0.73929  0.92659  0.79565  1.0000 0.0722078258
C   C546      1.0  0.73561  0.92221  0.89263  1.0000 0.3596194152
C   C547      1.0  0.27301  0.53939  0.02371  1.0000 0.2433098941
C   C548      1.0  0.18600  0.56424  0.95734  1.0000 0.0722078258
C   C549      1.0  0.16013  0.59689  0.94669  1.0000 -0.1364613329
C   C550      1.0  0.15732  0.62748  0.94922  1.0000 -0.06134746
C   C551      1.0  0.18193  0.62351  0.96223  1.0000 -0.0218085795
C   C552      1.0  0.20799  0.58953  0.97115  1.0000 0.059145129
C   C553      1.0  0.23404  0.70568  0.98812  1.0000 0.059145129
C   C554      1.0  0.23575  0.67747  0.98323  1.0000 -0.0250065033
C   C555      1.0  0.26712  0.64670  0.98400  1.0000 -0.06134746
C   C556      1.0  0.29451  0.64741  0.98809  1.0000 -0.1274336713
C   C557      1.0  0.29072  0.67736  0.99298  1.0000 0.0830249186
C   C558      1.0  0.20468  0.67746  0.98012  1.0000 0.3810974275
C   C559      1.0  0.17951  0.65331  0.96913  1.0000 0.3659435643
C   C560      1.0  0.14513  0.70299  0.98569  1.0000 0.3810974275
C   C561      1.0  0.10916  0.73024  0.99644  1.0000 -0.0218085795
C   C562      1.0  0.07934  0.72838  0.99678  1.0000 0.059145129
C   C563      1.0  0.04166  0.77804  0.01508  1.0000 0.0722078258
C   C564      1.0  0.07006  0.78132  0.01578  1.0000 -0.1274336713
C   C565      1.0  0.10454  0.75652  0.00718  1.0000 -0.0501697119
C   C566      1.0  0.05408  0.70696  0.94316  1.0000 0.2466005232
C   C567      1.0  0.97873  0.82749  0.95231  1.0000 0.054527964
C   C568      1.0  0.98147  0.85913  0.92341  1.0000 -0.014210653
C   C569      1.0  0.01527  0.85781  0.89527  1.0000 -0.06134746
C   C570      1.0  0.04337  0.82655  0.89749  1.0000 -0.1152145244
C   C571      1.0  0.03847  0.79565  0.92659  1.0000 0.0722078258
C   C572      1.0  0.94955  0.89263  0.92221  1.0000 0.3596194152
C   C573      1.0  0.53939  0.27301  0.66389  1.0000 0.2433098941
C   C574      1.0  0.56424  0.18600  0.79242  1.0000 0.0722078258
C   C575      1.0  0.59689  0.16013  0.79629  1.0000 -0.1364613329
C   C576      1.0  0.62748  0.15732  0.76598  1.0000 -0.06134746
C   C577      1.0  0.62351  0.18193  0.73233  1.0000 -0.0218085795
C   C578      1.0  0.58953  0.20799  0.73133  1.0000 0.059145129
C   C579      1.0  0.70568  0.23404  0.57216  1.0000 0.059145129
C   C580      1.0  0.67747  0.23575  0.60355  1.0000 -0.0218085795
C   C581      1.0  0.64670  0.26712  0.60218  1.0000 -0.06134746
C   C582      1.0  0.64741  0.29451  0.56999  1.0000 -0.1274336713
C   C583      1.0  0.67736  0.29072  0.53894  1.0000 0.0830249186
C   C584      1.0  0.67746  0.20468  0.63774  1.0000 0.3810974275
C   C585      1.0  0.65331  0.17951  0.69805  1.0000 0.3659435643
C   C586      1.0  0.70299  0.14513  0.66619  1.0000 0.3810974275
C   C587      1.0  0.73024  0.10916  0.66416  1.0000 -0.0218085795
C   C588      1.0  0.72838  0.07934  0.69550  1.0000 0.059145129
C   C589      1.0  0.77804  0.04166  0.66522  1.0000 0.0722078258
C   C590      1.0  0.78132  0.07006  0.63284  1.0000 -0.1274336713
C   C591      1.0  0.75652  0.10454  0.63176  1.0000 -0.0501697119
C   C592      1.0  0.70696  0.05408  0.79580  1.0000 0.2466005232
C   C593      1.0  0.82749  0.97873  0.74147  1.0000 0.054527964
C   C594      1.0  0.85913  0.98147  0.73599  1.0000 -0.014210653
C   C595      1.0  0.85781  0.01527  0.73165  1.0000 -0.06134746
C   C596      1.0  0.82655  0.04337  0.73259  1.0000 -0.1147651453
C   C597      1.0  0.79565  0.03847  0.73929  1.0000 0.0722078258
C   C598      1.0  0.89263  0.94955  0.73561  1.0000 0.3596194152
C   C599      1.0  0.02371  0.66389  0.27301  1.0000 0.2433098941
C   C600      1.0  0.95734  0.79242  0.18600  1.0000 0.0722078258
C   C601      1.0  0.94669  0.79629  0.16013  1.0000 -0.1364613329
C   C602      1.0  0.94922  0.76598  0.15732  1.0000 -0.06134746
C   C603      1.0  0.96223  0.73233  0.18193  1.0000 -0.0218085795
C   C604      1.0  0.97115  0.73133  0.20799  1.0000 0.059145129
C   C605      1.0  0.98812  0.57216  0.23404  1.0000 0.059145129
C   C606      1.0  0.98323  0.60355  0.23575  1.0000 -0.0218085795
C   C607      1.0  0.98400  0.60218  0.26712  1.0000 -0.06134746
C   C608      1.0  0.98809  0.56999  0.29451  1.0000 -0.1274336713
C   C609      1.0  0.99298  0.53894  0.29072  1.0000 0.0830249186
C   C610      1.0  0.98012  0.63774  0.20468  1.0000 0.3810974275
C   C611      1.0  0.96913  0.69805  0.17951  1.0000 0.3659435643
C   C612      1.0  0.98569  0.66619  0.14513  1.0000 0.3810974275
C   C613      1.0  0.99644  0.66416  0.10916  1.0000 -0.0218085795
C   C614      1.0  0.99678  0.69550  0.07934  1.0000 0.059145129
C   C615      1.0  0.01508  0.66522  0.04166  1.0000 0.0722078258
C   C616      1.0  0.01578  0.63284  0.07006  1.0000 -0.1274336713
C   C617      1.0  0.00718  0.63176  0.10454  1.0000 -0.0501697119
C   C618      1.0  0.94316  0.79580  0.05408  1.0000 0.2466005232
C   C619      1.0  0.95231  0.74147  0.97873  1.0000 0.054527964
C   C620      1.0  0.92341  0.73599  0.98147  1.0000 -0.014210653
C   C621      1.0  0.89527  0.73165  0.01527  1.0000 -0.06134746
C   C622      1.0  0.89749  0.73259  0.04337  1.0000 -0.1147651453
C   C623      1.0  0.92659  0.73929  0.03847  1.0000 0.0722078258
C   C624      1.0  0.92221  0.73561  0.94955  1.0000 0.3596194152
C   C625      1.0  0.77301  0.16389  0.52371  1.0000 0.2433098941
C   C626      1.0  0.68600  0.29242  0.45734  1.0000 0.0722078258
C   C627      1.0  0.66013  0.29629  0.44669  1.0000 -0.1364613329
C   C628      1.0  0.65732  0.26598  0.44922  1.0000 -0.06134746
C   C629      1.0  0.68193  0.23233  0.46223  1.0000 -0.0218085795
C   C630      1.0  0.70799  0.23133  0.47115  1.0000 0.059145129
C   C631      1.0  0.73404  0.07216  0.48812  1.0000 0.059145129
C   C632      1.0  0.73575  0.10355  0.48323  1.0000 -0.0218085795
C   C633      1.0  0.76712  0.10218  0.48400  1.0000 -0.06134746
C   C634      1.0  0.79451  0.06999  0.48809  1.0000 -0.1274336713
C   C635      1.0  0.79072  0.03894  0.49298  1.0000 0.0830249186
C   C636      1.0  0.70468  0.13774  0.48012  1.0000 0.3810974275
C   C637      1.0  0.67951  0.19805  0.46913  1.0000 0.3659435643
C   C638      1.0  0.64513  0.16619  0.48569  1.0000 0.3810974275
C   C639      1.0  0.60916  0.16416  0.49644  1.0000 -0.0218085795
C   C640      1.0  0.57934  0.19550  0.49678  1.0000 0.059145129
C   C641      1.0  0.54166  0.16522  0.51508  1.0000 0.0722078258
C   C642      1.0  0.57006  0.13284  0.51578  1.0000 -0.1274336713
C   C643      1.0  0.60454  0.13176  0.50718  1.0000 -0.0501697119
C   C644      1.0  0.55408  0.29580  0.44316  1.0000 0.2466005232
C   C645      1.0  0.47873  0.24147  0.45231  1.0000 0.054527964
C   C646      1.0  0.48147  0.23599  0.42341  1.0000 -0.014210653
C   C647      1.0  0.51527  0.23165  0.39527  1.0000 -0.06134746
C   C648      1.0  0.54337  0.23259  0.39749  1.0000 -0.1147651453
C   C649      1.0  0.53847  0.23929  0.42659  1.0000 0.0722078258
C   C650      1.0  0.44955  0.23561  0.42221  1.0000 0.3596194152
C   C651      1.0  0.16389  0.77301  0.03939  1.0000 0.2433098941
C   C652      1.0  0.29242  0.68600  0.06424  1.0000 0.0722078258
C   C653      1.0  0.29629  0.66013  0.09689  1.0000 -0.1364613329
C   C654      1.0  0.26598  0.65732  0.12748  1.0000 -0.06134746
C   C655      1.0  0.23233  0.68193  0.12351  1.0000 -0.0218085795
C   C656      1.0  0.23133  0.70799  0.08953  1.0000 0.059145129
C   C657      1.0  0.07216  0.73404  0.20568  1.0000 0.059145129
C   C658      1.0  0.10355  0.73575  0.17747  1.0000 -0.0250065033
C   C659      1.0  0.10218  0.76712  0.14670  1.0000 -0.06134746
C   C660      1.0  0.06999  0.79451  0.14741  1.0000 -0.1274336713
C   C661      1.0  0.03894  0.79072  0.17736  1.0000 0.0830249186
C   C662      1.0  0.13774  0.70468  0.17746  1.0000 0.3810974275
C   C663      1.0  0.19805  0.67951  0.15331  1.0000 0.3659435643
C   C664      1.0  0.16619  0.64513  0.20299  1.0000 0.3810974275
C   C665      1.0  0.16416  0.60916  0.23024  1.0000 -0.0218085795
C   C666      1.0  0.19550  0.57934  0.22838  1.0000 0.059145129
C   C667      1.0  0.16522  0.54166  0.27804  1.0000 0.0722078258
C   C668      1.0  0.13284  0.57006  0.28132  1.0000 -0.1274336713
C   C669      1.0  0.13176  0.60454  0.25652  1.0000 -0.0501697119
C   C670      1.0  0.29580  0.55408  0.20696  1.0000 0.2466005232
C   C671      1.0  0.24147  0.47873  0.32749  1.0000 0.054527964
C   C672      1.0  0.23599  0.48147  0.35913  1.0000 -0.014210653
C   C673      1.0  0.23165  0.51527  0.35781  1.0000 -0.06134746
C   C674      1.0  0.23259  0.54337  0.32655  1.0000 -0.1152145244
C   C675      1.0  0.23929  0.53847  0.29565  1.0000 0.0722078258
C   C676      1.0  0.23561  0.44955  0.39263  1.0000 0.3596194152
C   C677      1.0  0.52371  0.03939  0.77301  1.0000 0.2433098941
C   C678      1.0  0.45734  0.06424  0.68600  1.0000 0.0722078258
C   C679      1.0  0.44669  0.09689  0.66013  1.0000 -0.1364613329
C   C680      1.0  0.44922  0.12748  0.65732  1.0000 -0.06134746
C   C681      1.0  0.46223  0.12351  0.68193  1.0000 -0.0218085795
C   C682      1.0  0.47115  0.08953  0.70799  1.0000 0.059145129
C   C683      1.0  0.48812  0.20568  0.73404  1.0000 0.059145129
C   C684      1.0  0.48323  0.17747  0.73575  1.0000 -0.0218085795
C   C685      1.0  0.48400  0.14670  0.76712  1.0000 -0.06134746
C   C686      1.0  0.48809  0.14741  0.79451  1.0000 -0.1274336713
C   C687      1.0  0.49298  0.17736  0.79072  1.0000 0.0830249186
C   C688      1.0  0.48012  0.17746  0.70468  1.0000 0.3810974275
C   C689      1.0  0.46913  0.15331  0.67951  1.0000 0.3659435643
C   C690      1.0  0.48569  0.20299  0.64513  1.0000 0.3810974275
C   C691      1.0  0.49644  0.23024  0.60916  1.0000 -0.0218085795
C   C692      1.0  0.49678  0.22838  0.57934  1.0000 0.059145129
C   C693      1.0  0.51508  0.27804  0.54166  1.0000 0.0722078258
C   C694      1.0  0.51578  0.28132  0.57006  1.0000 -0.1274336713
C   C695      1.0  0.50718  0.25652  0.60454  1.0000 -0.0501697119
C   C696      1.0  0.44316  0.20696  0.55408  1.0000 0.2466005232
C   C697      1.0  0.45231  0.32749  0.47873  1.0000 0.054527964
C   C698      1.0  0.42341  0.35913  0.48147  1.0000 -0.014210653
C   C699      1.0  0.39527  0.35781  0.51527  1.0000 -0.06134746
C   C700      1.0  0.39749  0.32655  0.54337  1.0000 -0.1152145244
C   C701      1.0  0.42659  0.29565  0.53847  1.0000 0.0722078258
C   C702      1.0  0.42221  0.39263  0.44955  1.0000 0.3596194152
C   C703      1.0  0.03939  0.52371  0.16389  1.0000 0.2433098941
C   C704      1.0  0.06424  0.45734  0.29242  1.0000 0.0722078258
C   C705      1.0  0.09689  0.44669  0.29629  1.0000 -0.1364613329
C   C706      1.0  0.12748  0.44922  0.26598  1.0000 -0.06134746
C   C707      1.0  0.12351  0.46223  0.23233  1.0000 -0.0218085795
C   C708      1.0  0.08953  0.47115  0.23133  1.0000 0.059145129
C   C709      1.0  0.20568  0.48812  0.07216  1.0000 0.059145129
C   C710      1.0  0.17747  0.48323  0.10355  1.0000 -0.0250065033
C   C711      1.0  0.14670  0.48400  0.10218  1.0000 -0.06134746
C   C712      1.0  0.14741  0.48809  0.06999  1.0000 -0.1274336713
C   C713      1.0  0.17736  0.49298  0.03894  1.0000 0.0830249186
C   C714      1.0  0.17746  0.48012  0.13774  1.0000 0.3810974275
C   C715      1.0  0.15331  0.46913  0.19805  1.0000 0.3659435643
C   C716      1.0  0.20299  0.48569  0.16619  1.0000 0.3810974275
C   C717      1.0  0.23024  0.49644  0.16416  1.0000 -0.0218085795
C   C718      1.0  0.22838  0.49678  0.19550  1.0000 0.059145129
C   C719      1.0  0.27804  0.51508  0.16522  1.0000 0.0722078258
C   C720      1.0  0.28132  0.51578  0.13284  1.0000 -0.1274336713
C   C721      1.0  0.25652  0.50718  0.13176  1.0000 -0.0501697119
C   C722      1.0  0.20696  0.44316  0.29580  1.0000 0.2466005232
C   C723      1.0  0.32749  0.45231  0.24147  1.0000 0.054527964
C   C724      1.0  0.35913  0.42341  0.23599  1.0000 -0.014210653
C   C725      1.0  0.35781  0.39527  0.23165  1.0000 -0.06134746
C   C726      1.0  0.32655  0.39749  0.23259  1.0000 -0.1152145244
C   C727      1.0  0.29565  0.42659  0.23929  1.0000 0.0722078258
C   C728      1.0  0.39263  0.42221  0.23561  1.0000 0.3596194152
C   C729      1.0  0.52371  0.77301  0.16389  1.0000 0.2433098941
C   C730      1.0  0.45734  0.68600  0.29242  1.0000 0.0722078258
C   C731      1.0  0.44669  0.66013  0.29629  1.0000 -0.1364613329
C   C732      1.0  0.44922  0.65732  0.26598  1.0000 -0.06134746
C   C733      1.0  0.46223  0.68193  0.23233  1.0000 -0.0218085795
C   C734      1.0  0.47115  0.70799  0.23133  1.0000 0.059145129
C   C735      1.0  0.48812  0.73404  0.07216  1.0000 0.059145129
C   C736      1.0  0.48323  0.73575  0.10355  1.0000 -0.0250065033
C   C737      1.0  0.48400  0.76712  0.10218  1.0000 -0.06134746
C   C738      1.0  0.48809  0.79451  0.06999  1.0000 -0.1274336713
C   C739      1.0  0.49298  0.79072  0.03894  1.0000 0.0830249186
C   C740      1.0  0.48012  0.70468  0.13774  1.0000 0.3810974275
C   C741      1.0  0.46913  0.67951  0.19805  1.0000 0.3659435643
C   C742      1.0  0.48569  0.64513  0.16619  1.0000 0.3810974275
C   C743      1.0  0.49644  0.60916  0.16416  1.0000 -0.0218085795
C   C744      1.0  0.49678  0.57934  0.19550  1.0000 0.059145129
C   C745      1.0  0.51508  0.54166  0.16522  1.0000 0.0722078258
C   C746      1.0  0.51578  0.57006  0.13284  1.0000 -0.1274336713
C   C747      1.0  0.50718  0.60454  0.13176  1.0000 -0.0501697119
C   C748      1.0  0.44316  0.55408  0.29580  1.0000 0.2466005232
C   C749      1.0  0.45231  0.47873  0.24147  1.0000 0.054527964
C   C750      1.0  0.42341  0.48147  0.23599  1.0000 -0.014210653
C   C751      1.0  0.39527  0.51527  0.23165  1.0000 -0.06134746
C   C752      1.0  0.39749  0.54337  0.23259  1.0000 -0.1152145244
C   C753      1.0  0.42659  0.53847  0.23929  1.0000 0.0722078258
C   C754      1.0  0.42221  0.44955  0.23561  1.0000 0.3596194152
C   C755      1.0  0.03939  0.16389  0.77301  1.0000 0.2433098941
C   C756      1.0  0.06424  0.29242  0.68600  1.0000 0.0722078258
C   C757      1.0  0.09689  0.29629  0.66013  1.0000 -0.1364613329
C   C758      1.0  0.12748  0.26598  0.65732  1.0000 -0.06134746
C   C759      1.0  0.12351  0.23233  0.68193  1.0000 -0.0218085795
C   C760      1.0  0.08953  0.23133  0.70799  1.0000 0.059145129
C   C761      1.0  0.20568  0.07216  0.73404  1.0000 0.059145129
C   C762      1.0  0.17747  0.10355  0.73575  1.0000 -0.0250065033
C   C763      1.0  0.14670  0.10218  0.76712  1.0000 -0.06134746
C   C764      1.0  0.14741  0.06999  0.79451  1.0000 -0.1274336713
C   C765      1.0  0.17736  0.03894  0.79072  1.0000 0.0830249186
C   C766      1.0  0.17746  0.13774  0.70468  1.0000 0.3810974275
C   C767      1.0  0.15331  0.19805  0.67951  1.0000 0.3659435643
C   C768      1.0  0.20299  0.16619  0.64513  1.0000 0.3810974275
C   C769      1.0  0.23024  0.16416  0.60916  1.0000 -0.0218085795
C   C770      1.0  0.22838  0.19550  0.57934  1.0000 0.059145129
C   C771      1.0  0.27804  0.16522  0.54166  1.0000 0.0722078258
C   C772      1.0  0.28132  0.13284  0.57006  1.0000 -0.1274336713
C   C773      1.0  0.25652  0.13176  0.60454  1.0000 -0.0501697119
C   C774      1.0  0.20696  0.29580  0.55408  1.0000 0.2466005232
C   C775      1.0  0.32749  0.24147  0.47873  1.0000 0.054527964
C   C776      1.0  0.35913  0.23599  0.48147  1.0000 -0.014210653
C   C777      1.0  0.35781  0.23165  0.51527  1.0000 -0.06134746
C   C778      1.0  0.32655  0.23259  0.54337  1.0000 -0.1152145244
C   C779      1.0  0.29565  0.23929  0.53847  1.0000 0.0722078258
C   C780      1.0  0.39263  0.23561  0.44955  1.0000 0.3596194152
C   C781      1.0  0.77301  0.52371  0.03939  1.0000 0.2433098941
C   C782      1.0  0.68600  0.45734  0.06424  1.0000 0.0722078258
C   C783      1.0  0.66013  0.44669  0.09689  1.0000 -0.1364613329
C   C784      1.0  0.65732  0.44922  0.12748  1.0000 -0.06134746
C   C785      1.0  0.68193  0.46223  0.12351  1.0000 -0.0218085795
C   C786      1.0  0.70799  0.47115  0.08953  1.0000 0.059145129
C   C787      1.0  0.73404  0.48812  0.20568  1.0000 0.059145129
C   C788      1.0  0.73575  0.48323  0.17747  1.0000 -0.0218085795
C   C789      1.0  0.76712  0.48400  0.14670  1.0000 -0.06134746
C   C790      1.0  0.79451  0.48809  0.14741  1.0000 -0.1274336713
C   C791      1.0  0.79072  0.49298  0.17736  1.0000 0.0830249186
C   C792      1.0  0.70468  0.48012  0.17746  1.0000 0.3810974275
C   C793      1.0  0.67951  0.46913  0.15331  1.0000 0.3659435643
C   C794      1.0  0.64513  0.48569  0.20299  1.0000 0.3810974275
C   C795      1.0  0.60916  0.49644  0.23024  1.0000 -0.0218085795
C   C796      1.0  0.57934  0.49678  0.22838  1.0000 0.059145129
C   C797      1.0  0.54166  0.51508  0.27804  1.0000 0.0722078258
C   C798      1.0  0.57006  0.51578  0.28132  1.0000 -0.1274336713
C   C799      1.0  0.60454  0.50718  0.25652  1.0000 -0.0501697119
C   C800      1.0  0.55408  0.44316  0.20696  1.0000 0.2466005232
C   C801      1.0  0.47873  0.45231  0.32749  1.0000 0.054527964
C   C802      1.0  0.48147  0.42341  0.35913  1.0000 -0.014210653
C   C803      1.0  0.51527  0.39527  0.35781  1.0000 -0.06134746
C   C804      1.0  0.54337  0.39749  0.32655  1.0000 -0.1147651453
C   C805      1.0  0.53847  0.42659  0.29565  1.0000 0.0722078258
C   C806      1.0  0.44955  0.42221  0.39263  1.0000 0.3596194152
C   C807      1.0  0.16389  0.03939  0.52371  1.0000 0.2433098941
C   C808      1.0  0.29242  0.06424  0.45734  1.0000 0.0722078258
C   C809      1.0  0.29629  0.09689  0.44669  1.0000 -0.1364613329
C   C810      1.0  0.26598  0.12748  0.44922  1.0000 -0.06134746
C   C811      1.0  0.23233  0.12351  0.46223  1.0000 -0.0218085795
C   C812      1.0  0.23133  0.08953  0.47115  1.0000 0.059145129
C   C813      1.0  0.07216  0.20568  0.48812  1.0000 0.059145129
C   C814      1.0  0.10355  0.17747  0.48323  1.0000 -0.0250065033
C   C815      1.0  0.10218  0.14670  0.48400  1.0000 -0.06134746
C   C816      1.0  0.06999  0.14741  0.48809  1.0000 -0.1274336713
C   C817      1.0  0.03894  0.17736  0.49298  1.0000 0.0830249186
C   C818      1.0  0.13774  0.17746  0.48012  1.0000 0.3810974275
C   C819      1.0  0.19805  0.15331  0.46913  1.0000 0.3659435643
C   C820      1.0  0.16619  0.20299  0.48569  1.0000 0.3810974275
C   C821      1.0  0.16416  0.23024  0.49644  1.0000 -0.0218085795
C   C822      1.0  0.19550  0.22838  0.49678  1.0000 0.059145129
C   C823      1.0  0.16522  0.27804  0.51508  1.0000 0.0722078258
C   C824      1.0  0.13284  0.28132  0.51578  1.0000 -0.1274336713
C   C825      1.0  0.13176  0.25652  0.50718  1.0000 -0.0501697119
C   C826      1.0  0.29580  0.20696  0.44316  1.0000 0.2466005232
C   C827      1.0  0.24147  0.32749  0.45231  1.0000 0.054527964
C   C828      1.0  0.23599  0.35913  0.42341  1.0000 -0.014210653
C   C829      1.0  0.23165  0.35781  0.39527  1.0000 -0.06134746
C   C830      1.0  0.23259  0.32655  0.39749  1.0000 -0.1152145244
C   C831      1.0  0.23929  0.29565  0.42659  1.0000 0.0722078258
C   C832      1.0  0.23561  0.39263  0.42221  1.0000 0.3596194152
C   C833      1.0  0.16389  0.52371  0.77301  1.0000 0.2433098941
C   C834      1.0  0.29242  0.45734  0.68600  1.0000 0.0722078258
C   C835      1.0  0.29629  0.44669  0.66013  1.0000 -0.1364613329
C   C836      1.0  0.26598  0.44922  0.65732  1.0000 -0.06134746
C   C837      1.0  0.23233  0.46223  0.68193  1.0000 -0.0218085795
C   C838      1.0  0.23133  0.47115  0.70799  1.0000 0.059145129
C   C839      1.0  0.07216  0.48812  0.73404  1.0000 0.059145129
C   C840      1.0  0.10355  0.48323  0.73575  1.0000 -0.0250065033
C   C841      1.0  0.10218  0.48400  0.76712  1.0000 -0.06134746
C   C842      1.0  0.06999  0.48809  0.79451  1.0000 -0.1274336713
C   C843      1.0  0.03894  0.49298  0.79072  1.0000 0.0830249186
C   C844      1.0  0.13774  0.48012  0.70468  1.0000 0.3810974275
C   C845      1.0  0.19805  0.46913  0.67951  1.0000 0.3659435643
C   C846      1.0  0.16619  0.48569  0.64513  1.0000 0.3810974275
C   C847      1.0  0.16416  0.49644  0.60916  1.0000 -0.0218085795
C   C848      1.0  0.19550  0.49678  0.57934  1.0000 0.059145129
C   C849      1.0  0.16522  0.51508  0.54166  1.0000 0.0722078258
C   C850      1.0  0.13284  0.51578  0.57006  1.0000 -0.1274336713
C   C851      1.0  0.13176  0.50718  0.60454  1.0000 -0.0501697119
C   C852      1.0  0.29580  0.44316  0.55408  1.0000 0.2466005232
C   C853      1.0  0.24147  0.45231  0.47873  1.0000 0.054527964
C   C854      1.0  0.23599  0.42341  0.48147  1.0000 -0.014210653
C   C855      1.0  0.23165  0.39527  0.51527  1.0000 -0.06134746
C   C856      1.0  0.23259  0.39749  0.54337  1.0000 -0.1152145244
C   C857      1.0  0.23929  0.42659  0.53847  1.0000 0.0722078258
C   C858      1.0  0.23561  0.42221  0.44955  1.0000 0.3596194152
C   C859      1.0  0.77301  0.03939  0.16389  1.0000 0.2433098941
C   C860      1.0  0.68600  0.06424  0.29242  1.0000 0.0722078258
C   C861      1.0  0.66013  0.09689  0.29629  1.0000 -0.1364613329
C   C862      1.0  0.65732  0.12748  0.26598  1.0000 -0.06134746
C   C863      1.0  0.68193  0.12351  0.23233  1.0000 -0.0218085795
C   C864      1.0  0.70799  0.08953  0.23133  1.0000 0.059145129
C   C865      1.0  0.73404  0.20568  0.07216  1.0000 0.059145129
C   C866      1.0  0.73575  0.17747  0.10355  1.0000 -0.0218085795
C   C867      1.0  0.76712  0.14670  0.10218  1.0000 -0.06134746
C   C868      1.0  0.79451  0.14741  0.06999  1.0000 -0.1274336713
C   C869      1.0  0.79072  0.17736  0.03894  1.0000 0.0830249186
C   C870      1.0  0.70468  0.17746  0.13774  1.0000 0.3810974275
C   C871      1.0  0.67951  0.15331  0.19805  1.0000 0.3659435643
C   C872      1.0  0.64513  0.20299  0.16619  1.0000 0.3810974275
C   C873      1.0  0.60916  0.23024  0.16416  1.0000 -0.0218085795
C   C874      1.0  0.57934  0.22838  0.19550  1.0000 0.059145129
C   C875      1.0  0.54166  0.27804  0.16522  1.0000 0.0722078258
C   C876      1.0  0.57006  0.28132  0.13284  1.0000 -0.1274336713
C   C877      1.0  0.60454  0.25652  0.13176  1.0000 -0.0501697119
C   C878      1.0  0.55408  0.20696  0.29580  1.0000 0.2466005232
C   C879      1.0  0.47873  0.32749  0.24147  1.0000 0.054527964
C   C880      1.0  0.48147  0.35913  0.23599  1.0000 -0.014210653
C   C881      1.0  0.51527  0.35781  0.23165  1.0000 -0.06134746
C   C882      1.0  0.54337  0.32655  0.23259  1.0000 -0.1147651453
C   C883      1.0  0.53847  0.29565  0.23929  1.0000 0.0722078258
C   C884      1.0  0.44955  0.39263  0.23561  1.0000 0.3596194152
C   C885      1.0  0.03939  0.77301  0.52371  1.0000 0.2433098941
C   C886      1.0  0.06424  0.68600  0.45734  1.0000 0.0722078258
C   C887      1.0  0.09689  0.66013  0.44669  1.0000 -0.1364613329
C   C888      1.0  0.12748  0.65732  0.44922  1.0000 -0.06134746
C   C889      1.0  0.12351  0.68193  0.46223  1.0000 -0.0218085795
C   C890      1.0  0.08953  0.70799  0.47115  1.0000 0.059145129
C   C891      1.0  0.20568  0.73404  0.48812  1.0000 0.059145129
C   C892      1.0  0.17747  0.73575  0.48323  1.0000 -0.0250065033
C   C893      1.0  0.14670  0.76712  0.48400  1.0000 -0.06134746
C   C894      1.0  0.14741  0.79451  0.48809  1.0000 -0.1274336713
C   C895      1.0  0.17736  0.79072  0.49298  1.0000 0.0830249186
C   C896      1.0  0.17746  0.70468  0.48012  1.0000 0.3810974275
C   C897      1.0  0.15331  0.67951  0.46913  1.0000 0.3659435643
C   C898      1.0  0.20299  0.64513  0.48569  1.0000 0.3810974275
C   C899      1.0  0.23024  0.60916  0.49644  1.0000 -0.0218085795
C   C900      1.0  0.22838  0.57934  0.49678  1.0000 0.059145129
C   C901      1.0  0.27804  0.54166  0.51508  1.0000 0.0722078258
C   C902      1.0  0.28132  0.57006  0.51578  1.0000 -0.1274336713
C   C903      1.0  0.25652  0.60454  0.50718  1.0000 -0.0501697119
C   C904      1.0  0.20696  0.55408  0.44316  1.0000 0.2466005232
C   C905      1.0  0.32749  0.47873  0.45231  1.0000 0.054527964
C   C906      1.0  0.35913  0.48147  0.42341  1.0000 -0.014210653
C   C907      1.0  0.35781  0.51527  0.39527  1.0000 -0.06134746
C   C908      1.0  0.32655  0.54337  0.39749  1.0000 -0.1152145244
C   C909      1.0  0.29565  0.53847  0.42659  1.0000 0.0722078258
C   C910      1.0  0.39263  0.44955  0.42221  1.0000 0.3596194152
C   C911      1.0  0.52371  0.16389  0.03939  1.0000 0.2433098941
C   C912      1.0  0.45734  0.29242  0.06424  1.0000 0.0722078258
C   C913      1.0  0.44669  0.29629  0.09689  1.0000 -0.1364613329
C   C914      1.0  0.44922  0.26598  0.12748  1.0000 -0.06134746
C   C915      1.0  0.46223  0.23233  0.12351  1.0000 -0.0218085795
C   C916      1.0  0.47115  0.23133  0.08953  1.0000 0.059145129
C   C917      1.0  0.48812  0.07216  0.20568  1.0000 0.059145129
C   C918      1.0  0.48323  0.10355  0.17747  1.0000 -0.0218085795
C   C919      1.0  0.48400  0.10218  0.14670  1.0000 -0.06134746
C   C920      1.0  0.48809  0.06999  0.14741  1.0000 -0.1274336713
C   C921      1.0  0.49298  0.03894  0.17736  1.0000 0.0830249186
C   C922      1.0  0.48012  0.13774  0.17746  1.0000 0.3810974275
C   C923      1.0  0.46913  0.19805  0.15331  1.0000 0.3659435643
C   C924      1.0  0.48569  0.16619  0.20299  1.0000 0.3810974275
C   C925      1.0  0.49644  0.16416  0.23024  1.0000 -0.0218085795
C   C926      1.0  0.49678  0.19550  0.22838  1.0000 0.059145129
C   C927      1.0  0.51508  0.16522  0.27804  1.0000 0.0722078258
C   C928      1.0  0.51578  0.13284  0.28132  1.0000 -0.1274336713
C   C929      1.0  0.50718  0.13176  0.25652  1.0000 -0.0501697119
C   C930      1.0  0.44316  0.29580  0.20696  1.0000 0.2466005232
C   C931      1.0  0.45231  0.24147  0.32749  1.0000 0.054527964
C   C932      1.0  0.42341  0.23599  0.35913  1.0000 -0.014210653
C   C933      1.0  0.39527  0.23165  0.35781  1.0000 -0.06134746
C   C934      1.0  0.39749  0.23259  0.32655  1.0000 -0.1152145244
C   C935      1.0  0.42659  0.23929  0.29565  1.0000 0.0722078258
C   C936      1.0  0.42221  0.23561  0.39263  1.0000 0.3596194152
C   C937      1.0  0.72699  0.33611  0.46061  1.0000 0.2433098941
C   C938      1.0  0.81400  0.20758  0.43576  1.0000 0.0722078258
C   C939      1.0  0.83987  0.20371  0.40311  1.0000 -0.1364613329
C   C940      1.0  0.84268  0.23402  0.37252  1.0000 -0.06134746
C   C941      1.0  0.81807  0.26767  0.37649  1.0000 -0.0218085795
C   C942      1.0  0.79201  0.26867  0.41047  1.0000 0.059145129
C   C943      1.0  0.76596  0.42784  0.29432  1.0000 0.059145129
C   C944      1.0  0.76425  0.39645  0.32253  1.0000 -0.0218085795
C   C945      1.0  0.73288  0.39782  0.35330  1.0000 -0.06134746
C   C946      1.0  0.70549  0.43001  0.35259  1.0000 -0.1274336713
C   C947      1.0  0.70928  0.46106  0.32264  1.0000 0.0830249186
C   C948      1.0  0.79532  0.36226  0.32254  1.0000 0.3810974275
C   C949      1.0  0.82049  0.30195  0.34669  1.0000 0.3659435643
C   C950      1.0  0.85487  0.33381  0.29701  1.0000 0.3810974275
C   C951      1.0  0.89084  0.33584  0.26976  1.0000 -0.0218085795
C   C952      1.0  0.92066  0.30450  0.27162  1.0000 0.059145129
C   C953      1.0  0.95834  0.33478  0.22196  1.0000 0.0722078258
C   C954      1.0  0.92994  0.36716  0.21868  1.0000 -0.1274336713
C   C955      1.0  0.89546  0.36824  0.24348  1.0000 -0.0501697119
C   C956      1.0  0.94592  0.20420  0.29304  1.0000 0.2466005232
C   C957      1.0  0.02127  0.25853  0.17251  1.0000 0.054527964
C   C958      1.0  0.01853  0.26401  0.14087  1.0000 -0.014210653
C   C959      1.0  0.98473  0.26835  0.14219  1.0000 -0.06134746
C   C960      1.0  0.95663  0.26741  0.17345  1.0000 -0.1147651453
C   C961      1.0  0.96153  0.26071  0.20435  1.0000 0.0722078258
C   C962      1.0  0.05045  0.26439  0.10737  1.0000 0.3596194152
C   C963      1.0  0.33611  0.72699  0.97629  1.0000 0.2433098941
C   C964      1.0  0.20758  0.81400  0.04266  1.0000 0.0722078258
C   C965      1.0  0.20371  0.83987  0.05331  1.0000 -0.1364613329
C   C966      1.0  0.23402  0.84268  0.05078  1.0000 -0.06134746
C   C967      1.0  0.26767  0.81807  0.03777  1.0000 -0.0218085795
C   C968      1.0  0.26867  0.79201  0.02885  1.0000 0.059145129
C   C969      1.0  0.42784  0.76596  0.01188  1.0000 0.059145129
C   C970      1.0  0.39645  0.76425  0.01677  1.0000 -0.0218085795
C   C971      1.0  0.39782  0.73288  0.01600  1.0000 -0.06134746
C   C972      1.0  0.43001  0.70549  0.01191  1.0000 -0.1274336713
C   C973      1.0  0.46106  0.70928  0.00702  1.0000 0.0830249186
C   C974      1.0  0.36226  0.79532  0.01988  1.0000 0.3810974275
C   C975      1.0  0.30195  0.82049  0.03087  1.0000 0.3659435643
C   C976      1.0  0.33381  0.85487  0.01431  1.0000 0.3810974275
C   C977      1.0  0.33584  0.89084  0.00356  1.0000 -0.0218085795
C   C978      1.0  0.30450  0.92066  0.00322  1.0000 0.059145129
C   C979      1.0  0.33478  0.95834  0.98492  1.0000 0.0722078258
C   C980      1.0  0.36716  0.92994  0.98422  1.0000 -0.1274336713
C   C981      1.0  0.36824  0.89546  0.99282  1.0000 -0.0501697119
C   C982      1.0  0.20420  0.94592  0.05684  1.0000 0.2466005232
C   C983      1.0  0.25853  0.02127  0.04769  1.0000 0.054527964
C   C984      1.0  0.26401  0.01853  0.07659  1.0000 -0.014210653
C   C985      1.0  0.26835  0.98473  0.10473  1.0000 -0.06134746
C   C986      1.0  0.26741  0.95663  0.10251  1.0000 -0.1152145244
C   C987      1.0  0.26071  0.96153  0.07341  1.0000 0.0722078258
C   C988      1.0  0.26439  0.05045  0.07779  1.0000 0.3596194152
C   C989      1.0  0.97629  0.46061  0.33611  1.0000 0.2433098941
C   C990      1.0  0.04266  0.43576  0.20758  1.0000 0.0722078258
C   C991      1.0  0.05331  0.40311  0.20371  1.0000 -0.1364613329
C   C992      1.0  0.05078  0.37252  0.23402  1.0000 -0.06134746
C   C993      1.0  0.03777  0.37649  0.26767  1.0000 -0.0218085795
C   C994      1.0  0.02885  0.41047  0.26867  1.0000 0.059145129
C   C995      1.0  0.01188  0.29432  0.42784  1.0000 0.059145129
C   C996      1.0  0.01677  0.32253  0.39645  1.0000 -0.0250065033
C   C997      1.0  0.01600  0.35330  0.39782  1.0000 -0.06134746
C   C998      1.0  0.01191  0.35259  0.43001  1.0000 -0.1274336713
C   C999      1.0  0.00702  0.32264  0.46106  1.0000 0.0830249186
C   C1000     1.0  0.01988  0.32254  0.36226  1.0000 0.3810974275
C   C1001     1.0  0.03087  0.34669  0.30195  1.0000 0.3659435643
C   C1002     1.0  0.01431  0.29701  0.33381  1.0000 0.3810974275
C   C1003     1.0  0.00356  0.26976  0.33584  1.0000 -0.0218085795
C   C1004     1.0  0.00322  0.27162  0.30450  1.0000 0.059145129
C   C1005     1.0  0.98492  0.22196  0.33478  1.0000 0.0722078258
C   C1006     1.0  0.98422  0.21868  0.36716  1.0000 -0.1274336713
C   C1007     1.0  0.99282  0.24348  0.36824  1.0000 -0.0501697119
C   C1008     1.0  0.05684  0.29304  0.20420  1.0000 0.2466005232
C   C1009     1.0  0.04769  0.17251  0.25853  1.0000 0.054527964
C   C1010     1.0  0.07659  0.14087  0.26401  1.0000 -0.014210653
C   C1011     1.0  0.10473  0.14219  0.26835  1.0000 -0.06134746
C   C1012     1.0  0.10251  0.17345  0.26741  1.0000 -0.1152145244
C   C1013     1.0  0.07341  0.20435  0.26071  1.0000 0.0722078258
C   C1014     1.0  0.07779  0.10737  0.26439  1.0000 0.3596194152
C   C1015     1.0  0.46061  0.97629  0.72699  1.0000 0.2433098941
C   C1016     1.0  0.43576  0.04266  0.81400  1.0000 0.0722078258
C   C1017     1.0  0.40311  0.05331  0.83987  1.0000 -0.1364613329
C   C1018     1.0  0.37252  0.05078  0.84268  1.0000 -0.06134746
C   C1019     1.0  0.37649  0.03777  0.81807  1.0000 -0.0218085795
C   C1020     1.0  0.41047  0.02885  0.79201  1.0000 0.059145129
C   C1021     1.0  0.29432  0.01188  0.76596  1.0000 0.059145129
C   C1022     1.0  0.32253  0.01677  0.76425  1.0000 -0.0250065033
C   C1023     1.0  0.35330  0.01600  0.73288  1.0000 -0.06134746
C   C1024     1.0  0.35259  0.01191  0.70549  1.0000 -0.1274336713
C   C1025     1.0  0.32264  0.00702  0.70928  1.0000 0.0830249186
C   C1026     1.0  0.32254  0.01988  0.79532  1.0000 0.3810974275
C   C1027     1.0  0.34669  0.03087  0.82049  1.0000 0.3659435643
C   C1028     1.0  0.29701  0.01431  0.85487  1.0000 0.3810974275
C   C1029     1.0  0.26976  0.00356  0.89084  1.0000 -0.0218085795
C   C1030     1.0  0.27162  0.00322  0.92066  1.0000 0.059145129
C   C1031     1.0  0.22196  0.98492  0.95834  1.0000 0.0722078258
C   C1032     1.0  0.21868  0.98422  0.92994  1.0000 -0.1274336713
C   C1033     1.0  0.24348  0.99282  0.89546  1.0000 -0.0501697119
C   C1034     1.0  0.29304  0.05684  0.94592  1.0000 0.2466005232
C   C1035     1.0  0.17251  0.04769  0.02127  1.0000 0.054527964
C   C1036     1.0  0.14087  0.07659  0.01853  1.0000 -0.014210653
C   C1037     1.0  0.14219  0.10473  0.98473  1.0000 -0.06134746
C   C1038     1.0  0.17345  0.10251  0.95663  1.0000 -0.1152145244
C   C1039     1.0  0.20435  0.07341  0.96153  1.0000 0.0722078258
C   C1040     1.0  0.10737  0.07779  0.05045  1.0000 0.3596194152
C   C1041     1.0  0.97629  0.72699  0.46061  1.0000 0.2433098941
C   C1042     1.0  0.04266  0.81400  0.43576  1.0000 0.0722078258
C   C1043     1.0  0.05331  0.83987  0.40311  1.0000 -0.1364613329
C   C1044     1.0  0.05078  0.84268  0.37252  1.0000 -0.06134746
C   C1045     1.0  0.03777  0.81807  0.37649  1.0000 -0.0218085795
C   C1046     1.0  0.02885  0.79201  0.41047  1.0000 0.059145129
C   C1047     1.0  0.01188  0.76596  0.29432  1.0000 0.059145129
C   C1048     1.0  0.01677  0.76425  0.32253  1.0000 -0.0250065033
C   C1049     1.0  0.01600  0.73288  0.35330  1.0000 -0.06134746
C   C1050     1.0  0.01191  0.70549  0.35259  1.0000 -0.1274336713
C   C1051     1.0  0.00702  0.70928  0.32264  1.0000 0.0830249186
C   C1052     1.0  0.01988  0.79532  0.32254  1.0000 0.3810974275
C   C1053     1.0  0.03087  0.82049  0.34669  1.0000 0.3659435643
C   C1054     1.0  0.01431  0.85487  0.29701  1.0000 0.3810974275
C   C1055     1.0  0.00356  0.89084  0.26976  1.0000 -0.0218085795
C   C1056     1.0  0.00322  0.92066  0.27162  1.0000 0.059145129
C   C1057     1.0  0.98492  0.95834  0.22196  1.0000 0.0722078258
C   C1058     1.0  0.98422  0.92994  0.21868  1.0000 -0.1274336713
C   C1059     1.0  0.99282  0.89546  0.24348  1.0000 -0.0501697119
C   C1060     1.0  0.05684  0.94592  0.29304  1.0000 0.2466005232
C   C1061     1.0  0.04769  0.02127  0.17251  1.0000 0.054527964
C   C1062     1.0  0.07659  0.01853  0.14087  1.0000 -0.014210653
C   C1063     1.0  0.10473  0.98473  0.14219  1.0000 -0.06134746
C   C1064     1.0  0.10251  0.95663  0.17345  1.0000 -0.1152145244
C   C1065     1.0  0.07341  0.96153  0.20435  1.0000 0.0722078258
C   C1066     1.0  0.07779  0.05045  0.10737  1.0000 0.3596194152
C   C1067     1.0  0.46061  0.33611  0.97629  1.0000 0.2433098941
C   C1068     1.0  0.43576  0.20758  0.04266  1.0000 0.0722078258
C   C1069     1.0  0.40311  0.20371  0.05331  1.0000 -0.1364613329
C   C1070     1.0  0.37252  0.23402  0.05078  1.0000 -0.06134746
C   C1071     1.0  0.37649  0.26767  0.03777  1.0000 -0.0218085795
C   C1072     1.0  0.41047  0.26867  0.02885  1.0000 0.059145129
C   C1073     1.0  0.29432  0.42784  0.01188  1.0000 0.059145129
C   C1074     1.0  0.32253  0.39645  0.01677  1.0000 -0.0250065033
C   C1075     1.0  0.35330  0.39782  0.01600  1.0000 -0.06134746
C   C1076     1.0  0.35259  0.43001  0.01191  1.0000 -0.1274336713
C   C1077     1.0  0.32264  0.46106  0.00702  1.0000 0.0830249186
C   C1078     1.0  0.32254  0.36226  0.01988  1.0000 0.3810974275
C   C1079     1.0  0.34669  0.30195  0.03087  1.0000 0.3659435643
C   C1080     1.0  0.29701  0.33381  0.01431  1.0000 0.3810974275
C   C1081     1.0  0.26976  0.33584  0.00356  1.0000 -0.0218085795
C   C1082     1.0  0.27162  0.30450  0.00322  1.0000 0.059145129
C   C1083     1.0  0.22196  0.33478  0.98492  1.0000 0.0722078258
C   C1084     1.0  0.21868  0.36716  0.98422  1.0000 -0.1274336713
C   C1085     1.0  0.24348  0.36824  0.99282  1.0000 -0.0501697119
C   C1086     1.0  0.29304  0.20420  0.05684  1.0000 0.2466005232
C   C1087     1.0  0.17251  0.25853  0.04769  1.0000 0.054527964
C   C1088     1.0  0.14087  0.26401  0.07659  1.0000 -0.014210653
C   C1089     1.0  0.14219  0.26835  0.10473  1.0000 -0.06134746
C   C1090     1.0  0.17345  0.26741  0.10251  1.0000 -0.1152145244
C   C1091     1.0  0.20435  0.26071  0.07341  1.0000 0.0722078258
C   C1092     1.0  0.10737  0.26439  0.07779  1.0000 0.3596194152
C   C1093     1.0  0.72699  0.97629  0.33611  1.0000 0.2433098941
C   C1094     1.0  0.81400  0.04266  0.20758  1.0000 0.0722078258
C   C1095     1.0  0.83987  0.05331  0.20371  1.0000 -0.1364613329
C   C1096     1.0  0.84268  0.05078  0.23402  1.0000 -0.06134746
C   C1097     1.0  0.81807  0.03777  0.26767  1.0000 -0.0218085795
C   C1098     1.0  0.79201  0.02885  0.26867  1.0000 0.059145129
C   C1099     1.0  0.76596  0.01188  0.42784  1.0000 0.059145129
C   C1100     1.0  0.76425  0.01677  0.39645  1.0000 -0.0218085795
C   C1101     1.0  0.73288  0.01600  0.39782  1.0000 -0.06134746
C   C1102     1.0  0.70549  0.01191  0.43001  1.0000 -0.1274336713
C   C1103     1.0  0.70928  0.00702  0.46106  1.0000 0.0830249186
C   C1104     1.0  0.79532  0.01988  0.36226  1.0000 0.3810974275
C   C1105     1.0  0.82049  0.03087  0.30195  1.0000 0.3659435643
C   C1106     1.0  0.85487  0.01431  0.33381  1.0000 0.3810974275
C   C1107     1.0  0.89084  0.00356  0.33584  1.0000 -0.0218085795
C   C1108     1.0  0.92066  0.00322  0.30450  1.0000 0.059145129
C   C1109     1.0  0.95834  0.98492  0.33478  1.0000 0.0722078258
C   C1110     1.0  0.92994  0.98422  0.36716  1.0000 -0.1274336713
C   C1111     1.0  0.89546  0.99282  0.36824  1.0000 -0.0501697119
C   C1112     1.0  0.94592  0.05684  0.20420  1.0000 0.2466005232
C   C1113     1.0  0.02127  0.04769  0.25853  1.0000 0.054527964
C   C1114     1.0  0.01853  0.07659  0.26401  1.0000 -0.014210653
C   C1115     1.0  0.98473  0.10473  0.26835  1.0000 -0.06134746
C   C1116     1.0  0.95663  0.10251  0.26741  1.0000 -0.1147651453
C   C1117     1.0  0.96153  0.07341  0.26071  1.0000 0.0722078258
C   C1118     1.0  0.05045  0.07779  0.26439  1.0000 0.3596194152
C   C1119     1.0  0.33611  0.46061  0.72699  1.0000 0.2433098941
C   C1120     1.0  0.20758  0.43576  0.81400  1.0000 0.0722078258
C   C1121     1.0  0.20371  0.40311  0.83987  1.0000 -0.1364613329
C   C1122     1.0  0.23402  0.37252  0.84268  1.0000 -0.06134746
C   C1123     1.0  0.26767  0.37649  0.81807  1.0000 -0.0218085795
C   C1124     1.0  0.26867  0.41047  0.79201  1.0000 0.059145129
C   C1125     1.0  0.42784  0.29432  0.76596  1.0000 0.059145129
C   C1126     1.0  0.39645  0.32253  0.76425  1.0000 -0.0218085795
C   C1127     1.0  0.39782  0.35330  0.73288  1.0000 -0.06134746
C   C1128     1.0  0.43001  0.35259  0.70549  1.0000 -0.1274336713
C   C1129     1.0  0.46106  0.32264  0.70928  1.0000 0.0830249186
C   C1130     1.0  0.36226  0.32254  0.79532  1.0000 0.3810974275
C   C1131     1.0  0.30195  0.34669  0.82049  1.0000 0.3659435643
C   C1132     1.0  0.33381  0.29701  0.85487  1.0000 0.3810974275
C   C1133     1.0  0.33584  0.26976  0.89084  1.0000 -0.0218085795
C   C1134     1.0  0.30450  0.27162  0.92066  1.0000 0.059145129
C   C1135     1.0  0.33478  0.22196  0.95834  1.0000 0.0722078258
C   C1136     1.0  0.36716  0.21868  0.92994  1.0000 -0.1274336713
C   C1137     1.0  0.36824  0.24348  0.89546  1.0000 -0.0501697119
C   C1138     1.0  0.20420  0.29304  0.94592  1.0000 0.2466005232
C   C1139     1.0  0.25853  0.17251  0.02127  1.0000 0.054527964
C   C1140     1.0  0.26401  0.14087  0.01853  1.0000 -0.014210653
C   C1141     1.0  0.26835  0.14219  0.98473  1.0000 -0.06134746
C   C1142     1.0  0.26741  0.17345  0.95663  1.0000 -0.1152145244
C   C1143     1.0  0.26071  0.20435  0.96153  1.0000 0.0722078258
C   C1144     1.0  0.26439  0.10737  0.05045  1.0000 0.3596194152
C   C1145     1.0  0.33611  0.97629  0.46061  1.0000 0.2433098941
C   C1146     1.0  0.20758  0.04266  0.43576  1.0000 0.0722078258
C   C1147     1.0  0.20371  0.05331  0.40311  1.0000 -0.1364613329
C   C1148     1.0  0.23402  0.05078  0.37252  1.0000 -0.06134746
C   C1149     1.0  0.26767  0.03777  0.37649  1.0000 -0.0218085795
C   C1150     1.0  0.26867  0.02885  0.41047  1.0000 0.059145129
C   C1151     1.0  0.42784  0.01188  0.29432  1.0000 0.059145129
C   C1152     1.0  0.39645  0.01677  0.32253  1.0000 -0.0218085795
C   C1153     1.0  0.39782  0.01600  0.35330  1.0000 -0.06134746
C   C1154     1.0  0.43001  0.01191  0.35259  1.0000 -0.1274336713
C   C1155     1.0  0.46106  0.00702  0.32264  1.0000 0.0830249186
C   C1156     1.0  0.36226  0.01988  0.32254  1.0000 0.3810974275
C   C1157     1.0  0.30195  0.03087  0.34669  1.0000 0.3659435643
C   C1158     1.0  0.33381  0.01431  0.29701  1.0000 0.3810974275
C   C1159     1.0  0.33584  0.00356  0.26976  1.0000 -0.0218085795
C   C1160     1.0  0.30450  0.00322  0.27162  1.0000 0.059145129
C   C1161     1.0  0.33478  0.98492  0.22196  1.0000 0.0722078258
C   C1162     1.0  0.36716  0.98422  0.21868  1.0000 -0.1274336713
C   C1163     1.0  0.36824  0.99282  0.24348  1.0000 -0.0501697119
C   C1164     1.0  0.20420  0.05684  0.29304  1.0000 0.2466005232
C   C1165     1.0  0.25853  0.04769  0.17251  1.0000 0.054527964
C   C1166     1.0  0.26401  0.07659  0.14087  1.0000 -0.014210653
C   C1167     1.0  0.26835  0.10473  0.14219  1.0000 -0.06134746
C   C1168     1.0  0.26741  0.10251  0.17345  1.0000 -0.1152145244
C   C1169     1.0  0.26071  0.07341  0.20435  1.0000 0.0722078258
C   C1170     1.0  0.26439  0.07779  0.10737  1.0000 0.3596194152
C   C1171     1.0  0.72699  0.46061  0.97629  1.0000 0.2433098941
C   C1172     1.0  0.81400  0.43576  0.04266  1.0000 0.0722078258
C   C1173     1.0  0.83987  0.40311  0.05331  1.0000 -0.1364613329
C   C1174     1.0  0.84268  0.37252  0.05078  1.0000 -0.06134746
C   C1175     1.0  0.81807  0.37649  0.03777  1.0000 -0.0218085795
C   C1176     1.0  0.79201  0.41047  0.02885  1.0000 0.059145129
C   C1177     1.0  0.76596  0.29432  0.01188  1.0000 0.059145129
C   C1178     1.0  0.76425  0.32253  0.01677  1.0000 -0.0218085795
C   C1179     1.0  0.73288  0.35330  0.01600  1.0000 -0.06134746
C   C1180     1.0  0.70549  0.35259  0.01191  1.0000 -0.1274336713
C   C1181     1.0  0.70928  0.32264  0.00702  1.0000 0.0830249186
C   C1182     1.0  0.79532  0.32254  0.01988  1.0000 0.3810974275
C   C1183     1.0  0.82049  0.34669  0.03087  1.0000 0.3659435643
C   C1184     1.0  0.85487  0.29701  0.01431  1.0000 0.3810974275
C   C1185     1.0  0.89084  0.26976  0.00356  1.0000 -0.0218085795
C   C1186     1.0  0.92066  0.27162  0.00322  1.0000 0.059145129
C   C1187     1.0  0.95834  0.22196  0.98492  1.0000 0.0722078258
C   C1188     1.0  0.92994  0.21868  0.98422  1.0000 -0.1274336713
C   C1189     1.0  0.89546  0.24348  0.99282  1.0000 -0.0501697119
C   C1190     1.0  0.94592  0.29304  0.05684  1.0000 0.2466005232
C   C1191     1.0  0.02127  0.17251  0.04769  1.0000 0.054527964
C   C1192     1.0  0.01853  0.14087  0.07659  1.0000 -0.014210653
C   C1193     1.0  0.98473  0.14219  0.10473  1.0000 -0.06134746
C   C1194     1.0  0.95663  0.17345  0.10251  1.0000 -0.1147651453
C   C1195     1.0  0.96153  0.20435  0.07341  1.0000 0.0722078258
C   C1196     1.0  0.05045  0.10737  0.07779  1.0000 0.3596194152
C   C1197     1.0  0.46061  0.72699  0.33611  1.0000 0.2433098941
C   C1198     1.0  0.43576  0.81400  0.20758  1.0000 0.0722078258
C   C1199     1.0  0.40311  0.83987  0.20371  1.0000 -0.1364613329
C   C1200     1.0  0.37252  0.84268  0.23402  1.0000 -0.06134746
C   C1201     1.0  0.37649  0.81807  0.26767  1.0000 -0.0218085795
C   C1202     1.0  0.41047  0.79201  0.26867  1.0000 0.059145129
C   C1203     1.0  0.29432  0.76596  0.42784  1.0000 0.059145129
C   C1204     1.0  0.32253  0.76425  0.39645  1.0000 -0.0250065033
C   C1205     1.0  0.35330  0.73288  0.39782  1.0000 -0.06134746
C   C1206     1.0  0.35259  0.70549  0.43001  1.0000 -0.1274336713
C   C1207     1.0  0.32264  0.70928  0.46106  1.0000 0.0830249186
C   C1208     1.0  0.32254  0.79532  0.36226  1.0000 0.3810974275
C   C1209     1.0  0.34669  0.82049  0.30195  1.0000 0.3659435643
C   C1210     1.0  0.29701  0.85487  0.33381  1.0000 0.3810974275
C   C1211     1.0  0.26976  0.89084  0.33584  1.0000 -0.0218085795
C   C1212     1.0  0.27162  0.92066  0.30450  1.0000 0.059145129
C   C1213     1.0  0.22196  0.95834  0.33478  1.0000 0.0722078258
C   C1214     1.0  0.21868  0.92994  0.36716  1.0000 -0.1274336713
C   C1215     1.0  0.24348  0.89546  0.36824  1.0000 -0.0501697119
C   C1216     1.0  0.29304  0.94592  0.20420  1.0000 0.2466005232
C   C1217     1.0  0.17251  0.02127  0.25853  1.0000 0.054527964
C   C1218     1.0  0.14087  0.01853  0.26401  1.0000 -0.014210653
C   C1219     1.0  0.14219  0.98473  0.26835  1.0000 -0.06134746
C   C1220     1.0  0.17345  0.95663  0.26741  1.0000 -0.1152145244
C   C1221     1.0  0.20435  0.96153  0.26071  1.0000 0.0722078258
C   C1222     1.0  0.10737  0.05045  0.26439  1.0000 0.3596194152
C   C1223     1.0  0.97629  0.33611  0.72699  1.0000 0.2433098941
C   C1224     1.0  0.04266  0.20758  0.81400  1.0000 0.0722078258
C   C1225     1.0  0.05331  0.20371  0.83987  1.0000 -0.1364613329
C   C1226     1.0  0.05078  0.23402  0.84268  1.0000 -0.06134746
C   C1227     1.0  0.03777  0.26767  0.81807  1.0000 -0.0218085795
C   C1228     1.0  0.02885  0.26867  0.79201  1.0000 0.059145129
C   C1229     1.0  0.01188  0.42784  0.76596  1.0000 0.059145129
C   C1230     1.0  0.01677  0.39645  0.76425  1.0000 -0.0250065033
C   C1231     1.0  0.01600  0.39782  0.73288  1.0000 -0.06134746
C   C1232     1.0  0.01191  0.43001  0.70549  1.0000 -0.1274336713
C   C1233     1.0  0.00702  0.46106  0.70928  1.0000 0.0830249186
C   C1234     1.0  0.01988  0.36226  0.79532  1.0000 0.3810974275
C   C1235     1.0  0.03087  0.30195  0.82049  1.0000 0.3659435643
C   C1236     1.0  0.01431  0.33381  0.85487  1.0000 0.3810974275
C   C1237     1.0  0.00356  0.33584  0.89084  1.0000 -0.0218085795
C   C1238     1.0  0.00322  0.30450  0.92066  1.0000 0.059145129
C   C1239     1.0  0.98492  0.33478  0.95834  1.0000 0.0722078258
C   C1240     1.0  0.98422  0.36716  0.92994  1.0000 -0.1274336713
C   C1241     1.0  0.99282  0.36824  0.89546  1.0000 -0.0501697119
C   C1242     1.0  0.05684  0.20420  0.94592  1.0000 0.2466005232
C   C1243     1.0  0.04769  0.25853  0.02127  1.0000 0.054527964
C   C1244     1.0  0.07659  0.26401  0.01853  1.0000 -0.014210653
C   C1245     1.0  0.10473  0.26835  0.98473  1.0000 -0.06134746
C   C1246     1.0  0.10251  0.26741  0.95663  1.0000 -0.1152145244
C   C1247     1.0  0.07341  0.26071  0.96153  1.0000 0.0722078258
C   C1248     1.0  0.07779  0.26439  0.05045  1.0000 0.3596194152
S   S1        1.0  0.20341  0.87929  0.46641  1.0000 -0.4012803637
S   S2        1.0  0.41915  0.68119  0.59081  1.0000 -0.4087753077
S   S3        1.0  0.87929  0.20341  0.95089  1.0000 -0.4012803637
S   S4        1.0  0.68119  0.41915  0.80885  1.0000 -0.4087753077
S   S5        1.0  0.46641  0.95089  0.20341  1.0000 -0.4012803637
S   S6        1.0  0.59081  0.80885  0.41915  1.0000 -0.4087753077
S   S7        1.0  0.95089  0.46641  0.87929  1.0000 -0.4012803637
S   S8        1.0  0.80885  0.59081  0.68119  1.0000 -0.4087753077
S   S9        1.0  0.46641  0.20341  0.87929  1.0000 -0.4012803637
S   S10       1.0  0.59081  0.41915  0.68119  1.0000 -0.4087753077
S   S11       1.0  0.95089  0.87929  0.20341  1.0000 -0.4012803637
S   S12       1.0  0.80885  0.68119  0.41915  1.0000 -0.4087753077
S   S13       1.0  0.20341  0.46641  0.95089  1.0000 -0.4012803637
S   S14       1.0  0.41915  0.59081  0.80885  1.0000 -0.4087753077
S   S15       1.0  0.87929  0.95089  0.46641  1.0000 -0.4012803637
S   S16       1.0  0.68119  0.80885  0.59081  1.0000 -0.4087753077
S   S17       1.0  0.87929  0.46641  0.20341  1.0000 -0.4012803637
S   S18       1.0  0.68119  0.59081  0.41915  1.0000 -0.4087753077
S   S19       1.0  0.20341  0.95089  0.87929  1.0000 -0.4012803637
S   S20       1.0  0.41915  0.80885  0.68119  1.0000 -0.4087753077
S   S21       1.0  0.95089  0.20341  0.46641  1.0000 -0.4012803637
S   S22       1.0  0.80885  0.41915  0.59081  1.0000 -0.4087753077
S   S23       1.0  0.46641  0.87929  0.95089  1.0000 -0.4012803637
S   S24       1.0  0.59081  0.68119  0.80885  1.0000 -0.4087753077
S   S25       1.0  0.29659  0.62071  0.54911  1.0000 -0.4087753077
S   S26       1.0  0.08085  0.81881  0.69115  1.0000 -0.4087753077
S   S27       1.0  0.62071  0.29659  0.03359  1.0000 -0.4012803637
S   S28       1.0  0.81881  0.08085  0.90919  1.0000 -0.4087753077
S   S29       1.0  0.03359  0.54911  0.62071  1.0000 -0.4012803637
S   S30       1.0  0.90919  0.69115  0.81881  1.0000 -0.4087753077
S   S31       1.0  0.54911  0.03359  0.29659  1.0000 -0.4012803637
S   S32       1.0  0.69115  0.90919  0.08085  1.0000 -0.4087753077
S   S33       1.0  0.03359  0.29659  0.54911  1.0000 -0.4087753077
S   S34       1.0  0.90919  0.08085  0.69115  1.0000 -0.4087753077
S   S35       1.0  0.54911  0.62071  0.03359  1.0000 -0.4012803637
S   S36       1.0  0.69115  0.81881  0.90919  1.0000 -0.4087753077
S   S37       1.0  0.29659  0.03359  0.62071  1.0000 -0.4012803637
S   S38       1.0  0.08085  0.90919  0.81881  1.0000 -0.4087753077
S   S39       1.0  0.62071  0.54911  0.29659  1.0000 -0.4012803637
S   S40       1.0  0.81881  0.69115  0.08085  1.0000 -0.4087753077
S   S41       1.0  0.62071  0.03359  0.54911  1.0000 -0.4087753077
S   S42       1.0  0.81881  0.90919  0.69115  1.0000 -0.4087753077
S   S43       1.0  0.29659  0.54911  0.03359  1.0000 -0.4012803637
S   S44       1.0  0.08085  0.69115  0.90919  1.0000 -0.4087753077
S   S45       1.0  0.54911  0.29659  0.62071  1.0000 -0.4012803637
S   S46       1.0  0.69115  0.08085  0.81881  1.0000 -0.4087753077
S   S47       1.0  0.03359  0.62071  0.29659  1.0000 -0.4012803637
S   S48       1.0  0.90919  0.81881  0.08085  1.0000 -0.4087753077
S   S49       1.0  0.79659  0.12071  0.53359  1.0000 -0.4012803637
S   S50       1.0  0.58085  0.31881  0.40919  1.0000 -0.4087753077
S   S51       1.0  0.12071  0.79659  0.04911  1.0000 -0.4012803637
S   S52       1.0  0.31881  0.58085  0.19115  1.0000 -0.4087753077
S   S53       1.0  0.53359  0.04911  0.79659  1.0000 -0.4012803637
S   S54       1.0  0.40919  0.19115  0.58085  1.0000 -0.4087753077
S   S55       1.0  0.04911  0.53359  0.12071  1.0000 -0.4012803637
S   S56       1.0  0.19115  0.40919  0.31881  1.0000 -0.4087753077
S   S57       1.0  0.53359  0.79659  0.12071  1.0000 -0.4012803637
S   S58       1.0  0.40919  0.58085  0.31881  1.0000 -0.4087753077
S   S59       1.0  0.04911  0.12071  0.79659  1.0000 -0.4012803637
S   S60       1.0  0.19115  0.31881  0.58085  1.0000 -0.4087753077
S   S61       1.0  0.79659  0.53359  0.04911  1.0000 -0.4012803637
S   S62       1.0  0.58085  0.40919  0.19115  1.0000 -0.4087753077
S   S63       1.0  0.12071  0.04911  0.53359  1.0000 -0.4012803637
S   S64       1.0  0.31881  0.19115  0.40919  1.0000 -0.4087753077
S   S65       1.0  0.12071  0.53359  0.79659  1.0000 -0.4012803637
S   S66       1.0  0.31881  0.40919  0.58085  1.0000 -0.4087753077
S   S67       1.0  0.79659  0.04911  0.12071  1.0000 -0.4012803637
S   S68       1.0  0.58085  0.19115  0.31881  1.0000 -0.4087753077
S   S69       1.0  0.04911  0.79659  0.53359  1.0000 -0.4012803637
S   S70       1.0  0.19115  0.58085  0.40919  1.0000 -0.4087753077
S   S71       1.0  0.53359  0.12071  0.04911  1.0000 -0.4012803637
S   S72       1.0  0.40919  0.31881  0.19115  1.0000 -0.4087753077
S   S73       1.0  0.70341  0.37929  0.45089  1.0000 -0.4012803637
S   S74       1.0  0.91915  0.18119  0.30885  1.0000 -0.4087753077
S   S75       1.0  0.37929  0.70341  0.96641  1.0000 -0.4012803637
S   S76       1.0  0.18119  0.91915  0.09081  1.0000 -0.4087753077
S   S77       1.0  0.96641  0.45089  0.37929  1.0000 -0.4087753077
S   S78       1.0  0.09081  0.30885  0.18119  1.0000 -0.4087753077
S   S79       1.0  0.45089  0.96641  0.70341  1.0000 -0.4012803637
S   S80       1.0  0.30885  0.09081  0.91915  1.0000 -0.4087753077
S   S81       1.0  0.96641  0.70341  0.45089  1.0000 -0.4012803637
S   S82       1.0  0.09081  0.91915  0.30885  1.0000 -0.4087753077
S   S83       1.0  0.45089  0.37929  0.96641  1.0000 -0.4012803637
S   S84       1.0  0.30885  0.18119  0.09081  1.0000 -0.4087753077
S   S85       1.0  0.70341  0.96641  0.37929  1.0000 -0.4012803637
S   S86       1.0  0.91915  0.09081  0.18119  1.0000 -0.4087753077
S   S87       1.0  0.37929  0.45089  0.70341  1.0000 -0.4012803637
S   S88       1.0  0.18119  0.30885  0.91915  1.0000 -0.4087753077
S   S89       1.0  0.37929  0.96641  0.45089  1.0000 -0.4012803637
S   S90       1.0  0.18119  0.09081  0.30885  1.0000 -0.4087753077
S   S91       1.0  0.70341  0.45089  0.96641  1.0000 -0.4012803637
S   S92       1.0  0.91915  0.30885  0.09081  1.0000 -0.4087753077
S   S93       1.0  0.45089  0.70341  0.37929  1.0000 -0.4012803637
S   S94       1.0  0.30885  0.91915  0.18119  1.0000 -0.4087753077
S   S95       1.0  0.96641  0.37929  0.70341  1.0000 -0.4012803637
S   S96       1.0  0.09081  0.18119  0.91915  1.0000 -0.4087753077
N   N1        1.0  0.24233  0.80511  0.48441  1.0000 -0.4759898213
N   N2        1.0  0.29036  0.73930  0.53056  1.0000 -0.2089388165
N   N3        1.0  0.23965  0.96045  0.50653  1.0000 -0.2089388165
N   N4        1.0  0.29073  0.83163  0.52881  1.0000 -0.4087753077
N   N5        1.0  0.35304  0.80178  0.52426  1.0000 -0.4087753077
N   N6        1.0  0.32700  0.86548  0.51158  1.0000 -0.4163752128
N   N7        1.0  0.45372  0.80366  0.49412  1.0000 -0.2034578626
N   N8        1.0  0.46430  0.72058  0.53400  1.0000 -0.4728964527
N   N9        1.0  0.49344  0.75670  0.54578  1.0000 -0.2089388165
N   N10       1.0  0.57916  0.76518  0.54786  1.0000 -0.4012803637
N   N11       1.0  0.80511  0.24233  0.96815  1.0000 -0.4759898213
N   N12       1.0  0.73930  0.29036  0.93978  1.0000 -0.2089388165
N   N13       1.0  0.96045  0.23965  0.79337  1.0000 -0.2089388165
N   N14       1.0  0.83163  0.29073  0.84883  1.0000 -0.4087753077
N   N15       1.0  0.80178  0.35304  0.82092  1.0000 -0.4087753077
N   N16       1.0  0.86548  0.32700  0.79594  1.0000 -0.4163752128
N   N17       1.0  0.80366  0.45372  0.74850  1.0000 -0.2034578626
N   N18       1.0  0.72058  0.46430  0.78112  1.0000 -0.4728964527
N   N19       1.0  0.75670  0.49344  0.70408  1.0000 -0.2089388165
N   N20       1.0  0.76518  0.57916  0.60780  1.0000 -0.4012803637
N   N21       1.0  0.48441  0.96815  0.24233  1.0000 -0.4759898213
N   N22       1.0  0.53056  0.93978  0.29036  1.0000 -0.2089388165
N   N23       1.0  0.50653  0.79337  0.23965  1.0000 -0.2089388165
N   N24       1.0  0.52881  0.84883  0.29073  1.0000 -0.4087753077
N   N25       1.0  0.52426  0.82092  0.35304  1.0000 -0.4087753077
N   N26       1.0  0.51158  0.79594  0.32700  1.0000 -0.4163752128
N   N27       1.0  0.49412  0.74850  0.45372  1.0000 -0.2034578626
N   N28       1.0  0.53400  0.78112  0.46430  1.0000 -0.4728964527
N   N29       1.0  0.54578  0.70408  0.49344  1.0000 -0.2089388165
N   N30       1.0  0.54786  0.60780  0.57916  1.0000 -0.4012803637
N   N31       1.0  0.96815  0.48441  0.80511  1.0000 -0.4759898213
N   N32       1.0  0.93978  0.53056  0.73930  1.0000 -0.2089388165
N   N33       1.0  0.79337  0.50653  0.96045  1.0000 -0.2089388165
N   N34       1.0  0.84883  0.52881  0.83163  1.0000 -0.4087753077
N   N35       1.0  0.82092  0.52426  0.80178  1.0000 -0.4087753077
N   N36       1.0  0.79594  0.51158  0.86548  1.0000 -0.4163752128
N   N37       1.0  0.74850  0.49412  0.80366  1.0000 -0.2034578626
N   N38       1.0  0.78112  0.53400  0.72058  1.0000 -0.4728964527
N   N39       1.0  0.70408  0.54578  0.75670  1.0000 -0.2089388165
N   N40       1.0  0.60780  0.54786  0.76518  1.0000 -0.4012803637
N   N41       1.0  0.48441  0.24233  0.80511  1.0000 -0.4759898213
N   N42       1.0  0.53056  0.29036  0.73930  1.0000 -0.2089388165
N   N43       1.0  0.50653  0.23965  0.96045  1.0000 -0.2089388165
N   N44       1.0  0.52881  0.29073  0.83163  1.0000 -0.4087753077
N   N45       1.0  0.52426  0.35304  0.80178  1.0000 -0.4087753077
N   N46       1.0  0.51158  0.32700  0.86548  1.0000 -0.4163752128
N   N47       1.0  0.49412  0.45372  0.80366  1.0000 -0.2034578626
N   N48       1.0  0.53400  0.46430  0.72058  1.0000 -0.4728964527
N   N49       1.0  0.54578  0.49344  0.75670  1.0000 -0.2089388165
N   N50       1.0  0.54786  0.57916  0.76518  1.0000 -0.4012803637
N   N51       1.0  0.96815  0.80511  0.24233  1.0000 -0.4759898213
N   N52       1.0  0.93978  0.73930  0.29036  1.0000 -0.2089388165
N   N53       1.0  0.79337  0.96045  0.23965  1.0000 -0.2089388165
N   N54       1.0  0.84883  0.83163  0.29073  1.0000 -0.4087753077
N   N55       1.0  0.82092  0.80178  0.35304  1.0000 -0.4087753077
N   N56       1.0  0.79594  0.86548  0.32700  1.0000 -0.4163752128
N   N57       1.0  0.74850  0.80366  0.45372  1.0000 -0.2034578626
N   N58       1.0  0.78112  0.72058  0.46430  1.0000 -0.4728964527
N   N59       1.0  0.70408  0.75670  0.49344  1.0000 -0.2089388165
N   N60       1.0  0.60780  0.76518  0.57916  1.0000 -0.4012803637
N   N61       1.0  0.24233  0.48441  0.96815  1.0000 -0.4759898213
N   N62       1.0  0.29036  0.53056  0.93978  1.0000 -0.2089388165
N   N63       1.0  0.23965  0.50653  0.79337  1.0000 -0.2089388165
N   N64       1.0  0.29073  0.52881  0.84883  1.0000 -0.4087753077
N   N65       1.0  0.35304  0.52426  0.82092  1.0000 -0.4087753077
N   N66       1.0  0.32700  0.51158  0.79594  1.0000 -0.4163752128
N   N67       1.0  0.45372  0.49412  0.74850  1.0000 -0.2034578626
N   N68       1.0  0.46430  0.53400  0.78112  1.0000 -0.4728964527
N   N69       1.0  0.49344  0.54578  0.70408  1.0000 -0.2089388165
N   N70       1.0  0.57916  0.54786  0.60780  1.0000 -0.4012803637
N   N71       1.0  0.80511  0.96815  0.48441  1.0000 -0.4759898213
N   N72       1.0  0.73930  0.93978  0.53056  1.0000 -0.2089388165
N   N73       1.0  0.96045  0.79337  0.50653  1.0000 -0.2089388165
N   N74       1.0  0.83163  0.84883  0.52881  1.0000 -0.4087753077
N   N75       1.0  0.80178  0.82092  0.52426  1.0000 -0.4087753077
N   N76       1.0  0.86548  0.79594  0.51158  1.0000 -0.4163752128
N   N77       1.0  0.80366  0.74850  0.49412  1.0000 -0.2034578626
N   N78       1.0  0.72058  0.78112  0.53400  1.0000 -0.4728964527
N   N79       1.0  0.75670  0.70408  0.54578  1.0000 -0.2089388165
N   N80       1.0  0.76518  0.60780  0.54786  1.0000 -0.4012803637
N   N81       1.0  0.80511  0.48441  0.24233  1.0000 -0.4759898213
N   N82       1.0  0.73930  0.53056  0.29036  1.0000 -0.2089388165
N   N83       1.0  0.96045  0.50653  0.23965  1.0000 -0.2089388165
N   N84       1.0  0.83163  0.52881  0.29073  1.0000 -0.4087753077
N   N85       1.0  0.80178  0.52426  0.35304  1.0000 -0.4087753077
N   N86       1.0  0.86548  0.51158  0.32700  1.0000 -0.4163752128
N   N87       1.0  0.80366  0.49412  0.45372  1.0000 -0.2034578626
N   N88       1.0  0.72058  0.53400  0.46430  1.0000 -0.4728964527
N   N89       1.0  0.75670  0.54578  0.49344  1.0000 -0.2089388165
N   N90       1.0  0.76518  0.54786  0.57916  1.0000 -0.4012803637
N   N91       1.0  0.24233  0.96815  0.80511  1.0000 -0.4759898213
N   N92       1.0  0.29036  0.93978  0.73930  1.0000 -0.2089388165
N   N93       1.0  0.23965  0.79337  0.96045  1.0000 -0.2089388165
N   N94       1.0  0.29073  0.84883  0.83163  1.0000 -0.4087753077
N   N95       1.0  0.35304  0.82092  0.80178  1.0000 -0.4087753077
N   N96       1.0  0.32700  0.79594  0.86548  1.0000 -0.4163752128
N   N97       1.0  0.45372  0.74850  0.80366  1.0000 -0.2034578626
N   N98       1.0  0.46430  0.78112  0.72058  1.0000 -0.4728964527
N   N99       1.0  0.49344  0.70408  0.75670  1.0000 -0.2089388165
N   N100      1.0  0.57916  0.60780  0.76518  1.0000 -0.4012803637
N   N101      1.0  0.96815  0.24233  0.48441  1.0000 -0.4759898213
N   N102      1.0  0.93978  0.29036  0.53056  1.0000 -0.2089388165
N   N103      1.0  0.79337  0.23965  0.50653  1.0000 -0.2089388165
N   N104      1.0  0.84883  0.29073  0.52881  1.0000 -0.4087753077
N   N105      1.0  0.82092  0.35304  0.52426  1.0000 -0.4087753077
N   N106      1.0  0.79594  0.32700  0.51158  1.0000 -0.4163752128
N   N107      1.0  0.74850  0.45372  0.49412  1.0000 -0.2034578626
N   N108      1.0  0.78112  0.46430  0.53400  1.0000 -0.4728964527
N   N109      1.0  0.70408  0.49344  0.54578  1.0000 -0.2089388165
N   N110      1.0  0.60780  0.57916  0.54786  1.0000 -0.4012803637
N   N111      1.0  0.48441  0.80511  0.96815  1.0000 -0.4759898213
N   N112      1.0  0.53056  0.73930  0.93978  1.0000 -0.2089388165
N   N113      1.0  0.50653  0.96045  0.79337  1.0000 -0.2089388165
N   N114      1.0  0.52881  0.83163  0.84883  1.0000 -0.4087753077
N   N115      1.0  0.52426  0.80178  0.82092  1.0000 -0.4087753077
N   N116      1.0  0.51158  0.86548  0.79594  1.0000 -0.4163752128
N   N117      1.0  0.49412  0.80366  0.74850  1.0000 -0.2034578626
N   N118      1.0  0.53400  0.72058  0.78112  1.0000 -0.4728964527
N   N119      1.0  0.54578  0.75670  0.70408  1.0000 -0.2089388165
N   N120      1.0  0.54786  0.76518  0.60780  1.0000 -0.4012803637
N   N121      1.0  0.25767  0.69489  0.53185  1.0000 -0.4759898213
N   N122      1.0  0.20964  0.76070  0.56022  1.0000 -0.2089388165
N   N123      1.0  0.26035  0.53955  0.70663  1.0000 -0.2089388165
N   N124      1.0  0.20927  0.66837  0.65117  1.0000 -0.4087753077
N   N125      1.0  0.14696  0.69822  0.67908  1.0000 -0.4087753077
N   N126      1.0  0.17300  0.63452  0.70406  1.0000 -0.4163752128
N   N127      1.0  0.04628  0.69634  0.75150  1.0000 -0.2034578626
N   N128      1.0  0.03570  0.77942  0.71888  1.0000 -0.4728964527
N   N129      1.0  0.00656  0.74330  0.79592  1.0000 -0.2089388165
N   N130      1.0  0.92084  0.73482  0.89220  1.0000 -0.4012803637
N   N131      1.0  0.69489  0.25767  0.01559  1.0000 -0.4759898213
N   N132      1.0  0.76070  0.20964  0.96944  1.0000 -0.2089388165
N   N133      1.0  0.53955  0.26035  0.99347  1.0000 -0.2089388165
N   N134      1.0  0.66837  0.20927  0.97119  1.0000 -0.4087753077
N   N135      1.0  0.69822  0.14696  0.97574  1.0000 -0.4087753077
N   N136      1.0  0.63452  0.17300  0.98842  1.0000 -0.4163752128
N   N137      1.0  0.69634  0.04628  0.00588  1.0000 -0.2034578626
N   N138      1.0  0.77942  0.03570  0.96600  1.0000 -0.4728964527
N   N139      1.0  0.74330  0.00656  0.95422  1.0000 -0.2089388165
N   N140      1.0  0.73482  0.92084  0.95214  1.0000 -0.4012803637
N   N141      1.0  0.01559  0.53185  0.69489  1.0000 -0.4759898213
N   N142      1.0  0.96944  0.56022  0.76070  1.0000 -0.2089388165
N   N143      1.0  0.99347  0.70663  0.53955  1.0000 -0.2089388165
N   N144      1.0  0.97119  0.65117  0.66837  1.0000 -0.4087753077
N   N145      1.0  0.97574  0.67908  0.69822  1.0000 -0.4087753077
N   N146      1.0  0.98842  0.70406  0.63452  1.0000 -0.4163752128
N   N147      1.0  0.00588  0.75150  0.69634  1.0000 -0.2034578626
N   N148      1.0  0.96600  0.71888  0.77942  1.0000 -0.4728964527
N   N149      1.0  0.95422  0.79592  0.74330  1.0000 -0.2089388165
N   N150      1.0  0.95214  0.89220  0.73482  1.0000 -0.4012803637
N   N151      1.0  0.53185  0.01559  0.25767  1.0000 -0.4759898213
N   N152      1.0  0.56022  0.96944  0.20964  1.0000 -0.2089388165
N   N153      1.0  0.70663  0.99347  0.26035  1.0000 -0.2089388165
N   N154      1.0  0.65117  0.97119  0.20927  1.0000 -0.4087753077
N   N155      1.0  0.67908  0.97574  0.14696  1.0000 -0.4087753077
N   N156      1.0  0.70406  0.98842  0.17300  1.0000 -0.4163752128
N   N157      1.0  0.75150  0.00588  0.04628  1.0000 -0.2034578626
N   N158      1.0  0.71888  0.96600  0.03570  1.0000 -0.4728964527
N   N159      1.0  0.79592  0.95422  0.00656  1.0000 -0.2089388165
N   N160      1.0  0.89220  0.95214  0.92084  1.0000 -0.4012803637
N   N161      1.0  0.01559  0.25767  0.53185  1.0000 -0.4728964527
N   N162      1.0  0.96944  0.20964  0.56022  1.0000 -0.2089388165
N   N163      1.0  0.99347  0.26035  0.70663  1.0000 -0.2089388165
N   N164      1.0  0.97119  0.20927  0.65117  1.0000 -0.4087753077
N   N165      1.0  0.97574  0.14696  0.67908  1.0000 -0.4087753077
N   N166      1.0  0.98842  0.17300  0.70406  1.0000 -0.4163752128
N   N167      1.0  0.00588  0.04628  0.75150  1.0000 -0.2034578626
N   N168      1.0  0.96600  0.03570  0.71888  1.0000 -0.4728964527
N   N169      1.0  0.95422  0.00656  0.79592  1.0000 -0.2089388165
N   N170      1.0  0.95214  0.92084  0.89220  1.0000 -0.4012803637
N   N171      1.0  0.53185  0.69489  0.01559  1.0000 -0.4759898213
N   N172      1.0  0.56022  0.76070  0.96944  1.0000 -0.2089388165
N   N173      1.0  0.70663  0.53955  0.99347  1.0000 -0.2089388165
N   N174      1.0  0.65117  0.66837  0.97119  1.0000 -0.4087753077
N   N175      1.0  0.67908  0.69822  0.97574  1.0000 -0.4087753077
N   N176      1.0  0.70406  0.63452  0.98842  1.0000 -0.4163752128
N   N177      1.0  0.75150  0.69634  0.00588  1.0000 -0.2034578626
N   N178      1.0  0.71888  0.77942  0.96600  1.0000 -0.4728964527
N   N179      1.0  0.79592  0.74330  0.95422  1.0000 -0.2089388165
N   N180      1.0  0.89220  0.73482  0.95214  1.0000 -0.4012803637
N   N181      1.0  0.25767  0.01559  0.69489  1.0000 -0.4759898213
N   N182      1.0  0.20964  0.96944  0.76070  1.0000 -0.2089388165
N   N183      1.0  0.26035  0.99347  0.53955  1.0000 -0.2089388165
N   N184      1.0  0.20927  0.97119  0.66837  1.0000 -0.4087753077
N   N185      1.0  0.14696  0.97574  0.69822  1.0000 -0.4087753077
N   N186      1.0  0.17300  0.98842  0.63452  1.0000 -0.4163752128
N   N187      1.0  0.04628  0.00588  0.69634  1.0000 -0.2034578626
N   N188      1.0  0.03570  0.96600  0.77942  1.0000 -0.4728964527
N   N189      1.0  0.00656  0.95422  0.74330  1.0000 -0.2089388165
N   N190      1.0  0.92084  0.95214  0.73482  1.0000 -0.4012803637
N   N191      1.0  0.69489  0.53185  0.25767  1.0000 -0.4759898213
N   N192      1.0  0.76070  0.56022  0.20964  1.0000 -0.2089388165
N   N193      1.0  0.53955  0.70663  0.26035  1.0000 -0.2089388165
N   N194      1.0  0.66837  0.65117  0.20927  1.0000 -0.4087753077
N   N195      1.0  0.69822  0.67908  0.14696  1.0000 -0.4087753077
N   N196      1.0  0.63452  0.70406  0.17300  1.0000 -0.4163752128
N   N197      1.0  0.69634  0.75150  0.04628  1.0000 -0.2034578626
N   N198      1.0  0.77942  0.71888  0.03570  1.0000 -0.4728964527
N   N199      1.0  0.74330  0.79592  0.00656  1.0000 -0.2089388165
N   N200      1.0  0.73482  0.89220  0.92084  1.0000 -0.4012803637
N   N201      1.0  0.69489  0.01559  0.53185  1.0000 -0.4759898213
N   N202      1.0  0.76070  0.96944  0.56022  1.0000 -0.2089388165
N   N203      1.0  0.53955  0.99347  0.70663  1.0000 -0.2089388165
N   N204      1.0  0.66837  0.97119  0.65117  1.0000 -0.4087753077
N   N205      1.0  0.69822  0.97574  0.67908  1.0000 -0.4087753077
N   N206      1.0  0.63452  0.98842  0.70406  1.0000 -0.4163752128
N   N207      1.0  0.69634  0.00588  0.75150  1.0000 -0.2034578626
N   N208      1.0  0.77942  0.96600  0.71888  1.0000 -0.4728964527
N   N209      1.0  0.74330  0.95422  0.79592  1.0000 -0.2089388165
N   N210      1.0  0.73482  0.95214  0.89220  1.0000 -0.4012803637
N   N211      1.0  0.25767  0.53185  0.01559  1.0000 -0.4759898213
N   N212      1.0  0.20964  0.56022  0.96944  1.0000 -0.2089388165
N   N213      1.0  0.26035  0.70663  0.99347  1.0000 -0.2089388165
N   N214      1.0  0.20927  0.65117  0.97119  1.0000 -0.4087753077
N   N215      1.0  0.14696  0.67908  0.97574  1.0000 -0.4087753077
N   N216      1.0  0.17300  0.70406  0.98842  1.0000 -0.4163752128
N   N217      1.0  0.04628  0.75150  0.00588  1.0000 -0.2034578626
N   N218      1.0  0.03570  0.71888  0.96600  1.0000 -0.4728964527
N   N219      1.0  0.00656  0.79592  0.95422  1.0000 -0.2089388165
N   N220      1.0  0.92084  0.89220  0.95214  1.0000 -0.4012803637
N   N221      1.0  0.53185  0.25767  0.69489  1.0000 -0.4759898213
N   N222      1.0  0.56022  0.20964  0.76070  1.0000 -0.2089388165
N   N223      1.0  0.70663  0.26035  0.53955  1.0000 -0.2089388165
N   N224      1.0  0.65117  0.20927  0.66837  1.0000 -0.4087753077
N   N225      1.0  0.67908  0.14696  0.69822  1.0000 -0.4087753077
N   N226      1.0  0.70406  0.17300  0.63452  1.0000 -0.4163752128
N   N227      1.0  0.75150  0.04628  0.69634  1.0000 -0.2034578626
N   N228      1.0  0.71888  0.03570  0.77942  1.0000 -0.4728964527
N   N229      1.0  0.79592  0.00656  0.74330  1.0000 -0.2089388165
N   N230      1.0  0.89220  0.92084  0.73482  1.0000 -0.4012803637
N   N231      1.0  0.01559  0.69489  0.25767  1.0000 -0.4759898213
N   N232      1.0  0.96944  0.76070  0.20964  1.0000 -0.2089388165
N   N233      1.0  0.99347  0.53955  0.26035  1.0000 -0.2089388165
N   N234      1.0  0.97119  0.66837  0.20927  1.0000 -0.4087753077
N   N235      1.0  0.97574  0.69822  0.14696  1.0000 -0.4087753077
N   N236      1.0  0.98842  0.63452  0.17300  1.0000 -0.4163752128
N   N237      1.0  0.00588  0.69634  0.04628  1.0000 -0.2034578626
N   N238      1.0  0.96600  0.77942  0.03570  1.0000 -0.4728964527
N   N239      1.0  0.95422  0.74330  0.00656  1.0000 -0.2089388165
N   N240      1.0  0.95214  0.73482  0.92084  1.0000 -0.4012803637
N   N241      1.0  0.75767  0.19489  0.51559  1.0000 -0.4759898213
N   N242      1.0  0.70964  0.26070  0.46944  1.0000 -0.2089388165
N   N243      1.0  0.76035  0.03955  0.49347  1.0000 -0.2089388165
N   N244      1.0  0.70927  0.16837  0.47119  1.0000 -0.4087753077
N   N245      1.0  0.64696  0.19822  0.47574  1.0000 -0.4087753077
N   N246      1.0  0.67300  0.13452  0.48842  1.0000 -0.4163752128
N   N247      1.0  0.54628  0.19634  0.50588  1.0000 -0.2034578626
N   N248      1.0  0.53570  0.27942  0.46600  1.0000 -0.4728964527
N   N249      1.0  0.50656  0.24330  0.45422  1.0000 -0.2089388165
N   N250      1.0  0.42084  0.23482  0.45214  1.0000 -0.4012803637
N   N251      1.0  0.19489  0.75767  0.03185  1.0000 -0.4759898213
N   N252      1.0  0.26070  0.70964  0.06022  1.0000 -0.2089388165
N   N253      1.0  0.03955  0.76035  0.20663  1.0000 -0.2089388165
N   N254      1.0  0.16837  0.70927  0.15117  1.0000 -0.4087753077
N   N255      1.0  0.19822  0.64696  0.17908  1.0000 -0.4087753077
N   N256      1.0  0.13452  0.67300  0.20406  1.0000 -0.4163752128
N   N257      1.0  0.19634  0.54628  0.25150  1.0000 -0.2034578626
N   N258      1.0  0.27942  0.53570  0.21888  1.0000 -0.4728964527
N   N259      1.0  0.24330  0.50656  0.29592  1.0000 -0.2089388165
N   N260      1.0  0.23482  0.42084  0.39220  1.0000 -0.4012803637
N   N261      1.0  0.51559  0.03185  0.75767  1.0000 -0.4759898213
N   N262      1.0  0.46944  0.06022  0.70964  1.0000 -0.2089388165
N   N263      1.0  0.49347  0.20663  0.76035  1.0000 -0.2089388165
N   N264      1.0  0.47119  0.15117  0.70927  1.0000 -0.4087753077
N   N265      1.0  0.47574  0.17908  0.64696  1.0000 -0.4087753077
N   N266      1.0  0.48842  0.20406  0.67300  1.0000 -0.4163752128
N   N267      1.0  0.50588  0.25150  0.54628  1.0000 -0.2034578626
N   N268      1.0  0.46600  0.21888  0.53570  1.0000 -0.4728964527
N   N269      1.0  0.45422  0.29592  0.50656  1.0000 -0.2089388165
N   N270      1.0  0.45214  0.39220  0.42084  1.0000 -0.4012803637
N   N271      1.0  0.03185  0.51559  0.19489  1.0000 -0.4759898213
N   N272      1.0  0.06022  0.46944  0.26070  1.0000 -0.2089388165
N   N273      1.0  0.20663  0.49347  0.03955  1.0000 -0.2089388165
N   N274      1.0  0.15117  0.47119  0.16837  1.0000 -0.4087753077
N   N275      1.0  0.17908  0.47574  0.19822  1.0000 -0.4087753077
N   N276      1.0  0.20406  0.48842  0.13452  1.0000 -0.4163752128
N   N277      1.0  0.25150  0.50588  0.19634  1.0000 -0.2034578626
N   N278      1.0  0.21888  0.46600  0.27942  1.0000 -0.4728964527
N   N279      1.0  0.29592  0.45422  0.24330  1.0000 -0.2089388165
N   N280      1.0  0.39220  0.45214  0.23482  1.0000 -0.4012803637
N   N281      1.0  0.51559  0.75767  0.19489  1.0000 -0.4759898213
N   N282      1.0  0.46944  0.70964  0.26070  1.0000 -0.2089388165
N   N283      1.0  0.49347  0.76035  0.03955  1.0000 -0.2089388165
N   N284      1.0  0.47119  0.70927  0.16837  1.0000 -0.4087753077
N   N285      1.0  0.47574  0.64696  0.19822  1.0000 -0.4087753077
N   N286      1.0  0.48842  0.67300  0.13452  1.0000 -0.4163752128
N   N287      1.0  0.50588  0.54628  0.19634  1.0000 -0.2034578626
N   N288      1.0  0.46600  0.53570  0.27942  1.0000 -0.4728964527
N   N289      1.0  0.45422  0.50656  0.24330  1.0000 -0.2089388165
N   N290      1.0  0.45214  0.42084  0.23482  1.0000 -0.4012803637
N   N291      1.0  0.03185  0.19489  0.75767  1.0000 -0.4759898213
N   N292      1.0  0.06022  0.26070  0.70964  1.0000 -0.2089388165
N   N293      1.0  0.20663  0.03955  0.76035  1.0000 -0.2089388165
N   N294      1.0  0.15117  0.16837  0.70927  1.0000 -0.4087753077
N   N295      1.0  0.17908  0.19822  0.64696  1.0000 -0.4087753077
N   N296      1.0  0.20406  0.13452  0.67300  1.0000 -0.4163752128
N   N297      1.0  0.25150  0.19634  0.54628  1.0000 -0.2034578626
N   N298      1.0  0.21888  0.27942  0.53570  1.0000 -0.4728964527
N   N299      1.0  0.29592  0.24330  0.50656  1.0000 -0.2089388165
N   N300      1.0  0.39220  0.23482  0.42084  1.0000 -0.4012803637
N   N301      1.0  0.75767  0.51559  0.03185  1.0000 -0.4759898213
N   N302      1.0  0.70964  0.46944  0.06022  1.0000 -0.2089388165
N   N303      1.0  0.76035  0.49347  0.20663  1.0000 -0.2089388165
N   N304      1.0  0.70927  0.47119  0.15117  1.0000 -0.4087753077
N   N305      1.0  0.64696  0.47574  0.17908  1.0000 -0.4087753077
N   N306      1.0  0.67300  0.48842  0.20406  1.0000 -0.4163752128
N   N307      1.0  0.54628  0.50588  0.25150  1.0000 -0.2034578626
N   N308      1.0  0.53570  0.46600  0.21888  1.0000 -0.4728964527
N   N309      1.0  0.50656  0.45422  0.29592  1.0000 -0.2089388165
N   N310      1.0  0.42084  0.45214  0.39220  1.0000 -0.4012803637
N   N311      1.0  0.19489  0.03185  0.51559  1.0000 -0.4759898213
N   N312      1.0  0.26070  0.06022  0.46944  1.0000 -0.2089388165
N   N313      1.0  0.03955  0.20663  0.49347  1.0000 -0.2089388165
N   N314      1.0  0.16837  0.15117  0.47119  1.0000 -0.4087753077
N   N315      1.0  0.19822  0.17908  0.47574  1.0000 -0.4087753077
N   N316      1.0  0.13452  0.20406  0.48842  1.0000 -0.4163752128
N   N317      1.0  0.19634  0.25150  0.50588  1.0000 -0.2034578626
N   N318      1.0  0.27942  0.21888  0.46600  1.0000 -0.4728964527
N   N319      1.0  0.24330  0.29592  0.45422  1.0000 -0.2089388165
N   N320      1.0  0.23482  0.39220  0.45214  1.0000 -0.4012803637
N   N321      1.0  0.19489  0.51559  0.75767  1.0000 -0.4759898213
N   N322      1.0  0.26070  0.46944  0.70964  1.0000 -0.2089388165
N   N323      1.0  0.03955  0.49347  0.76035  1.0000 -0.2089388165
N   N324      1.0  0.16837  0.47119  0.70927  1.0000 -0.4087753077
N   N325      1.0  0.19822  0.47574  0.64696  1.0000 -0.4087753077
N   N326      1.0  0.13452  0.48842  0.67300  1.0000 -0.4163752128
N   N327      1.0  0.19634  0.50588  0.54628  1.0000 -0.2034578626
N   N328      1.0  0.27942  0.46600  0.53570  1.0000 -0.4728964527
N   N329      1.0  0.24330  0.45422  0.50656  1.0000 -0.2089388165
N   N330      1.0  0.23482  0.45214  0.42084  1.0000 -0.4012803637
N   N331      1.0  0.75767  0.03185  0.19489  1.0000 -0.4759898213
N   N332      1.0  0.70964  0.06022  0.26070  1.0000 -0.2089388165
N   N333      1.0  0.76035  0.20663  0.03955  1.0000 -0.2089388165
N   N334      1.0  0.70927  0.15117  0.16837  1.0000 -0.4087753077
N   N335      1.0  0.64696  0.17908  0.19822  1.0000 -0.4087753077
N   N336      1.0  0.67300  0.20406  0.13452  1.0000 -0.4163752128
N   N337      1.0  0.54628  0.25150  0.19634  1.0000 -0.2034578626
N   N338      1.0  0.53570  0.21888  0.27942  1.0000 -0.4728964527
N   N339      1.0  0.50656  0.29592  0.24330  1.0000 -0.2089388165
N   N340      1.0  0.42084  0.39220  0.23482  1.0000 -0.4012803637
N   N341      1.0  0.03185  0.75767  0.51559  1.0000 -0.4759898213
N   N342      1.0  0.06022  0.70964  0.46944  1.0000 -0.2089388165
N   N343      1.0  0.20663  0.76035  0.49347  1.0000 -0.2089388165
N   N344      1.0  0.15117  0.70927  0.47119  1.0000 -0.4087753077
N   N345      1.0  0.17908  0.64696  0.47574  1.0000 -0.4087753077
N   N346      1.0  0.20406  0.67300  0.48842  1.0000 -0.4163752128
N   N347      1.0  0.25150  0.54628  0.50588  1.0000 -0.2034578626
N   N348      1.0  0.21888  0.53570  0.46600  1.0000 -0.4728964527
N   N349      1.0  0.29592  0.50656  0.45422  1.0000 -0.2089388165
N   N350      1.0  0.39220  0.42084  0.45214  1.0000 -0.4012803637
N   N351      1.0  0.51559  0.19489  0.03185  1.0000 -0.4759898213
N   N352      1.0  0.46944  0.26070  0.06022  1.0000 -0.2089388165
N   N353      1.0  0.49347  0.03955  0.20663  1.0000 -0.2089388165
N   N354      1.0  0.47119  0.16837  0.15117  1.0000 -0.4087753077
N   N355      1.0  0.47574  0.19822  0.17908  1.0000 -0.4087753077
N   N356      1.0  0.48842  0.13452  0.20406  1.0000 -0.4163752128
N   N357      1.0  0.50588  0.19634  0.25150  1.0000 -0.2034578626
N   N358      1.0  0.46600  0.27942  0.21888  1.0000 -0.4728964527
N   N359      1.0  0.45422  0.24330  0.29592  1.0000 -0.2089388165
N   N360      1.0  0.45214  0.23482  0.39220  1.0000 -0.4012803637
N   N361      1.0  0.74233  0.30511  0.46815  1.0000 -0.4759898213
N   N362      1.0  0.79036  0.23930  0.43978  1.0000 -0.2089388165
N   N363      1.0  0.73965  0.46045  0.29337  1.0000 -0.2089388165
N   N364      1.0  0.79073  0.33163  0.34883  1.0000 -0.4087753077
N   N365      1.0  0.85304  0.30178  0.32092  1.0000 -0.4087753077
N   N366      1.0  0.82700  0.36548  0.29594  1.0000 -0.4163752128
N   N367      1.0  0.95372  0.30366  0.24850  1.0000 -0.2034578626
N   N368      1.0  0.96430  0.22058  0.28112  1.0000 -0.4728964527
N   N369      1.0  0.99344  0.25670  0.20408  1.0000 -0.2089388165
N   N370      1.0  0.07916  0.26518  0.10780  1.0000 -0.4012803637
N   N371      1.0  0.30511  0.74233  0.98441  1.0000 -0.4759898213
N   N372      1.0  0.23930  0.79036  0.03056  1.0000 -0.2089388165
N   N373      1.0  0.46045  0.73965  0.00653  1.0000 -0.2089388165
N   N374      1.0  0.33163  0.79073  0.02881  1.0000 -0.4087753077
N   N375      1.0  0.30178  0.85304  0.02426  1.0000 -0.4087753077
N   N376      1.0  0.36548  0.82700  0.01158  1.0000 -0.4163752128
N   N377      1.0  0.30366  0.95372  0.99412  1.0000 -0.2034578626
N   N378      1.0  0.22058  0.96430  0.03400  1.0000 -0.4728964527
N   N379      1.0  0.25670  0.99344  0.04578  1.0000 -0.2089388165
N   N380      1.0  0.26518  0.07916  0.04786  1.0000 -0.4012803637
N   N381      1.0  0.98441  0.46815  0.30511  1.0000 -0.4728964527
N   N382      1.0  0.03056  0.43978  0.23930  1.0000 -0.2089388165
N   N383      1.0  0.00653  0.29337  0.46045  1.0000 -0.2089388165
N   N384      1.0  0.02881  0.34883  0.33163  1.0000 -0.4087753077
N   N385      1.0  0.02426  0.32092  0.30178  1.0000 -0.4087753077
N   N386      1.0  0.01158  0.29594  0.36548  1.0000 -0.4163752128
N   N387      1.0  0.99412  0.24850  0.30366  1.0000 -0.2034578626
N   N388      1.0  0.03400  0.28112  0.22058  1.0000 -0.4728964527
N   N389      1.0  0.04578  0.20408  0.25670  1.0000 -0.2089388165
N   N390      1.0  0.04786  0.10780  0.26518  1.0000 -0.4012803637
N   N391      1.0  0.46815  0.98441  0.74233  1.0000 -0.4759898213
N   N392      1.0  0.43978  0.03056  0.79036  1.0000 -0.2089388165
N   N393      1.0  0.29337  0.00653  0.73965  1.0000 -0.2089388165
N   N394      1.0  0.34883  0.02881  0.79073  1.0000 -0.4087753077
N   N395      1.0  0.32092  0.02426  0.85304  1.0000 -0.4087753077
N   N396      1.0  0.29594  0.01158  0.82700  1.0000 -0.4163752128
N   N397      1.0  0.24850  0.99412  0.95372  1.0000 -0.2034578626
N   N398      1.0  0.28112  0.03400  0.96430  1.0000 -0.4728964527
N   N399      1.0  0.20408  0.04578  0.99344  1.0000 -0.2089388165
N   N400      1.0  0.10780  0.04786  0.07916  1.0000 -0.4012803637
N   N401      1.0  0.98441  0.74233  0.46815  1.0000 -0.4759898213
N   N402      1.0  0.03056  0.79036  0.43978  1.0000 -0.2089388165
N   N403      1.0  0.00653  0.73965  0.29337  1.0000 -0.2089388165
N   N404      1.0  0.02881  0.79073  0.34883  1.0000 -0.4087753077
N   N405      1.0  0.02426  0.85304  0.32092  1.0000 -0.4087753077
N   N406      1.0  0.01158  0.82700  0.29594  1.0000 -0.4163752128
N   N407      1.0  0.99412  0.95372  0.24850  1.0000 -0.2034578626
N   N408      1.0  0.03400  0.96430  0.28112  1.0000 -0.4728964527
N   N409      1.0  0.04578  0.99344  0.20408  1.0000 -0.2089388165
N   N410      1.0  0.04786  0.07916  0.10780  1.0000 -0.4012803637
N   N411      1.0  0.46815  0.30511  0.98441  1.0000 -0.4759898213
N   N412      1.0  0.43978  0.23930  0.03056  1.0000 -0.2089388165
N   N413      1.0  0.29337  0.46045  0.00653  1.0000 -0.2089388165
N   N414      1.0  0.34883  0.33163  0.02881  1.0000 -0.4087753077
N   N415      1.0  0.32092  0.30178  0.02426  1.0000 -0.4087753077
N   N416      1.0  0.29594  0.36548  0.01158  1.0000 -0.4163752128
N   N417      1.0  0.24850  0.30366  0.99412  1.0000 -0.2034578626
N   N418      1.0  0.28112  0.22058  0.03400  1.0000 -0.4728964527
N   N419      1.0  0.20408  0.25670  0.04578  1.0000 -0.2089388165
N   N420      1.0  0.10780  0.26518  0.04786  1.0000 -0.4012803637
N   N421      1.0  0.74233  0.98441  0.30511  1.0000 -0.4728964527
N   N422      1.0  0.79036  0.03056  0.23930  1.0000 -0.2089388165
N   N423      1.0  0.73965  0.00653  0.46045  1.0000 -0.2089388165
N   N424      1.0  0.79073  0.02881  0.33163  1.0000 -0.4087753077
N   N425      1.0  0.85304  0.02426  0.30178  1.0000 -0.4087753077
N   N426      1.0  0.82700  0.01158  0.36548  1.0000 -0.4163752128
N   N427      1.0  0.95372  0.99412  0.30366  1.0000 -0.2034578626
N   N428      1.0  0.96430  0.03400  0.22058  1.0000 -0.4728964527
N   N429      1.0  0.99344  0.04578  0.25670  1.0000 -0.2089388165
N   N430      1.0  0.07916  0.04786  0.26518  1.0000 -0.4012803637
N   N431      1.0  0.30511  0.46815  0.74233  1.0000 -0.4759898213
N   N432      1.0  0.23930  0.43978  0.79036  1.0000 -0.2089388165
N   N433      1.0  0.46045  0.29337  0.73965  1.0000 -0.2089388165
N   N434      1.0  0.33163  0.34883  0.79073  1.0000 -0.4087753077
N   N435      1.0  0.30178  0.32092  0.85304  1.0000 -0.4087753077
N   N436      1.0  0.36548  0.29594  0.82700  1.0000 -0.4163752128
N   N437      1.0  0.30366  0.24850  0.95372  1.0000 -0.2034578626
N   N438      1.0  0.22058  0.28112  0.96430  1.0000 -0.4728964527
N   N439      1.0  0.25670  0.20408  0.99344  1.0000 -0.2089388165
N   N440      1.0  0.26518  0.10780  0.07916  1.0000 -0.4012803637
N   N441      1.0  0.30511  0.98441  0.46815  1.0000 -0.4759898213
N   N442      1.0  0.23930  0.03056  0.43978  1.0000 -0.2089388165
N   N443      1.0  0.46045  0.00653  0.29337  1.0000 -0.2089388165
N   N444      1.0  0.33163  0.02881  0.34883  1.0000 -0.4087753077
N   N445      1.0  0.30178  0.02426  0.32092  1.0000 -0.4087753077
N   N446      1.0  0.36548  0.01158  0.29594  1.0000 -0.4163752128
N   N447      1.0  0.30366  0.99412  0.24850  1.0000 -0.2034578626
N   N448      1.0  0.22058  0.03400  0.28112  1.0000 -0.4728964527
N   N449      1.0  0.25670  0.04578  0.20408  1.0000 -0.2089388165
N   N450      1.0  0.26518  0.04786  0.10780  1.0000 -0.4012803637
N   N451      1.0  0.74233  0.46815  0.98441  1.0000 -0.4759898213
N   N452      1.0  0.79036  0.43978  0.03056  1.0000 -0.2089388165
N   N453      1.0  0.73965  0.29337  0.00653  1.0000 -0.2089388165
N   N454      1.0  0.79073  0.34883  0.02881  1.0000 -0.4087753077
N   N455      1.0  0.85304  0.32092  0.02426  1.0000 -0.4087753077
N   N456      1.0  0.82700  0.29594  0.01158  1.0000 -0.4163752128
N   N457      1.0  0.95372  0.24850  0.99412  1.0000 -0.2034578626
N   N458      1.0  0.96430  0.28112  0.03400  1.0000 -0.4728964527
N   N459      1.0  0.99344  0.20408  0.04578  1.0000 -0.2089388165
N   N460      1.0  0.07916  0.10780  0.04786  1.0000 -0.4012803637
N   N461      1.0  0.46815  0.74233  0.30511  1.0000 -0.4759898213
N   N462      1.0  0.43978  0.79036  0.23930  1.0000 -0.2089388165
N   N463      1.0  0.29337  0.73965  0.46045  1.0000 -0.2089388165
N   N464      1.0  0.34883  0.79073  0.33163  1.0000 -0.4087753077
N   N465      1.0  0.32092  0.85304  0.30178  1.0000 -0.4087753077
N   N466      1.0  0.29594  0.82700  0.36548  1.0000 -0.4163752128
N   N467      1.0  0.24850  0.95372  0.30366  1.0000 -0.2034578626
N   N468      1.0  0.28112  0.96430  0.22058  1.0000 -0.4728964527
N   N469      1.0  0.20408  0.99344  0.25670  1.0000 -0.2089388165
N   N470      1.0  0.10780  0.07916  0.26518  1.0000 -0.4012803637
N   N471      1.0  0.98441  0.30511  0.74233  1.0000 -0.4759898213
N   N472      1.0  0.03056  0.23930  0.79036  1.0000 -0.2089388165
N   N473      1.0  0.00653  0.46045  0.73965  1.0000 -0.2089388165
N   N474      1.0  0.02881  0.33163  0.79073  1.0000 -0.4087753077
N   N475      1.0  0.02426  0.30178  0.85304  1.0000 -0.4087753077
N   N476      1.0  0.01158  0.36548  0.82700  1.0000 -0.4163752128
N   N477      1.0  0.99412  0.30366  0.95372  1.0000 -0.2034578626
N   N478      1.0  0.03400  0.22058  0.96430  1.0000 -0.4728964527
N   N479      1.0  0.04578  0.25670  0.99344  1.0000 -0.2089388165
N   N480      1.0  0.04786  0.26518  0.07916  1.0000 -0.4012803637
