# DDEC6 charges by PACMAN v1.1 (https://github.com/mtap-research/PACMAN-charge/)
data_2010[Co][tbo]3[ASR]1
_chemical_formula_sum              "Co12 H192 C312 S24 N120"
_cell_length_a       26.405
_cell_length_b       26.405
_cell_length_c       36.631
_cell_angle_alpha    90
_cell_angle_beta     90
_cell_angle_gamma    90

_symmetry_space_group_name_H-M    "P 1"
_symmetry_Int_Tables_number       1

loop_
  _symmetry_equiv_pos_as_xyz
  'x, y, z'

loop_
  _atom_site_type_symbol
  _atom_site_label
  _atom_site_symmetry_multiplicity
  _atom_site_fract_x
  _atom_site_fract_y
  _atom_site_fract_z
  _atom_site_occupancy
  _atom_site_charge
Co  Co1       1.0  0.29835  0.29835  0.76297  1.0000 0.6508107631
Co  Co2       1.0  0.70165  0.70165  0.76297  1.0000 0.6508107631
Co  Co3       1.0  0.79835  0.20165  0.73703  1.0000 0.6508107631
Co  Co4       1.0  0.20165  0.79835  0.73703  1.0000 0.6508107631
Co  Co5       1.0  0.70165  0.70165  0.23703  1.0000 0.6508107631
Co  Co6       1.0  0.29835  0.29835  0.23703  1.0000 0.6508107631
Co  Co7       1.0  0.79835  0.20165  0.26297  1.0000 0.6508107631
Co  Co8       1.0  0.20165  0.79835  0.26297  1.0000 0.6508107631
Co  Co9       1.0  0.00000  0.50000  0.00000  1.0000 0.6508107631
Co  Co10      1.0  0.50000  0.00000  0.50000  1.0000 0.6508107631
Co  Co11      1.0  0.50000  0.00000  0.00000  1.0000 0.6551573288
Co  Co12      1.0  0.00000  0.50000  0.50000  1.0000 0.6508107631
H   H1        1.0  0.29940  0.41480  0.25300  1.0000 0.1004268681
H   H2        1.0  0.70060  0.58520  0.25300  1.0000 0.1004268681
H   H3        1.0  0.79940  0.08520  0.24700  1.0000 0.1004268681
H   H4        1.0  0.20060  0.91480  0.24700  1.0000 0.1004268681
H   H5        1.0  0.58520  0.70060  0.74700  1.0000 0.1004268681
H   H6        1.0  0.41480  0.29940  0.74700  1.0000 0.1004268681
H   H7        1.0  0.91480  0.20060  0.75300  1.0000 0.1004268681
H   H8        1.0  0.08520  0.79940  0.75300  1.0000 0.1004268681
H   H9        1.0  0.70060  0.58520  0.74700  1.0000 0.1004268681
H   H10       1.0  0.29940  0.41480  0.74700  1.0000 0.1004268681
H   H11       1.0  0.20060  0.91480  0.75300  1.0000 0.1004268681
H   H12       1.0  0.79940  0.08520  0.75300  1.0000 0.1004268681
H   H13       1.0  0.41480  0.29940  0.25300  1.0000 0.1004268681
H   H14       1.0  0.58520  0.70060  0.25300  1.0000 0.1004268681
H   H15       1.0  0.08520  0.79940  0.24700  1.0000 0.1004268681
H   H16       1.0  0.91480  0.20060  0.24700  1.0000 0.1004268681
H   H17       1.0  0.27170  0.48990  0.22890  1.0000 0.1298874588
H   H18       1.0  0.72830  0.51010  0.22890  1.0000 0.1298874588
H   H19       1.0  0.77170  0.01010  0.27110  1.0000 0.1298874588
H   H20       1.0  0.22830  0.98990  0.27110  1.0000 0.1298874588
H   H21       1.0  0.51010  0.72830  0.77110  1.0000 0.1298874588
H   H22       1.0  0.48990  0.27170  0.77110  1.0000 0.1298874588
H   H23       1.0  0.98990  0.22830  0.72890  1.0000 0.1298874588
H   H24       1.0  0.01010  0.77170  0.72890  1.0000 0.1298874588
H   H25       1.0  0.72830  0.51010  0.77110  1.0000 0.1298874588
H   H26       1.0  0.27170  0.48990  0.77110  1.0000 0.1298874588
H   H27       1.0  0.22830  0.98990  0.72890  1.0000 0.1298874588
H   H28       1.0  0.77170  0.01010  0.72890  1.0000 0.1298874588
H   H29       1.0  0.48990  0.27170  0.22890  1.0000 0.1298874588
H   H30       1.0  0.51010  0.72830  0.22890  1.0000 0.1298874588
H   H31       1.0  0.01010  0.77170  0.27110  1.0000 0.1298874588
H   H32       1.0  0.98990  0.22830  0.27110  1.0000 0.1298874588
H   H33       1.0  0.23390  0.41810  0.13750  1.0000 0.1298874588
H   H34       1.0  0.76610  0.58190  0.13750  1.0000 0.1298874588
H   H35       1.0  0.73390  0.08190  0.36250  1.0000 0.1298874588
H   H36       1.0  0.26610  0.91810  0.36250  1.0000 0.1298874588
H   H37       1.0  0.58190  0.76610  0.86250  1.0000 0.1298874588
H   H38       1.0  0.41810  0.23390  0.86250  1.0000 0.1298874588
H   H39       1.0  0.91810  0.26610  0.63750  1.0000 0.1298874588
H   H40       1.0  0.08190  0.73390  0.63750  1.0000 0.1298874588
H   H41       1.0  0.76610  0.58190  0.86250  1.0000 0.1298874588
H   H42       1.0  0.23390  0.41810  0.86250  1.0000 0.1298874588
H   H43       1.0  0.26610  0.91810  0.63750  1.0000 0.1298874588
H   H44       1.0  0.73390  0.08190  0.63750  1.0000 0.1298874588
H   H45       1.0  0.41810  0.23390  0.13750  1.0000 0.1298874588
H   H46       1.0  0.58190  0.76610  0.13750  1.0000 0.1298874588
H   H47       1.0  0.08190  0.73390  0.36250  1.0000 0.1298874588
H   H48       1.0  0.91810  0.26610  0.36250  1.0000 0.1298874588
H   H49       1.0  0.26080  0.34300  0.16250  1.0000 0.1004268681
H   H50       1.0  0.73920  0.65700  0.16250  1.0000 0.1004268681
H   H51       1.0  0.76080  0.15700  0.33750  1.0000 0.1004268681
H   H52       1.0  0.23920  0.84300  0.33750  1.0000 0.1004268681
H   H53       1.0  0.65700  0.73920  0.83750  1.0000 0.1004268681
H   H54       1.0  0.34300  0.26080  0.83750  1.0000 0.1004268681
H   H55       1.0  0.84300  0.23920  0.66250  1.0000 0.1004268681
H   H56       1.0  0.15700  0.76080  0.66250  1.0000 0.1004268681
H   H57       1.0  0.73920  0.65700  0.83750  1.0000 0.1004268681
H   H58       1.0  0.26080  0.34300  0.83750  1.0000 0.1004268681
H   H59       1.0  0.23920  0.84300  0.66250  1.0000 0.1004268681
H   H60       1.0  0.76080  0.15700  0.66250  1.0000 0.1004268681
H   H61       1.0  0.34300  0.26080  0.16250  1.0000 0.1004268681
H   H62       1.0  0.65700  0.73920  0.16250  1.0000 0.1004268681
H   H63       1.0  0.15700  0.76080  0.33750  1.0000 0.1004268681
H   H64       1.0  0.84300  0.23920  0.33750  1.0000 0.1004268681
H   H65       1.0  0.02720  0.57790  0.05960  1.0000 0.1004268681
H   H66       1.0  0.97280  0.42210  0.05960  1.0000 0.1004268681
H   H67       1.0  0.52720  0.92210  0.44040  1.0000 0.1004268681
H   H68       1.0  0.47280  0.07790  0.44040  1.0000 0.1004268681
H   H69       1.0  0.42210  0.97280  0.94040  1.0000 0.1004268681
H   H70       1.0  0.57790  0.02720  0.94040  1.0000 0.1004268681
H   H71       1.0  0.07790  0.47280  0.55960  1.0000 0.1004268681
H   H72       1.0  0.92210  0.52720  0.55960  1.0000 0.1004268681
H   H73       1.0  0.97280  0.42210  0.94040  1.0000 0.1004268681
H   H74       1.0  0.02720  0.57790  0.94040  1.0000 0.1004268681
H   H75       1.0  0.47280  0.07790  0.55960  1.0000 0.1004268681
H   H76       1.0  0.52720  0.92210  0.55960  1.0000 0.1004268681
H   H77       1.0  0.57790  0.02720  0.05960  1.0000 0.1004268681
H   H78       1.0  0.42210  0.97280  0.05960  1.0000 0.1004268681
H   H79       1.0  0.92210  0.52720  0.44040  1.0000 0.1004268681
H   H80       1.0  0.07790  0.47280  0.44040  1.0000 0.1004268681
H   H81       1.0  0.08220  0.59480  0.10680  1.0000 0.1298874588
H   H82       1.0  0.91780  0.40520  0.10680  1.0000 0.1298874588
H   H83       1.0  0.58220  0.90520  0.39320  1.0000 0.1298874588
H   H84       1.0  0.41780  0.09480  0.39320  1.0000 0.1298874588
H   H85       1.0  0.40520  0.91780  0.89320  1.0000 0.1298874588
H   H86       1.0  0.59480  0.08220  0.89320  1.0000 0.1298874588
H   H87       1.0  0.09480  0.41780  0.60680  1.0000 0.1298874588
H   H88       1.0  0.90520  0.58220  0.60680  1.0000 0.1298874588
H   H89       1.0  0.91780  0.40520  0.89320  1.0000 0.1298874588
H   H90       1.0  0.08220  0.59480  0.89320  1.0000 0.1298874588
H   H91       1.0  0.41780  0.09480  0.60680  1.0000 0.1298874588
H   H92       1.0  0.58220  0.90520  0.60680  1.0000 0.1298874588
H   H93       1.0  0.59480  0.08220  0.10680  1.0000 0.1298874588
H   H94       1.0  0.40520  0.91780  0.10680  1.0000 0.1298874588
H   H95       1.0  0.90520  0.58220  0.39320  1.0000 0.1298874588
H   H96       1.0  0.09480  0.41780  0.39320  1.0000 0.1298874588
H   H97       1.0  0.09890  0.45540  0.03200  1.0000 0.1004268681
H   H98       1.0  0.90110  0.54460  0.03200  1.0000 0.1004268681
H   H99       1.0  0.59890  0.04460  0.46800  1.0000 0.1004268681
H   H100      1.0  0.40110  0.95540  0.46800  1.0000 0.1004268681
H   H101      1.0  0.54460  0.90110  0.96800  1.0000 0.1004268681
H   H102      1.0  0.45540  0.09890  0.96800  1.0000 0.1004268681
H   H103      1.0  0.95540  0.40110  0.53200  1.0000 0.1004268681
H   H104      1.0  0.04460  0.59890  0.53200  1.0000 0.1004268681
H   H105      1.0  0.90110  0.54460  0.96800  1.0000 0.1004268681
H   H106      1.0  0.09890  0.45540  0.96800  1.0000 0.1004268681
H   H107      1.0  0.40110  0.95540  0.53200  1.0000 0.1004268681
H   H108      1.0  0.59890  0.04460  0.53200  1.0000 0.1004268681
H   H109      1.0  0.45540  0.09890  0.03200  1.0000 0.1004268681
H   H110      1.0  0.54460  0.90110  0.03200  1.0000 0.1004268681
H   H111      1.0  0.04460  0.59890  0.46800  1.0000 0.1004268681
H   H112      1.0  0.95540  0.40110  0.46800  1.0000 0.1004268681
H   H113      1.0  0.15460  0.46570  0.08110  1.0000 0.1298874588
H   H114      1.0  0.84540  0.53430  0.08110  1.0000 0.1298874588
H   H115      1.0  0.65460  0.03430  0.41890  1.0000 0.1298874588
H   H116      1.0  0.34540  0.96570  0.41890  1.0000 0.1298874588
H   H117      1.0  0.53430  0.84540  0.91890  1.0000 0.1298874588
H   H118      1.0  0.46570  0.15460  0.91890  1.0000 0.1298874588
H   H119      1.0  0.96570  0.34540  0.58110  1.0000 0.1298874588
H   H120      1.0  0.03430  0.65460  0.58110  1.0000 0.1298874588
H   H121      1.0  0.84540  0.53430  0.91890  1.0000 0.1298874588
H   H122      1.0  0.15460  0.46570  0.91890  1.0000 0.1298874588
H   H123      1.0  0.34540  0.96570  0.58110  1.0000 0.1298874588
H   H124      1.0  0.65460  0.03430  0.58110  1.0000 0.1298874588
H   H125      1.0  0.46570  0.15460  0.08110  1.0000 0.1298874588
H   H126      1.0  0.53430  0.84540  0.08110  1.0000 0.1298874588
H   H127      1.0  0.03430  0.65460  0.41890  1.0000 0.1298874588
H   H128      1.0  0.96570  0.34540  0.41890  1.0000 0.1298874588
H   H129      1.0  0.14690  0.67380  0.16250  1.0000 0.1298874588
H   H130      1.0  0.85310  0.32620  0.16250  1.0000 0.1298874588
H   H131      1.0  0.64690  0.82620  0.33750  1.0000 0.1298874588
H   H132      1.0  0.35310  0.17380  0.33750  1.0000 0.1298874588
H   H133      1.0  0.32620  0.85310  0.83750  1.0000 0.1298874588
H   H134      1.0  0.67380  0.14690  0.83750  1.0000 0.1298874588
H   H135      1.0  0.17380  0.35310  0.66250  1.0000 0.1298874588
H   H136      1.0  0.82620  0.64690  0.66250  1.0000 0.1298874588
H   H137      1.0  0.85310  0.32620  0.83750  1.0000 0.1298874588
H   H138      1.0  0.14690  0.67380  0.83750  1.0000 0.1298874588
H   H139      1.0  0.35310  0.17380  0.66250  1.0000 0.1298874588
H   H140      1.0  0.64690  0.82620  0.66250  1.0000 0.1298874588
H   H141      1.0  0.67380  0.14690  0.16250  1.0000 0.1298874588
H   H142      1.0  0.32620  0.85310  0.16250  1.0000 0.1298874588
H   H143      1.0  0.82620  0.64690  0.33750  1.0000 0.1298874588
H   H144      1.0  0.17380  0.35310  0.33750  1.0000 0.1298874588
H   H145      1.0  0.22540  0.60670  0.24140  1.0000 0.1298874588
H   H146      1.0  0.77460  0.39330  0.24140  1.0000 0.1298874588
H   H147      1.0  0.72540  0.89330  0.25860  1.0000 0.1298874588
H   H148      1.0  0.27460  0.10670  0.25860  1.0000 0.1298874588
H   H149      1.0  0.39330  0.77460  0.75860  1.0000 0.1298874588
H   H150      1.0  0.60670  0.22540  0.75860  1.0000 0.1298874588
H   H151      1.0  0.10670  0.27460  0.74140  1.0000 0.1298874588
H   H152      1.0  0.89330  0.72540  0.74140  1.0000 0.1298874588
H   H153      1.0  0.77460  0.39330  0.75860  1.0000 0.1298874588
H   H154      1.0  0.22540  0.60670  0.75860  1.0000 0.1298874588
H   H155      1.0  0.27460  0.10670  0.74140  1.0000 0.1298874588
H   H156      1.0  0.72540  0.89330  0.74140  1.0000 0.1298874588
H   H157      1.0  0.60670  0.22540  0.24140  1.0000 0.1298874588
H   H158      1.0  0.39330  0.77460  0.24140  1.0000 0.1298874588
H   H159      1.0  0.89330  0.72540  0.25860  1.0000 0.1298874588
H   H160      1.0  0.10670  0.27460  0.25860  1.0000 0.1298874588
H   H161      1.0  0.23450  0.68920  0.27020  1.0000 0.090039016
H   H162      1.0  0.76550  0.31080  0.27020  1.0000 0.090039016
H   H163      1.0  0.73450  0.81080  0.22980  1.0000 0.090039016
H   H164      1.0  0.26550  0.18920  0.22980  1.0000 0.090039016
H   H165      1.0  0.31080  0.76550  0.72980  1.0000 0.090039016
H   H166      1.0  0.68920  0.23450  0.72980  1.0000 0.090039016
H   H167      1.0  0.18920  0.26550  0.77020  1.0000 0.090039016
H   H168      1.0  0.81080  0.73450  0.77020  1.0000 0.090039016
H   H169      1.0  0.76550  0.31080  0.72980  1.0000 0.090039016
H   H170      1.0  0.23450  0.68920  0.72980  1.0000 0.090039016
H   H171      1.0  0.26550  0.18920  0.77020  1.0000 0.090039016
H   H172      1.0  0.73450  0.81080  0.77020  1.0000 0.090039016
H   H173      1.0  0.68920  0.23450  0.27020  1.0000 0.090039016
H   H174      1.0  0.31080  0.76550  0.27020  1.0000 0.090039016
H   H175      1.0  0.81080  0.73450  0.22980  1.0000 0.090039016
H   H176      1.0  0.18920  0.26550  0.22980  1.0000 0.090039016
H   H177      1.0  0.14970  0.74730  0.19510  1.0000 0.1004268681
H   H178      1.0  0.85030  0.25270  0.19510  1.0000 0.1004268681
H   H179      1.0  0.64970  0.75270  0.30490  1.0000 0.1004268681
H   H180      1.0  0.35030  0.24730  0.30490  1.0000 0.1004268681
H   H181      1.0  0.25270  0.85030  0.80490  1.0000 0.1004268681
H   H182      1.0  0.74730  0.14970  0.80490  1.0000 0.1004268681
H   H183      1.0  0.24730  0.35030  0.69510  1.0000 0.1004268681
H   H184      1.0  0.75270  0.64970  0.69510  1.0000 0.1004268681
H   H185      1.0  0.85030  0.25270  0.80490  1.0000 0.1004268681
H   H186      1.0  0.14970  0.74730  0.80490  1.0000 0.1004268681
H   H187      1.0  0.35030  0.24730  0.69510  1.0000 0.1004268681
H   H188      1.0  0.64970  0.75270  0.69510  1.0000 0.1004268681
H   H189      1.0  0.74730  0.14970  0.19510  1.0000 0.1004268681
H   H190      1.0  0.25270  0.85030  0.19510  1.0000 0.1004268681
H   H191      1.0  0.75270  0.64970  0.30490  1.0000 0.1004268681
H   H192      1.0  0.24730  0.35030  0.30490  1.0000 0.1004268681
C   C1        1.0  0.24340  0.45985  0.18301  1.0000 0.0428170019
C   C2        1.0  0.75660  0.54015  0.18301  1.0000 0.0494845437
C   C3        1.0  0.74340  0.04015  0.31699  1.0000 0.0494845437
C   C4        1.0  0.25660  0.95985  0.31699  1.0000 0.0494845437
C   C5        1.0  0.54015  0.75660  0.81699  1.0000 0.0494845437
C   C6        1.0  0.45985  0.24340  0.81699  1.0000 0.0494845437
C   C7        1.0  0.95985  0.25660  0.68301  1.0000 0.0494845437
C   C8        1.0  0.04015  0.74340  0.68301  1.0000 0.0494845437
C   C9        1.0  0.75660  0.54015  0.81699  1.0000 0.0494845437
C   C10       1.0  0.24340  0.45985  0.81699  1.0000 0.0494845437
C   C11       1.0  0.25660  0.95985  0.68301  1.0000 0.0494845437
C   C12       1.0  0.74340  0.04015  0.68301  1.0000 0.0494845437
C   C13       1.0  0.45985  0.24340  0.18301  1.0000 0.0428170019
C   C14       1.0  0.54015  0.75660  0.18301  1.0000 0.0494845437
C   C15       1.0  0.04015  0.74340  0.31699  1.0000 0.0494845437
C   C16       1.0  0.95985  0.25660  0.31699  1.0000 0.0494845437
C   C17       1.0  0.21350  0.50506  0.16983  1.0000 0.3624757205
C   C18       1.0  0.78650  0.49494  0.16983  1.0000 0.3624757205
C   C19       1.0  0.71350  0.99494  0.33017  1.0000 0.3624757205
C   C20       1.0  0.28650  0.00506  0.33017  1.0000 0.3624757205
C   C21       1.0  0.49494  0.78650  0.83017  1.0000 0.3624757205
C   C22       1.0  0.50506  0.21350  0.83017  1.0000 0.3624757205
C   C23       1.0  0.00506  0.28650  0.66983  1.0000 0.3624757205
C   C24       1.0  0.99494  0.71350  0.66983  1.0000 0.3624757205
C   C25       1.0  0.78650  0.49494  0.83017  1.0000 0.3624757205
C   C26       1.0  0.21350  0.50506  0.83017  1.0000 0.3624757205
C   C27       1.0  0.28650  0.00506  0.66983  1.0000 0.3624757205
C   C28       1.0  0.71350  0.99494  0.66983  1.0000 0.3624757205
C   C29       1.0  0.50506  0.21350  0.16983  1.0000 0.3624757205
C   C30       1.0  0.49494  0.78650  0.16983  1.0000 0.3624757205
C   C31       1.0  0.99494  0.71350  0.33017  1.0000 0.3624757205
C   C32       1.0  0.00506  0.28650  0.33017  1.0000 0.3624757205
C   C33       1.0  0.12312  0.53096  0.09986  1.0000 0.0428170019
C   C34       1.0  0.87688  0.46904  0.09986  1.0000 0.0428170019
C   C35       1.0  0.62312  0.96904  0.40014  1.0000 0.0428170019
C   C36       1.0  0.37688  0.03096  0.40014  1.0000 0.0428170019
C   C37       1.0  0.46904  0.87688  0.90014  1.0000 0.0428170019
C   C38       1.0  0.53096  0.12312  0.90014  1.0000 0.0428170019
C   C39       1.0  0.03096  0.37688  0.59986  1.0000 0.0428170019
C   C40       1.0  0.96904  0.62312  0.59986  1.0000 0.0428170019
C   C41       1.0  0.87688  0.46904  0.90014  1.0000 0.0428170019
C   C42       1.0  0.12312  0.53096  0.90014  1.0000 0.0428170019
C   C43       1.0  0.37688  0.03096  0.59986  1.0000 0.0428170019
C   C44       1.0  0.62312  0.96904  0.59986  1.0000 0.0428170019
C   C45       1.0  0.53096  0.12312  0.09986  1.0000 0.0428170019
C   C46       1.0  0.46904  0.87688  0.09986  1.0000 0.0428170019
C   C47       1.0  0.96904  0.62312  0.40014  1.0000 0.0428170019
C   C48       1.0  0.03096  0.37688  0.40014  1.0000 0.0428170019
C   C49       1.0  0.18810  0.58454  0.17757  1.0000 0.3702184961
C   C50       1.0  0.81190  0.41546  0.17757  1.0000 0.3702184961
C   C51       1.0  0.68810  0.91546  0.32243  1.0000 0.3702184961
C   C52       1.0  0.31190  0.08454  0.32243  1.0000 0.3702184961
C   C53       1.0  0.41546  0.81190  0.82243  1.0000 0.3702184961
C   C54       1.0  0.58454  0.18810  0.82243  1.0000 0.3702184961
C   C55       1.0  0.08454  0.31190  0.67757  1.0000 0.3702184961
C   C56       1.0  0.91546  0.68810  0.67757  1.0000 0.3702184961
C   C57       1.0  0.81190  0.41546  0.82243  1.0000 0.3702184961
C   C58       1.0  0.18810  0.58454  0.82243  1.0000 0.3702184961
C   C59       1.0  0.31190  0.08454  0.67757  1.0000 0.3702184961
C   C60       1.0  0.68810  0.91546  0.67757  1.0000 0.3702184961
C   C61       1.0  0.58454  0.18810  0.17757  1.0000 0.3702184961
C   C62       1.0  0.41546  0.81190  0.17757  1.0000 0.3702184961
C   C63       1.0  0.91546  0.68810  0.32243  1.0000 0.3702184961
C   C64       1.0  0.08454  0.31190  0.32243  1.0000 0.3702184961
C   C65       1.0  0.15775  0.53720  0.13114  1.0000 0.3702184961
C   C66       1.0  0.84225  0.46280  0.13114  1.0000 0.3702184961
C   C67       1.0  0.65775  0.96280  0.36886  1.0000 0.3702184961
C   C68       1.0  0.34225  0.03720  0.36886  1.0000 0.3702184961
C   C69       1.0  0.46280  0.84225  0.86886  1.0000 0.3702184961
C   C70       1.0  0.53720  0.15775  0.86886  1.0000 0.3702184961
C   C71       1.0  0.03720  0.34225  0.63114  1.0000 0.3702184961
C   C72       1.0  0.96280  0.65775  0.63114  1.0000 0.3702184961
C   C73       1.0  0.84225  0.46280  0.86886  1.0000 0.3702184961
C   C74       1.0  0.15775  0.53720  0.86886  1.0000 0.3702184961
C   C75       1.0  0.34225  0.03720  0.63114  1.0000 0.3702184961
C   C76       1.0  0.65775  0.96280  0.63114  1.0000 0.3702184961
C   C77       1.0  0.53720  0.15775  0.13114  1.0000 0.3702184961
C   C78       1.0  0.46280  0.84225  0.13114  1.0000 0.3702184961
C   C79       1.0  0.96280  0.65775  0.36886  1.0000 0.3702184961
C   C80       1.0  0.03720  0.34225  0.36886  1.0000 0.3702184961
C   C81       1.0  0.28522  0.41460  0.22917  1.0000 0.0615810561
C   C82       1.0  0.71478  0.58540  0.22917  1.0000 0.0615810561
C   C83       1.0  0.78522  0.08540  0.27083  1.0000 0.0615810561
C   C84       1.0  0.21478  0.91460  0.27083  1.0000 0.0615810561
C   C85       1.0  0.58540  0.71478  0.77083  1.0000 0.0615810561
C   C86       1.0  0.41460  0.28522  0.77083  1.0000 0.0615810561
C   C87       1.0  0.91460  0.21478  0.72917  1.0000 0.0615810561
C   C88       1.0  0.08540  0.78522  0.72917  1.0000 0.0615810561
C   C89       1.0  0.71478  0.58540  0.77083  1.0000 0.0615810561
C   C90       1.0  0.28522  0.41460  0.77083  1.0000 0.0615810561
C   C91       1.0  0.21478  0.91460  0.72917  1.0000 0.0615810561
C   C92       1.0  0.78522  0.08540  0.72917  1.0000 0.0615810561
C   C93       1.0  0.41460  0.28522  0.22917  1.0000 0.0615810561
C   C94       1.0  0.58540  0.71478  0.22917  1.0000 0.0615810561
C   C95       1.0  0.08540  0.78522  0.27083  1.0000 0.0615810561
C   C96       1.0  0.91460  0.21478  0.27083  1.0000 0.0615810561
C   C97       1.0  0.26733  0.45933  0.21555  1.0000 -0.1654071175
C   C98       1.0  0.73267  0.54067  0.21555  1.0000 -0.1654071175
C   C99       1.0  0.76733  0.04067  0.28445  1.0000 -0.1654071175
C   C100      1.0  0.23267  0.95933  0.28445  1.0000 -0.1654071175
C   C101      1.0  0.54067  0.73267  0.78445  1.0000 -0.1654071175
C   C102      1.0  0.45933  0.26733  0.78445  1.0000 -0.1654071175
C   C103      1.0  0.95933  0.23267  0.71555  1.0000 -0.1654071175
C   C104      1.0  0.04067  0.76733  0.71555  1.0000 -0.1654071175
C   C105      1.0  0.73267  0.54067  0.78445  1.0000 -0.1654071175
C   C106      1.0  0.26733  0.45933  0.78445  1.0000 -0.1654071175
C   C107      1.0  0.23267  0.95933  0.71555  1.0000 -0.1654071175
C   C108      1.0  0.76733  0.04067  0.71555  1.0000 -0.1654071175
C   C109      1.0  0.45933  0.26733  0.21555  1.0000 -0.1654071175
C   C110      1.0  0.54067  0.73267  0.21555  1.0000 -0.1654071175
C   C111      1.0  0.04067  0.76733  0.28445  1.0000 -0.1654071175
C   C112      1.0  0.95933  0.23267  0.28445  1.0000 -0.1654071175
C   C113      1.0  0.02260  0.37990  0.00000  1.0000 0.1980911635
C   C114      1.0  0.97740  0.62010  0.00000  1.0000 0.1980911635
C   C115      1.0  0.52260  0.12010  0.50000  1.0000 0.1980911635
C   C116      1.0  0.47740  0.87990  0.50000  1.0000 0.1980911635
C   C117      1.0  0.62010  0.97740  0.00000  1.0000 0.1980911635
C   C118      1.0  0.37990  0.02260  0.00000  1.0000 0.1980911635
C   C119      1.0  0.87990  0.47740  0.50000  1.0000 0.1980911635
C   C120      1.0  0.12010  0.52260  0.50000  1.0000 0.1980911635
C   C121      1.0  0.24515  0.41716  0.16218  1.0000 -0.1602816091
C   C122      1.0  0.75485  0.58284  0.16218  1.0000 -0.1602816091
C   C123      1.0  0.74515  0.08284  0.33782  1.0000 -0.1602816091
C   C124      1.0  0.25485  0.91716  0.33782  1.0000 -0.1602816091
C   C125      1.0  0.58284  0.75485  0.83782  1.0000 -0.1602816091
C   C126      1.0  0.41716  0.24515  0.83782  1.0000 -0.1602816091
C   C127      1.0  0.91716  0.25485  0.66218  1.0000 -0.1602816091
C   C128      1.0  0.08284  0.74515  0.66218  1.0000 -0.1602816091
C   C129      1.0  0.75485  0.58284  0.83782  1.0000 -0.1602816091
C   C130      1.0  0.24515  0.41716  0.83782  1.0000 -0.1602816091
C   C131      1.0  0.25485  0.91716  0.66218  1.0000 -0.1602816091
C   C132      1.0  0.74515  0.08284  0.66218  1.0000 -0.1602816091
C   C133      1.0  0.41716  0.24515  0.16218  1.0000 -0.1602816091
C   C134      1.0  0.58284  0.75485  0.16218  1.0000 -0.1602816091
C   C135      1.0  0.08284  0.74515  0.33782  1.0000 -0.1602816091
C   C136      1.0  0.91716  0.25485  0.33782  1.0000 -0.1602816091
C   C137      1.0  0.26300  0.37302  0.17674  1.0000 0.0615810561
C   C138      1.0  0.73700  0.62698  0.17674  1.0000 0.0615810561
C   C139      1.0  0.76300  0.12698  0.32326  1.0000 0.0615810561
C   C140      1.0  0.23700  0.87302  0.32326  1.0000 0.0615810561
C   C141      1.0  0.62698  0.73700  0.82326  1.0000 0.0615810561
C   C142      1.0  0.37302  0.26300  0.82326  1.0000 0.0615810561
C   C143      1.0  0.87302  0.23700  0.67674  1.0000 0.0615810561
C   C144      1.0  0.12698  0.76300  0.67674  1.0000 0.0615810561
C   C145      1.0  0.73700  0.62698  0.82326  1.0000 0.0615810561
C   C146      1.0  0.26300  0.37302  0.82326  1.0000 0.0615810561
C   C147      1.0  0.23700  0.87302  0.67674  1.0000 0.0615810561
C   C148      1.0  0.76300  0.12698  0.67674  1.0000 0.0615810561
C   C149      1.0  0.37302  0.26300  0.17674  1.0000 0.0615810561
C   C150      1.0  0.62698  0.73700  0.17674  1.0000 0.0615810561
C   C151      1.0  0.12698  0.76300  0.32326  1.0000 0.0615810561
C   C152      1.0  0.87302  0.23700  0.32326  1.0000 0.0615810561
C   C153      1.0  0.05340  0.55405  0.06427  1.0000 0.0773952224
C   C154      1.0  0.94660  0.44595  0.06427  1.0000 0.0773952224
C   C155      1.0  0.55340  0.94595  0.43573  1.0000 0.0773952224
C   C156      1.0  0.44660  0.05405  0.43573  1.0000 0.0773952224
C   C157      1.0  0.44595  0.94660  0.93573  1.0000 0.0773952224
C   C158      1.0  0.55405  0.05340  0.93573  1.0000 0.0773952224
C   C159      1.0  0.05405  0.44660  0.56427  1.0000 0.0773952224
C   C160      1.0  0.94595  0.55340  0.56427  1.0000 0.0773952224
C   C161      1.0  0.94660  0.44595  0.93573  1.0000 0.0773952224
C   C162      1.0  0.05340  0.55405  0.93573  1.0000 0.0773952224
C   C163      1.0  0.44660  0.05405  0.56427  1.0000 0.0773952224
C   C164      1.0  0.55340  0.94595  0.56427  1.0000 0.0773952224
C   C165      1.0  0.55405  0.05340  0.06427  1.0000 0.0773952224
C   C166      1.0  0.44595  0.94660  0.06427  1.0000 0.0773952224
C   C167      1.0  0.94595  0.55340  0.43573  1.0000 0.0773952224
C   C168      1.0  0.05405  0.44660  0.43573  1.0000 0.0773952224
C   C169      1.0  0.08585  0.56481  0.09274  1.0000 -0.1602816091
C   C170      1.0  0.91415  0.43519  0.09274  1.0000 -0.1602816091
C   C171      1.0  0.58585  0.93519  0.40726  1.0000 -0.1602816091
C   C172      1.0  0.41415  0.06481  0.40726  1.0000 -0.1602816091
C   C173      1.0  0.43519  0.91415  0.90726  1.0000 -0.1602816091
C   C174      1.0  0.56481  0.08585  0.90726  1.0000 -0.1602816091
C   C175      1.0  0.06481  0.41415  0.59274  1.0000 -0.1602816091
C   C176      1.0  0.93519  0.58585  0.59274  1.0000 -0.1602816091
C   C177      1.0  0.91415  0.43519  0.90726  1.0000 -0.1602816091
C   C178      1.0  0.08585  0.56481  0.90726  1.0000 -0.1602816091
C   C179      1.0  0.41415  0.06481  0.59274  1.0000 -0.1602816091
C   C180      1.0  0.58585  0.93519  0.59274  1.0000 -0.1602816091
C   C181      1.0  0.56481  0.08585  0.09274  1.0000 -0.1602816091
C   C182      1.0  0.43519  0.91415  0.09274  1.0000 -0.1602816091
C   C183      1.0  0.93519  0.58585  0.40726  1.0000 -0.1602816091
C   C184      1.0  0.06481  0.41415  0.40726  1.0000 -0.1602816091
C   C185      1.0  0.09401  0.48299  0.04829  1.0000 0.0661480569
C   C186      1.0  0.90599  0.51701  0.04829  1.0000 0.0661480569
C   C187      1.0  0.59401  0.01701  0.45171  1.0000 0.0661480569
C   C188      1.0  0.40599  0.98299  0.45171  1.0000 0.0661480569
C   C189      1.0  0.51701  0.90599  0.95171  1.0000 0.0661480569
C   C190      1.0  0.48299  0.09401  0.95171  1.0000 0.0661480569
C   C191      1.0  0.98299  0.40599  0.54829  1.0000 0.0661480569
C   C192      1.0  0.01701  0.59401  0.54829  1.0000 0.0661480569
C   C193      1.0  0.90599  0.51701  0.95171  1.0000 0.0661480569
C   C194      1.0  0.09401  0.48299  0.95171  1.0000 0.0661480569
C   C195      1.0  0.40599  0.98299  0.54829  1.0000 0.0661480569
C   C196      1.0  0.59401  0.01701  0.54829  1.0000 0.0661480569
C   C197      1.0  0.48299  0.09401  0.04829  1.0000 0.0661480569
C   C198      1.0  0.51701  0.90599  0.04829  1.0000 0.0661480569
C   C199      1.0  0.01701  0.59401  0.45171  1.0000 0.0661480569
C   C200      1.0  0.98299  0.40599  0.45171  1.0000 0.0661480569
C   C201      1.0  0.23970  0.23970  0.82690  1.0000 0.1980911635
C   C202      1.0  0.76030  0.76030  0.82690  1.0000 0.1980911635
C   C203      1.0  0.73970  0.26030  0.67310  1.0000 0.1980911635
C   C204      1.0  0.26030  0.73970  0.67310  1.0000 0.1980911635
C   C205      1.0  0.76030  0.76030  0.17310  1.0000 0.1980911635
C   C206      1.0  0.23970  0.23970  0.17310  1.0000 0.1980911635
C   C207      1.0  0.73970  0.26030  0.32690  1.0000 0.1980911635
C   C208      1.0  0.26030  0.73970  0.32690  1.0000 0.1980911635
C   C209      1.0  0.12820  0.48954  0.07720  1.0000 -0.1602816091
C   C210      1.0  0.87180  0.51046  0.07720  1.0000 -0.1602816091
C   C211      1.0  0.62820  0.01046  0.42280  1.0000 -0.1602816091
C   C212      1.0  0.37180  0.98954  0.42280  1.0000 -0.1602816091
C   C213      1.0  0.51046  0.87180  0.92280  1.0000 -0.1602816091
C   C214      1.0  0.48954  0.12820  0.92280  1.0000 -0.1602816091
C   C215      1.0  0.98954  0.37180  0.57720  1.0000 -0.1602816091
C   C216      1.0  0.01046  0.62820  0.57720  1.0000 -0.1602816091
C   C217      1.0  0.87180  0.51046  0.92280  1.0000 -0.1602816091
C   C218      1.0  0.12820  0.48954  0.92280  1.0000 -0.1602816091
C   C219      1.0  0.37180  0.98954  0.57720  1.0000 -0.1602816091
C   C220      1.0  0.62820  0.01046  0.57720  1.0000 -0.1602816091
C   C221      1.0  0.48954  0.12820  0.07720  1.0000 -0.1602816091
C   C222      1.0  0.51046  0.87180  0.07720  1.0000 -0.1602816091
C   C223      1.0  0.01046  0.62820  0.42280  1.0000 -0.1602816091
C   C224      1.0  0.98954  0.37180  0.42280  1.0000 -0.1602816091
C   C225      1.0  0.35140  0.35140  0.69620  1.0000 0.2135493597
C   C226      1.0  0.64860  0.64860  0.69620  1.0000 0.2135493597
C   C227      1.0  0.85140  0.14860  0.80380  1.0000 0.2135493597
C   C228      1.0  0.14860  0.85140  0.80380  1.0000 0.2150232208
C   C229      1.0  0.64860  0.64860  0.30380  1.0000 0.2135493597
C   C230      1.0  0.35140  0.35140  0.30380  1.0000 0.2135493597
C   C231      1.0  0.85140  0.14860  0.19620  1.0000 0.2135493597
C   C232      1.0  0.14860  0.85140  0.19620  1.0000 0.2135493597
C   C233      1.0  0.19039  0.63333  0.19760  1.0000 0.0494845437
C   C234      1.0  0.80961  0.36667  0.19760  1.0000 0.0494845437
C   C235      1.0  0.69039  0.86667  0.30240  1.0000 0.0494845437
C   C236      1.0  0.30961  0.13333  0.30240  1.0000 0.0494845437
C   C237      1.0  0.36667  0.80961  0.80240  1.0000 0.0494845437
C   C238      1.0  0.63333  0.19039  0.80240  1.0000 0.0494845437
C   C239      1.0  0.13333  0.30961  0.69760  1.0000 0.0494845437
C   C240      1.0  0.86667  0.69039  0.69760  1.0000 0.0494845437
C   C241      1.0  0.80961  0.36667  0.80240  1.0000 0.0494845437
C   C242      1.0  0.19039  0.63333  0.80240  1.0000 0.0494845437
C   C243      1.0  0.30961  0.13333  0.69760  1.0000 0.0494845437
C   C244      1.0  0.69039  0.86667  0.69760  1.0000 0.0494845437
C   C245      1.0  0.63333  0.19039  0.19760  1.0000 0.0494845437
C   C246      1.0  0.36667  0.80961  0.19760  1.0000 0.0494845437
C   C247      1.0  0.86667  0.69039  0.30240  1.0000 0.0494845437
C   C248      1.0  0.13333  0.30961  0.30240  1.0000 0.0494845437
C   C249      1.0  0.16550  0.67533  0.18465  1.0000 -0.1602816091
C   C250      1.0  0.83450  0.32467  0.18465  1.0000 -0.1602816091
C   C251      1.0  0.66550  0.82467  0.31535  1.0000 -0.1602816091
C   C252      1.0  0.33450  0.17533  0.31535  1.0000 -0.1602816091
C   C253      1.0  0.32467  0.83450  0.81535  1.0000 -0.1602816091
C   C254      1.0  0.67533  0.16550  0.81535  1.0000 -0.1602816091
C   C255      1.0  0.17533  0.33450  0.68465  1.0000 -0.1602816091
C   C256      1.0  0.82467  0.66550  0.68465  1.0000 -0.1602816091
C   C257      1.0  0.83450  0.32467  0.81535  1.0000 -0.1602816091
C   C258      1.0  0.16550  0.67533  0.81535  1.0000 -0.1602816091
C   C259      1.0  0.33450  0.17533  0.68465  1.0000 -0.1602816091
C   C260      1.0  0.66550  0.82467  0.68465  1.0000 -0.1602816091
C   C261      1.0  0.67533  0.16550  0.18465  1.0000 -0.1602816091
C   C262      1.0  0.32467  0.83450  0.18465  1.0000 -0.1602816091
C   C263      1.0  0.82467  0.66550  0.31535  1.0000 -0.1602816091
C   C264      1.0  0.17533  0.33450  0.31535  1.0000 -0.1602816091
C   C265      1.0  0.21220  0.63620  0.23000  1.0000 -0.1602816091
C   C266      1.0  0.78780  0.36380  0.23000  1.0000 -0.1602816091
C   C267      1.0  0.71220  0.86380  0.27000  1.0000 -0.1602816091
C   C268      1.0  0.28780  0.13620  0.27000  1.0000 -0.1602816091
C   C269      1.0  0.36380  0.78780  0.77000  1.0000 -0.1602816091
C   C270      1.0  0.63620  0.21220  0.77000  1.0000 -0.1602816091
C   C271      1.0  0.13620  0.28780  0.73000  1.0000 -0.1602816091
C   C272      1.0  0.86380  0.71220  0.73000  1.0000 -0.1602816091
C   C273      1.0  0.78780  0.36380  0.77000  1.0000 -0.1602816091
C   C274      1.0  0.21220  0.63620  0.77000  1.0000 -0.1602816091
C   C275      1.0  0.28780  0.13620  0.73000  1.0000 -0.1602816091
C   C276      1.0  0.71220  0.86380  0.73000  1.0000 -0.1602816091
C   C277      1.0  0.63620  0.21220  0.23000  1.0000 -0.1602816091
C   C278      1.0  0.36380  0.78780  0.23000  1.0000 -0.1602816091
C   C279      1.0  0.86380  0.71220  0.27000  1.0000 -0.1602816091
C   C280      1.0  0.13620  0.28780  0.27000  1.0000 -0.1602816091
C   C281      1.0  0.21580  0.68635  0.24818  1.0000 0.1073095177
C   C282      1.0  0.78420  0.31365  0.24818  1.0000 0.1073095177
C   C283      1.0  0.71580  0.81365  0.25182  1.0000 0.1073095177
C   C284      1.0  0.28420  0.18635  0.25182  1.0000 0.1073095177
C   C285      1.0  0.31365  0.78420  0.75182  1.0000 0.1073095177
C   C286      1.0  0.68635  0.21580  0.75182  1.0000 0.1073095177
C   C287      1.0  0.18635  0.28420  0.74818  1.0000 0.1073095177
C   C288      1.0  0.81365  0.71580  0.74818  1.0000 0.1073095177
C   C289      1.0  0.78420  0.31365  0.75182  1.0000 0.1073095177
C   C290      1.0  0.21580  0.68635  0.75182  1.0000 0.1073095177
C   C291      1.0  0.28420  0.18635  0.74818  1.0000 0.1073095177
C   C292      1.0  0.71580  0.81365  0.74818  1.0000 0.1073095177
C   C293      1.0  0.68635  0.21580  0.24818  1.0000 0.1073095177
C   C294      1.0  0.31365  0.78420  0.24818  1.0000 0.1073095177
C   C295      1.0  0.81365  0.71580  0.25182  1.0000 0.1073095177
C   C296      1.0  0.18635  0.28420  0.25182  1.0000 0.1073095177
C   C297      1.0  0.16810  0.71905  0.20410  1.0000 0.0428170019
C   C298      1.0  0.83190  0.28095  0.20410  1.0000 0.0428170019
C   C299      1.0  0.66810  0.78095  0.29590  1.0000 0.0428170019
C   C300      1.0  0.33190  0.21905  0.29590  1.0000 0.0428170019
C   C301      1.0  0.28095  0.83190  0.79590  1.0000 0.0428170019
C   C302      1.0  0.71905  0.16810  0.79590  1.0000 0.0428170019
C   C303      1.0  0.21905  0.33190  0.70410  1.0000 0.0428170019
C   C304      1.0  0.78095  0.66810  0.70410  1.0000 0.0428170019
C   C305      1.0  0.83190  0.28095  0.79590  1.0000 0.0428170019
C   C306      1.0  0.16810  0.71905  0.79590  1.0000 0.0428170019
C   C307      1.0  0.33190  0.21905  0.70410  1.0000 0.0428170019
C   C308      1.0  0.66810  0.78095  0.70410  1.0000 0.0428170019
C   C309      1.0  0.71905  0.16810  0.20410  1.0000 0.0428170019
C   C310      1.0  0.28095  0.83190  0.20410  1.0000 0.0428170019
C   C311      1.0  0.78095  0.66810  0.29590  1.0000 0.0428170019
C   C312      1.0  0.21905  0.33190  0.29590  1.0000 0.0428170019
S   S1        1.0  0.20771  0.20771  0.85671  1.0000 -0.1654071175
S   S2        1.0  0.79229  0.79229  0.85671  1.0000 -0.1654071175
S   S3        1.0  0.70771  0.29229  0.64329  1.0000 -0.1654071175
S   S4        1.0  0.29229  0.70771  0.64329  1.0000 -0.1654071175
S   S5        1.0  0.79229  0.79229  0.14329  1.0000 -0.1654071175
S   S6        1.0  0.20771  0.20771  0.14329  1.0000 -0.1654071175
S   S7        1.0  0.70771  0.29229  0.35671  1.0000 -0.1654071175
S   S8        1.0  0.29229  0.70771  0.35671  1.0000 -0.1654071175
S   S9        1.0  0.02760  0.31993  0.00000  1.0000 -0.143207303
S   S10       1.0  0.97240  0.68007  0.00000  1.0000 -0.143207303
S   S11       1.0  0.52760  0.18007  0.50000  1.0000 -0.143207303
S   S12       1.0  0.47240  0.81993  0.50000  1.0000 -0.143207303
S   S13       1.0  0.68007  0.97240  0.00000  1.0000 -0.143207303
S   S14       1.0  0.31993  0.02760  0.00000  1.0000 -0.143207303
S   S15       1.0  0.81993  0.47240  0.50000  1.0000 -0.143207303
S   S16       1.0  0.18007  0.52760  0.50000  1.0000 -0.143207303
S   S17       1.0  0.37770  0.37770  0.66232  1.0000 -0.1931087251
S   S18       1.0  0.62230  0.62230  0.66232  1.0000 -0.1931087251
S   S19       1.0  0.87770  0.12230  0.83768  1.0000 -0.1931087251
S   S20       1.0  0.12230  0.87770  0.83768  1.0000 -0.1931087251
S   S21       1.0  0.62230  0.62230  0.33768  1.0000 -0.1931087251
S   S22       1.0  0.37770  0.37770  0.33768  1.0000 -0.1931087251
S   S23       1.0  0.87770  0.12230  0.16232  1.0000 -0.1931087251
S   S24       1.0  0.12230  0.87770  0.16232  1.0000 -0.1931087251
N   N1        1.0  0.01973  0.42443  0.00000  1.0000 -0.4804431039
N   N2        1.0  0.98027  0.57557  0.00000  1.0000 -0.4804431039
N   N3        1.0  0.51973  0.07557  0.50000  1.0000 -0.4804431039
N   N4        1.0  0.48027  0.92443  0.50000  1.0000 -0.4804431039
N   N5        1.0  0.57557  0.98027  0.00000  1.0000 -0.4804431039
N   N6        1.0  0.42443  0.01973  0.00000  1.0000 -0.4804431039
N   N7        1.0  0.92443  0.48027  0.50000  1.0000 -0.4804431039
N   N8        1.0  0.07557  0.51973  0.50000  1.0000 -0.4804431039
N   N9        1.0  0.15663  0.58191  0.14873  1.0000 -0.4278069127
N   N10       1.0  0.84337  0.41809  0.14873  1.0000 -0.4278069127
N   N11       1.0  0.65663  0.91809  0.35127  1.0000 -0.4278069127
N   N12       1.0  0.34337  0.08191  0.35127  1.0000 -0.4278069127
N   N13       1.0  0.41809  0.84337  0.85127  1.0000 -0.4278069127
N   N14       1.0  0.58191  0.15663  0.85127  1.0000 -0.4278069127
N   N15       1.0  0.08191  0.34337  0.64873  1.0000 -0.4278069127
N   N16       1.0  0.91809  0.65663  0.64873  1.0000 -0.4278069127
N   N17       1.0  0.84337  0.41809  0.85127  1.0000 -0.4278069127
N   N18       1.0  0.15663  0.58191  0.85127  1.0000 -0.4278069127
N   N19       1.0  0.34337  0.08191  0.64873  1.0000 -0.4278069127
N   N20       1.0  0.65663  0.91809  0.64873  1.0000 -0.4278069127
N   N21       1.0  0.58191  0.15663  0.14873  1.0000 -0.4278069127
N   N22       1.0  0.41809  0.84337  0.14873  1.0000 -0.4278069127
N   N23       1.0  0.91809  0.65663  0.35127  1.0000 -0.4278069127
N   N24       1.0  0.08191  0.34337  0.35127  1.0000 -0.4278069127
N   N25       1.0  0.33360  0.33360  0.72062  1.0000 -0.4467742692
N   N26       1.0  0.66640  0.66640  0.72062  1.0000 -0.4467742692
N   N27       1.0  0.83360  0.16640  0.77938  1.0000 -0.4467742692
N   N28       1.0  0.16640  0.83360  0.77938  1.0000 -0.4467742692
N   N29       1.0  0.66640  0.66640  0.27938  1.0000 -0.4467742692
N   N30       1.0  0.33360  0.33360  0.27938  1.0000 -0.4467742692
N   N31       1.0  0.83360  0.16640  0.22062  1.0000 -0.4467742692
N   N32       1.0  0.16640  0.83360  0.22062  1.0000 -0.4467742692
N   N33       1.0  0.26230  0.26230  0.80520  1.0000 -0.4630881536
N   N34       1.0  0.73770  0.73770  0.80520  1.0000 -0.4630881536
N   N35       1.0  0.76230  0.23770  0.69480  1.0000 -0.4630881536
N   N36       1.0  0.23770  0.76230  0.69480  1.0000 -0.4630881536
N   N37       1.0  0.73770  0.73770  0.19480  1.0000 -0.4630881536
N   N38       1.0  0.26230  0.26230  0.19480  1.0000 -0.4630881536
N   N39       1.0  0.76230  0.23770  0.30520  1.0000 -0.4630881536
N   N40       1.0  0.23770  0.76230  0.30520  1.0000 -0.4630881536
N   N41       1.0  0.28417  0.36993  0.21098  1.0000 -0.2289695216
N   N42       1.0  0.71583  0.63007  0.21098  1.0000 -0.2289695216
N   N43       1.0  0.78417  0.13007  0.28902  1.0000 -0.2289695216
N   N44       1.0  0.21583  0.86993  0.28902  1.0000 -0.2289695216
N   N45       1.0  0.63007  0.71583  0.78902  1.0000 -0.2289695216
N   N46       1.0  0.36993  0.28417  0.78902  1.0000 -0.2289695216
N   N47       1.0  0.86993  0.21583  0.71098  1.0000 -0.2289695216
N   N48       1.0  0.13007  0.78417  0.71098  1.0000 -0.2289695216
N   N49       1.0  0.71583  0.63007  0.78902  1.0000 -0.2289695216
N   N50       1.0  0.28417  0.36993  0.78902  1.0000 -0.2289695216
N   N51       1.0  0.21583  0.86993  0.71098  1.0000 -0.2289695216
N   N52       1.0  0.78417  0.13007  0.71098  1.0000 -0.2289695216
N   N53       1.0  0.36993  0.28417  0.21098  1.0000 -0.2289695216
N   N54       1.0  0.63007  0.71583  0.21098  1.0000 -0.2289695216
N   N55       1.0  0.13007  0.78417  0.28902  1.0000 -0.2289695216
N   N56       1.0  0.86993  0.21583  0.28902  1.0000 -0.2289695216
N   N57       1.0  0.18672  0.49924  0.13967  1.0000 -0.4049004304
N   N58       1.0  0.81328  0.50076  0.13967  1.0000 -0.4049004304
N   N59       1.0  0.68672  0.00076  0.36033  1.0000 -0.4101151183
N   N60       1.0  0.31328  0.99924  0.36033  1.0000 -0.4101151183
N   N61       1.0  0.50076  0.81328  0.86033  1.0000 -0.4049004304
N   N62       1.0  0.49924  0.18672  0.86033  1.0000 -0.4101151183
N   N63       1.0  0.99924  0.31328  0.63967  1.0000 -0.4101151183
N   N64       1.0  0.00076  0.68672  0.63967  1.0000 -0.4101151183
N   N65       1.0  0.81328  0.50076  0.86033  1.0000 -0.4049004304
N   N66       1.0  0.18672  0.49924  0.86033  1.0000 -0.4049004304
N   N67       1.0  0.31328  0.99924  0.63967  1.0000 -0.4101151183
N   N68       1.0  0.68672  0.00076  0.63967  1.0000 -0.4101151183
N   N69       1.0  0.49924  0.18672  0.13967  1.0000 -0.4101151183
N   N70       1.0  0.50076  0.81328  0.13967  1.0000 -0.4049004304
N   N71       1.0  0.00076  0.68672  0.36033  1.0000 -0.4101151183
N   N72       1.0  0.99924  0.31328  0.36033  1.0000 -0.4101151183
N   N73       1.0  0.05497  0.51401  0.04289  1.0000 -0.2177367912
N   N74       1.0  0.94503  0.48599  0.04289  1.0000 -0.2177367912
N   N75       1.0  0.55497  0.98599  0.45711  1.0000 -0.2177367912
N   N76       1.0  0.44503  0.01401  0.45711  1.0000 -0.2177367912
N   N77       1.0  0.48599  0.94503  0.95711  1.0000 -0.2177367912
N   N78       1.0  0.51401  0.05497  0.95711  1.0000 -0.2177367912
N   N79       1.0  0.01401  0.44503  0.54289  1.0000 -0.2177367912
N   N80       1.0  0.98599  0.55497  0.54289  1.0000 -0.2177367912
N   N81       1.0  0.94503  0.48599  0.95711  1.0000 -0.2177367912
N   N82       1.0  0.05497  0.51401  0.95711  1.0000 -0.2177367912
N   N83       1.0  0.44503  0.01401  0.54289  1.0000 -0.2177367912
N   N84       1.0  0.55497  0.98599  0.54289  1.0000 -0.2177367912
N   N85       1.0  0.51401  0.05497  0.04289  1.0000 -0.2177367912
N   N86       1.0  0.48599  0.94503  0.04289  1.0000 -0.2177367912
N   N87       1.0  0.98599  0.55497  0.45711  1.0000 -0.2177367912
N   N88       1.0  0.01401  0.44503  0.45711  1.0000 -0.2177367912
N   N89       1.0  0.21626  0.54779  0.19008  1.0000 -0.4101151183
N   N90       1.0  0.78374  0.45221  0.19008  1.0000 -0.4101151183
N   N91       1.0  0.71626  0.95221  0.30992  1.0000 -0.4162064183
N   N92       1.0  0.28374  0.04779  0.30992  1.0000 -0.4162064183
N   N93       1.0  0.45221  0.78374  0.80992  1.0000 -0.4101151183
N   N94       1.0  0.54779  0.21626  0.80992  1.0000 -0.4101151183
N   N95       1.0  0.04779  0.28374  0.69008  1.0000 -0.4162064183
N   N96       1.0  0.95221  0.71626  0.69008  1.0000 -0.4162064183
N   N97       1.0  0.78374  0.45221  0.80992  1.0000 -0.4101151183
N   N98       1.0  0.21626  0.54779  0.80992  1.0000 -0.4101151183
N   N99       1.0  0.28374  0.04779  0.69008  1.0000 -0.4162064183
N   N100      1.0  0.71626  0.95221  0.69008  1.0000 -0.4101151183
N   N101      1.0  0.54779  0.21626  0.19008  1.0000 -0.4162064183
N   N102      1.0  0.45221  0.78374  0.19008  1.0000 -0.4101151183
N   N103      1.0  0.95221  0.71626  0.30992  1.0000 -0.4162064183
N   N104      1.0  0.04779  0.28374  0.30992  1.0000 -0.4162064183
N   N105      1.0  0.19460  0.72549  0.23512  1.0000 -0.2142695028
N   N106      1.0  0.80540  0.27451  0.23512  1.0000 -0.2142695028
N   N107      1.0  0.69460  0.77451  0.26488  1.0000 -0.2177367912
N   N108      1.0  0.30540  0.22549  0.26488  1.0000 -0.2177367912
N   N109      1.0  0.27451  0.80540  0.76488  1.0000 -0.2177367912
N   N110      1.0  0.72549  0.19460  0.76488  1.0000 -0.2177367912
N   N111      1.0  0.22549  0.30540  0.73512  1.0000 -0.2177367912
N   N112      1.0  0.77451  0.69460  0.73512  1.0000 -0.2177367912
N   N113      1.0  0.80540  0.27451  0.76488  1.0000 -0.2177367912
N   N114      1.0  0.19460  0.72549  0.76488  1.0000 -0.2177367912
N   N115      1.0  0.30540  0.22549  0.73512  1.0000 -0.2177367912
N   N116      1.0  0.69460  0.77451  0.73512  1.0000 -0.2177367912
N   N117      1.0  0.72549  0.19460  0.23512  1.0000 -0.2142695028
N   N118      1.0  0.27451  0.80540  0.23512  1.0000 -0.2142695028
N   N119      1.0  0.77451  0.69460  0.26488  1.0000 -0.2177367912
N   N120      1.0  0.22549  0.30540  0.26488  1.0000 -0.2177367912
