# DDEC6 charges by PACMAN v1.1 (https://github.com/mtap-research/PACMAN-charge/)
data_2010[CuMo][nan]3[ASR]1
_chemical_formula_sum              "Cu4 Mo16 H48 C56 N16 O32"
_cell_length_a       9.618
_cell_length_b       13.996
_cell_length_c       19.842
_cell_angle_alpha    90
_cell_angle_beta     99.182
_cell_angle_gamma    90

_symmetry_space_group_name_H-M    "P 1"
_symmetry_Int_Tables_number       1

loop_
  _symmetry_equiv_pos_as_xyz
  'x, y, z'

loop_
  _atom_site_type_symbol
  _atom_site_label
  _atom_site_symmetry_multiplicity
  _atom_site_fract_x
  _atom_site_fract_y
  _atom_site_fract_z
  _atom_site_occupancy
  _atom_site_charge
Cu  Cu1       1.0  0.76938  0.09205  0.71875  1.0000 0.4156928091
Cu  Cu2       1.0  0.23062  0.59205  0.78125  1.0000 0.4156928091
Cu  Cu3       1.0  0.23062  0.90795  0.28125  1.0000 0.4145684967
Cu  Cu4       1.0  0.76938  0.40795  0.21875  1.0000 0.4156928091
Mo  Mo1       1.0  0.29947  0.09502  0.98384  1.0000 1.8214563856
Mo  Mo2       1.0  0.70053  0.59502  0.51616  1.0000 1.8214563856
Mo  Mo3       1.0  0.70053  0.90498  0.01616  1.0000 1.8214563856
Mo  Mo4       1.0  0.29947  0.40498  0.48384  1.0000 1.8214563856
Mo  Mo5       1.0  0.92354  0.10164  0.03582  1.0000 1.8724294632
Mo  Mo6       1.0  0.07646  0.60164  0.46418  1.0000 1.8724294632
Mo  Mo7       1.0  0.07646  0.89836  0.96418  1.0000 1.8724294632
Mo  Mo8       1.0  0.92354  0.39836  0.53582  1.0000 1.8755545744
Mo  Mo9       1.0  0.00880  0.11861  0.87888  1.0000 1.7516982286
Mo  Mo10      1.0  0.99120  0.61861  0.62112  1.0000 1.7552610764
Mo  Mo11      1.0  0.99120  0.88139  0.12112  1.0000 1.7516982286
Mo  Mo12      1.0  0.00880  0.38139  0.37888  1.0000 1.7516982286
Mo  Mo13      1.0  0.63966  0.11074  0.92142  1.0000 1.2105693349
Mo  Mo14      1.0  0.36034  0.61074  0.57858  1.0000 1.2105693349
Mo  Mo15      1.0  0.36034  0.88926  0.07858  1.0000 1.2105693349
Mo  Mo16      1.0  0.63966  0.38926  0.42142  1.0000 1.2105693349
H   H1        1.0  0.06640  0.72250  0.24720  1.0000 0.092745615
H   H2        1.0  0.93360  0.22250  0.25280  1.0000 0.092745615
H   H3        1.0  0.93360  0.27750  0.75280  1.0000 0.092745615
H   H4        1.0  0.06640  0.77750  0.74720  1.0000 0.092745615
H   H5        1.0  0.10360  0.93620  0.76290  1.0000 0.12773866
H   H6        1.0  0.89640  0.43620  0.73710  1.0000 0.12773866
H   H7        1.0  0.89640  0.06380  0.23710  1.0000 0.12773866
H   H8        1.0  0.10360  0.56380  0.26290  1.0000 0.12773866
H   H9        1.0  0.32370  0.99170  0.80960  1.0000 0.118992981
H   H10       1.0  0.67630  0.49170  0.69040  1.0000 0.118992981
H   H11       1.0  0.67630  0.00830  0.19040  1.0000 0.118992981
H   H12       1.0  0.32370  0.50830  0.30960  1.0000 0.118992981
H   H13       1.0  0.50690  0.87940  0.83980  1.0000 0.118992981
H   H14       1.0  0.49310  0.37940  0.66020  1.0000 0.118992981
H   H15       1.0  0.49310  0.12060  0.16020  1.0000 0.118992981
H   H16       1.0  0.50690  0.62060  0.33980  1.0000 0.118992981
H   H17       1.0  0.53210  0.03300  0.33750  1.0000 0.1021778921
H   H18       1.0  0.46790  0.53300  0.16250  1.0000 0.1021778921
H   H19       1.0  0.46790  0.96700  0.66250  1.0000 0.1021778921
H   H20       1.0  0.53210  0.46700  0.83750  1.0000 0.1021778921
H   H21       1.0  0.75550  0.56010  0.85650  1.0000 0.118992981
H   H22       1.0  0.24450  0.06010  0.64350  1.0000 0.118992981
H   H23       1.0  0.24450  0.43990  0.14350  1.0000 0.118992981
H   H24       1.0  0.75550  0.93990  0.35650  1.0000 0.118992981
H   H25       1.0  0.70980  0.80450  0.87870  1.0000 0.1021778921
H   H26       1.0  0.29020  0.30450  0.62130  1.0000 0.1021778921
H   H27       1.0  0.29020  0.19550  0.12130  1.0000 0.1021778921
H   H28       1.0  0.70980  0.69550  0.37870  1.0000 0.1021778921
H   H29       1.0  0.82360  0.73190  0.86180  1.0000 0.1021778921
H   H30       1.0  0.17640  0.23190  0.63820  1.0000 0.1021778921
H   H31       1.0  0.17640  0.26810  0.13820  1.0000 0.1021778921
H   H32       1.0  0.82360  0.76810  0.36180  1.0000 0.1021778921
H   H33       1.0  0.67660  0.69340  0.71480  1.0000 0.118992981
H   H34       1.0  0.32340  0.19340  0.78520  1.0000 0.118992981
H   H35       1.0  0.32340  0.30660  0.28520  1.0000 0.118992981
H   H36       1.0  0.67660  0.80660  0.21480  1.0000 0.118992981
H   H37       1.0  0.68600  0.77800  0.61290  1.0000 0.1021778921
H   H38       1.0  0.31400  0.27800  0.88710  1.0000 0.1021778921
H   H39       1.0  0.31400  0.22200  0.38710  1.0000 0.1021778921
H   H40       1.0  0.68600  0.72200  0.11290  1.0000 0.1021778921
H   H41       1.0  0.74220  0.93770  0.61930  1.0000 0.092745615
H   H42       1.0  0.25780  0.43770  0.88070  1.0000 0.092745615
H   H43       1.0  0.25780  0.06230  0.38070  1.0000 0.092745615
H   H44       1.0  0.74220  0.56230  0.11930  1.0000 0.092745615
H   H45       1.0  0.77530  0.93480  0.81680  1.0000 0.118992981
H   H46       1.0  0.22470  0.43480  0.68320  1.0000 0.118992981
H   H47       1.0  0.22470  0.06520  0.18320  1.0000 0.118992981
H   H48       1.0  0.77530  0.56520  0.31680  1.0000 0.118992981
C   C1        1.0  0.15570  0.70150  0.26650  1.0000 0.0356156535
C   C2        1.0  0.84430  0.20150  0.23350  1.0000 0.0356156535
C   C3        1.0  0.84430  0.29850  0.73350  1.0000 0.0356156535
C   C4        1.0  0.15570  0.79850  0.76650  1.0000 0.0356156535
C   C5        1.0  0.17740  0.60650  0.27540  1.0000 -0.1500376037
C   C6        1.0  0.82260  0.10650  0.22460  1.0000 -0.1500376037
C   C7        1.0  0.82260  0.39350  0.72460  1.0000 -0.1500376037
C   C8        1.0  0.17740  0.89350  0.77540  1.0000 -0.1500376037
C   C9        1.0  0.30730  0.92670  0.80290  1.0000 -0.0383861458
C   C10       1.0  0.69270  0.42670  0.69710  1.0000 -0.0383861458
C   C11       1.0  0.69270  0.07330  0.19710  1.0000 -0.0383861458
C   C12       1.0  0.30730  0.57330  0.30290  1.0000 -0.0383861458
C   C13       1.0  0.41700  0.64080  0.32090  1.0000 -0.1762461162
C   C14       1.0  0.58300  0.14080  0.17910  1.0000 -0.1762461162
C   C15       1.0  0.58300  0.35920  0.67910  1.0000 -0.1762461162
C   C16       1.0  0.41700  0.85920  0.82090  1.0000 -0.1762461162
C   C17       1.0  0.38870  0.73690  0.31020  1.0000 0.118992981
C   C18       1.0  0.61130  0.23690  0.18980  1.0000 0.118992981
C   C19       1.0  0.61130  0.26310  0.68980  1.0000 0.118992981
C   C20       1.0  0.38870  0.76310  0.81020  1.0000 0.118992981
C   C21       1.0  0.48450  0.68450  0.82630  1.0000 0.1591356413
C   C22       1.0  0.51550  0.18450  0.67370  1.0000 0.1591356413
C   C23       1.0  0.51550  0.31550  0.17370  1.0000 0.1591356413
C   C24       1.0  0.48450  0.81550  0.32630  1.0000 0.1591356413
C   C25       1.0  0.54020  0.96680  0.33630  1.0000 -0.0383861458
C   C26       1.0  0.45980  0.46680  0.16370  1.0000 -0.0383861458
C   C27       1.0  0.45980  0.03320  0.66370  1.0000 -0.0383861458
C   C28       1.0  0.54020  0.53320  0.83630  1.0000 -0.0383861458
C   C29       1.0  0.66470  0.58480  0.84710  1.0000 -0.1589447727
C   C30       1.0  0.33530  0.08480  0.65290  1.0000 -0.1589447727
C   C31       1.0  0.33530  0.41520  0.15290  1.0000 -0.1589447727
C   C32       1.0  0.66470  0.91520  0.34710  1.0000 -0.1589447727
C   C33       1.0  0.73060  0.75760  0.84570  1.0000 -0.1746942422
C   C34       1.0  0.26940  0.25760  0.65430  1.0000 -0.1746942422
C   C35       1.0  0.26940  0.24240  0.15430  1.0000 -0.1746942422
C   C36       1.0  0.73060  0.74240  0.34570  1.0000 -0.1746942422
C   C37       1.0  0.73040  0.80690  0.77610  1.0000 0.0318793932
C   C38       1.0  0.26960  0.30690  0.72390  1.0000 0.0318793932
C   C39       1.0  0.26960  0.19310  0.22390  1.0000 0.0318793932
C   C40       1.0  0.73040  0.69310  0.27610  1.0000 0.0318793932
C   C41       1.0  0.69980  0.75800  0.71560  1.0000 -0.1285537204
C   C42       1.0  0.30020  0.25800  0.78440  1.0000 -0.1285537204
C   C43       1.0  0.30020  0.24200  0.28440  1.0000 -0.1285537204
C   C44       1.0  0.69980  0.74200  0.21560  1.0000 -0.1285537204
C   C45       1.0  0.70480  0.80840  0.65510  1.0000 -0.1589447727
C   C46       1.0  0.29520  0.30840  0.84490  1.0000 -0.1589447727
C   C47       1.0  0.29520  0.19160  0.34490  1.0000 -0.1589447727
C   C48       1.0  0.70480  0.69160  0.15510  1.0000 -0.1589447727
C   C49       1.0  0.73810  0.90420  0.65940  1.0000 0.016633658
C   C50       1.0  0.26190  0.40420  0.84060  1.0000 0.016633658
C   C51       1.0  0.26190  0.09580  0.34060  1.0000 0.016633658
C   C52       1.0  0.73810  0.59580  0.15940  1.0000 0.016633658
C   C53       1.0  0.75900  0.90240  0.77540  1.0000 0.0065883355
C   C54       1.0  0.24100  0.40240  0.72460  1.0000 0.0040294128
C   C55       1.0  0.24100  0.09760  0.22460  1.0000 0.0040294128
C   C56       1.0  0.75900  0.59760  0.27540  1.0000 0.0040294128
N   N1        1.0  0.25630  0.76630  0.28410  1.0000 -0.2649951747
N   N2        1.0  0.74370  0.26630  0.21590  1.0000 -0.2649951747
N   N3        1.0  0.74370  0.23370  0.71590  1.0000 -0.2656805983
N   N4        1.0  0.25630  0.73370  0.78410  1.0000 -0.2656805983
N   N5        1.0  0.43100  0.90310  0.32320  1.0000 -0.3436848095
N   N6        1.0  0.56900  0.40310  0.17680  1.0000 -0.3436848095
N   N7        1.0  0.56900  0.09690  0.67680  1.0000 -0.3436848095
N   N8        1.0  0.43100  0.59690  0.82320  1.0000 -0.3436848095
N   N9        1.0  0.62740  0.68070  0.84130  1.0000 0.0065883355
N   N10       1.0  0.37260  0.18070  0.65870  1.0000 0.0065883355
N   N11       1.0  0.37260  0.31930  0.15870  1.0000 0.0065883355
N   N12       1.0  0.62740  0.81930  0.34130  1.0000 0.0065883355
N   N13       1.0  0.76480  0.95100  0.71880  1.0000 -0.222797828
N   N14       1.0  0.23520  0.45100  0.78120  1.0000 -0.222797828
N   N15       1.0  0.23520  0.04900  0.28120  1.0000 -0.222797828
N   N16       1.0  0.76480  0.54900  0.21880  1.0000 -0.222797828
O   O1        1.0  0.19920  0.09610  0.88450  1.0000 -0.8822659871
O   O2        1.0  0.80080  0.59610  0.61550  1.0000 -0.8822659871
O   O3        1.0  0.80080  0.90390  0.11550  1.0000 -0.8822659871
O   O4        1.0  0.19920  0.40390  0.38450  1.0000 -0.8822659871
O   O5        1.0  0.08380  0.07710  0.98570  1.0000 -1.1183925143
O   O6        1.0  0.91620  0.57710  0.51430  1.0000 -1.1183925143
O   O7        1.0  0.91620  0.92290  0.01430  1.0000 -1.1183925143
O   O8        1.0  0.08380  0.42290  0.48570  1.0000 -1.1183925143
O   O9        1.0  0.93160  0.09760  0.79450  1.0000 -0.7381780317
O   O10       1.0  0.06840  0.59760  0.70550  1.0000 -0.7381780317
O   O11       1.0  0.06840  0.90240  0.20550  1.0000 -0.7381780317
O   O12       1.0  0.93160  0.40240  0.29450  1.0000 -0.7381780317
O   O13       1.0  0.84620  0.10030  0.92810  1.0000 -0.9926084748
O   O14       1.0  0.15380  0.60030  0.57190  1.0000 -0.9926084748
O   O15       1.0  0.15380  0.89970  0.07190  1.0000 -0.9926084748
O   O16       1.0  0.84620  0.39970  0.42810  1.0000 -0.9926084748
O   O17       1.0  0.00030  0.95090  0.88750  1.0000 -0.7201041898
O   O18       1.0  0.99970  0.45090  0.61250  1.0000 -0.7201041898
O   O19       1.0  0.99970  0.04910  0.11250  1.0000 -0.7201041898
O   O20       1.0  0.00030  0.54910  0.38750  1.0000 -0.7201041898
O   O21       1.0  0.26520  0.92870  0.97000  1.0000 -0.9295674434
O   O22       1.0  0.73480  0.42870  0.53000  1.0000 -0.9295674434
O   O23       1.0  0.73480  0.07130  0.03000  1.0000 -0.9295674434
O   O24       1.0  0.26520  0.57130  0.47000  1.0000 -0.9295674434
O   O25       1.0  0.33830  0.04920  0.06760  1.0000 -0.7526629439
O   O26       1.0  0.66170  0.54920  0.43240  1.0000 -0.7526629439
O   O27       1.0  0.66170  0.95080  0.93240  1.0000 -0.7526629439
O   O28       1.0  0.33830  0.45080  0.56760  1.0000 -0.7526629439
O   O29       1.0  0.46330  0.07590  0.94900  1.0000 -0.7738646737
O   O30       1.0  0.53670  0.57590  0.55100  1.0000 -0.7738646737
O   O31       1.0  0.53670  0.92410  0.05100  1.0000 -0.7738646737
O   O32       1.0  0.46330  0.42410  0.44900  1.0000 -0.7738646737
