# DDEC6 charges by PACMAN v1.1 (https://github.com/mtap-research/PACMAN-charge/)
data_2010[Zn][pts]3[ASR]3
_chemical_formula_sum              "Zn4 H48 C66 O24"
_cell_length_a       6.9314
_cell_length_b       12.382
_cell_length_c       27.738
_cell_angle_alpha    96.641
_cell_angle_beta     91.231
_cell_angle_gamma    104.221

_symmetry_space_group_name_H-M    "P 1"
_symmetry_Int_Tables_number       1

loop_
  _symmetry_equiv_pos_as_xyz
  'x, y, z'

loop_
  _atom_site_type_symbol
  _atom_site_label
  _atom_site_symmetry_multiplicity
  _atom_site_fract_x
  _atom_site_fract_y
  _atom_site_fract_z
  _atom_site_occupancy
  _atom_site_charge
Zn  Zn1       1.0  0.70347  0.57231  0.50363  1.0000 0.9142937246
Zn  Zn2       1.0  0.29653  0.42769  0.49637  1.0000 0.9142937246
Zn  Zn3       1.0  0.98890  0.36483  0.00899  1.0000 0.8902366343
Zn  Zn4       1.0  0.01110  0.63517  0.99101  1.0000 0.8902366343
H   H1        1.0  0.04610  0.61570  0.39760  1.0000 0.1302875462
H   H2        1.0  0.95390  0.38430  0.60240  1.0000 0.1302875462
H   H3        1.0  0.95990  0.72430  0.34120  1.0000 0.1189626607
H   H4        1.0  0.04010  0.27570  0.65880  1.0000 0.1189626607
H   H5        1.0  0.53920  0.89050  0.33980  1.0000 0.1302875462
H   H6        1.0  0.46080  0.10950  0.66020  1.0000 0.1302875462
H   H7        1.0  0.62240  0.78610  0.39670  1.0000 0.1189626607
H   H8        1.0  0.37760  0.21390  0.60330  1.0000 0.1189626607
H   H9        1.0  0.90860  0.86010  0.30180  1.0000 0.0994369905
H   H10       1.0  0.09140  0.13990  0.69820  1.0000 0.0994369905
H   H11       1.0  0.98640  0.78800  0.25800  1.0000 0.1105440039
H   H12       1.0  0.01360  0.21200  0.74200  1.0000 0.1105440039
H   H13       1.0  0.08950  0.08190  0.30440  1.0000 0.0994369905
H   H14       1.0  0.91050  0.91810  0.69560  1.0000 0.0994369905
H   H15       1.0  0.02010  0.12460  0.25610  1.0000 0.1105440039
H   H16       1.0  0.97990  0.87540  0.74390  1.0000 0.1105440039
H   H17       1.0  0.46190  0.06170  0.32000  1.0000 0.1189626607
H   H18       1.0  0.53810  0.93830  0.68000  1.0000 0.1189626607
H   H19       1.0  0.37720  0.19170  0.37720  1.0000 0.1189626607
H   H20       1.0  0.62280  0.80830  0.62280  1.0000 0.1189626607
H   H21       1.0  0.95020  0.37090  0.39140  1.0000 0.1302875462
H   H22       1.0  0.04980  0.62910  0.60860  1.0000 0.1302875462
H   H23       1.0  0.03690  0.23930  0.33550  1.0000 0.1302875462
H   H24       1.0  0.96310  0.76070  0.66450  1.0000 0.1302875462
H   H25       1.0  0.70370  0.87970  0.22780  1.0000 0.0994369905
H   H26       1.0  0.29630  0.12030  0.77220  1.0000 0.0994369905
H   H27       1.0  0.80150  0.96920  0.19200  1.0000 0.0994369905
H   H28       1.0  0.19850  0.03080  0.80800  1.0000 0.0994369905
H   H29       1.0  0.87510  0.64480  0.12270  1.0000 0.1389332819
H   H30       1.0  0.12490  0.35520  0.87730  1.0000 0.1389332819
H   H31       1.0  0.61760  0.52340  0.07250  1.0000 0.1389332819
H   H32       1.0  0.38240  0.47660  0.92750  1.0000 0.1389332819
H   H33       1.0  0.25720  0.72860  0.10690  1.0000 0.1189626607
H   H34       1.0  0.74280  0.27140  0.89310  1.0000 0.1189626607
H   H35       1.0  0.51070  0.84790  0.15920  1.0000 0.1189626607
H   H36       1.0  0.48930  0.15210  0.84080  1.0000 0.1189626607
H   H37       1.0  0.31470  0.01920  0.24120  1.0000 0.0994369905
H   H38       1.0  0.68530  0.98080  0.75880  1.0000 0.0994369905
H   H39       1.0  0.22570  0.91330  0.20090  1.0000 0.1105440039
H   H40       1.0  0.77430  0.08670  0.79910  1.0000 0.1105440039
H   H41       1.0  0.55300  0.06450  0.19250  1.0000 0.1105440039
H   H42       1.0  0.44700  0.93550  0.80750  1.0000 0.1105440039
H   H43       1.0  0.80250  0.16150  0.14690  1.0000 0.1105440039
H   H44       1.0  0.19750  0.83850  0.85310  1.0000 0.1105440039
H   H45       1.0  0.39520  0.28580  0.07960  1.0000 0.1302875462
H   H46       1.0  0.60480  0.71420  0.92040  1.0000 0.1302875462
H   H47       1.0  0.15080  0.19460  0.12720  1.0000 0.1389332819
H   H48       1.0  0.84920  0.80540  0.87280  1.0000 0.1389332819
C   C1        1.0  0.39820  0.62160  0.43940  1.0000 0.5874157134
C   C2        1.0  0.60180  0.37840  0.56060  1.0000 0.5874157134
C   C3        1.0  0.34310  0.69010  0.40340  1.0000 -0.0619342806
C   C4        1.0  0.65690  0.30990  0.59660  1.0000 -0.0619342806
C   C5        1.0  0.14670  0.67250  0.38620  1.0000 -0.0709775281
C   C6        1.0  0.85330  0.32750  0.61380  1.0000 -0.0709775281
C   C7        1.0  0.09500  0.73650  0.35230  1.0000 -0.2319970992
C   C8        1.0  0.90500  0.26350  0.64770  1.0000 -0.2319970992
C   C9        1.0  0.24000  0.81710  0.33530  1.0000 0.251417398
C   C10       1.0  0.76000  0.18290  0.66470  1.0000 0.251417398
C   C11       1.0  0.43830  0.83490  0.35190  1.0000 -0.2103712824
C   C12       1.0  0.56170  0.16510  0.64810  1.0000 -0.2103712824
C   C13       1.0  0.48730  0.77280  0.38540  1.0000 -0.0820069677
C   C14       1.0  0.51270  0.22720  0.61460  1.0000 -0.0820069677
C   C15       1.0  0.01330  0.86230  0.27800  1.0000 -0.1005366337
C   C16       1.0  0.98670  0.13770  0.72200  1.0000 -0.1005366337
C   C17       1.0  0.01190  0.95270  0.24600  1.0000 0.0778385732
C   C18       1.0  0.98810  0.04730  0.75400  1.0000 0.0778385732
C   C19       1.0  0.99140  0.06230  0.27630  1.0000 -0.0910480296
C   C20       1.0  0.00860  0.93770  0.72370  1.0000 -0.0910480296
C   C21       1.0  0.76050  0.13640  0.32370  1.0000 0.251417398
C   C22       1.0  0.23950  0.86360  0.67630  1.0000 0.251417398
C   C23       1.0  0.56210  0.12380  0.33530  1.0000 -0.2203726065
C   C24       1.0  0.43790  0.87620  0.66470  1.0000 -0.2203726065
C   C25       1.0  0.51220  0.20170  0.36890  1.0000 -0.0910480296
C   C26       1.0  0.48780  0.79830  0.63110  1.0000 -0.0910480296
C   C27       1.0  0.65240  0.29330  0.39070  1.0000 -0.0391363012
C   C28       1.0  0.34760  0.70670  0.60930  1.0000 -0.0391363012
C   C29       1.0  0.85090  0.30700  0.37730  1.0000 -0.0709775281
C   C30       1.0  0.14910  0.69300  0.62270  1.0000 -0.0709775281
C   C31       1.0  0.90250  0.22910  0.34420  1.0000 -0.2319970992
C   C32       1.0  0.09750  0.77090  0.65580  1.0000 -0.2319970992
C   C33       1.0  0.59780  0.37410  0.42960  1.0000 0.5874157134
C   C34       1.0  0.40220  0.62590  0.57040  1.0000 0.5874157134
C   C35       1.0  0.82400  0.90840  0.20990  1.0000 -0.0820069677
C   C36       1.0  0.17600  0.09160  0.79010  1.0000 -0.0820069677
C   C37       1.0  0.70960  0.75350  0.14720  1.0000 0.251417398
C   C38       1.0  0.29040  0.24650  0.85280  1.0000 0.251417398
C   C39       1.0  0.74780  0.66020  0.12030  1.0000 -0.2011886313
C   C40       1.0  0.25220  0.33980  0.87970  1.0000 -0.2011886313
C   C41       1.0  0.59550  0.58980  0.08970  1.0000 -0.0619342806
C   C42       1.0  0.40450  0.41020  0.91030  1.0000 -0.0619342806
C   C43       1.0  0.41600  0.61340  0.08390  1.0000 -0.0391363012
C   C44       1.0  0.58400  0.38660  0.91610  1.0000 -0.0391363012
C   C45       1.0  0.38230  0.71100  0.11050  1.0000 -0.0820069677
C   C46       1.0  0.61770  0.28900  0.88950  1.0000 -0.0820069677
C   C47       1.0  0.53170  0.78140  0.14180  1.0000 -0.2448209938
C   C48       1.0  0.46830  0.21860  0.85820  1.0000 -0.2448209938
C   C49       1.0  0.24500  0.53730  0.05270  1.0000 0.5829386893
C   C50       1.0  0.75500  0.46270  0.94730  1.0000 0.5829386893
C   C51       1.0  0.19920  0.98200  0.21850  1.0000 -0.0910480296
C   C52       1.0  0.80080  0.01800  0.78150  1.0000 -0.0910480296
C   C53       1.0  0.32890  0.11560  0.16200  1.0000 0.251417398
C   C54       1.0  0.67110  0.88440  0.83800  1.0000 0.251417398
C   C55       1.0  0.52100  0.10850  0.16910  1.0000 -0.2524955389
C   C56       1.0  0.47900  0.89150  0.83090  1.0000 -0.2524955389
C   C57       1.0  0.66890  0.16610  0.14190  1.0000 -0.0910480296
C   C58       1.0  0.33110  0.83390  0.85810  1.0000 -0.0910480296
C   C59       1.0  0.62360  0.23000  0.10750  1.0000 -0.0306424875
C   C60       1.0  0.37640  0.77000  0.89250  1.0000 -0.0306424875
C   C61       1.0  0.42760  0.24040  0.10230  1.0000 -0.0709775281
C   C62       1.0  0.57240  0.75960  0.89770  1.0000 -0.0709775281
C   C63       1.0  0.28240  0.18530  0.13000  1.0000 -0.1928893369
C   C64       1.0  0.71760  0.81470  0.87000  1.0000 -0.1928893369
C   C65       1.0  0.77780  0.28150  0.07420  1.0000 0.5496229414
C   C66       1.0  0.22220  0.71850  0.92580  1.0000 0.5496229414
O   O1        1.0  0.57390  0.64630  0.45560  1.0000 -0.5303157982
O   O2        1.0  0.42610  0.35370  0.54440  1.0000 -0.5303157982
O   O3        1.0  0.26740  0.54320  0.45190  1.0000 -0.5303157982
O   O4        1.0  0.73260  0.45680  0.54810  1.0000 -0.5303157982
O   O5        1.0  0.20620  0.88730  0.30280  1.0000 -0.2103712824
O   O6        1.0  0.79380  0.11270  0.69720  1.0000 -0.2011886313
O   O7        1.0  0.79570  0.04830  0.29320  1.0000 -0.2011886313
O   O8        1.0  0.20430  0.95170  0.70680  1.0000 -0.2011886313
O   O9        1.0  0.72800  0.45400  0.44750  1.0000 -0.5070808944
O   O10       1.0  0.27200  0.54600  0.55250  1.0000 -0.5070808944
O   O11       1.0  0.41930  0.35000  0.44180  1.0000 -0.5511260149
O   O12       1.0  0.58070  0.65000  0.55820  1.0000 -0.5511260149
O   O13       1.0  0.86620  0.81920  0.17680  1.0000 -0.2011886313
O   O14       1.0  0.13380  0.18080  0.82320  1.0000 -0.2011886313
O   O15       1.0  0.26830  0.44700  0.03260  1.0000 -0.4887352404
O   O16       1.0  0.73170  0.55300  0.96740  1.0000 -0.4887352404
O   O17       1.0  0.08060  0.56670  0.04930  1.0000 -0.5945499953
O   O18       1.0  0.91940  0.43330  0.95070  1.0000 -0.5945499953
O   O19       1.0  0.16770  0.05690  0.18460  1.0000 -0.1928893369
O   O20       1.0  0.83230  0.94310  0.81540  1.0000 -0.1928893369
O   O21       1.0  0.95430  0.28320  0.08210  1.0000 -0.5407906588
O   O22       1.0  0.04570  0.71680  0.91790  1.0000 -0.5407906588
O   O23       1.0  0.72170  0.32280  0.03790  1.0000 -0.5407906588
O   O24       1.0  0.27830  0.67720  0.96210  1.0000 -0.5407906588
