# DDEC6 charges by PACMAN v1.1 (https://github.com/mtap-research/PACMAN-charge/)
data_2010[Zn][srs]3[ASR]2
_chemical_formula_sum              "Zn24 H192 C288 I48 N96"
_cell_length_a       13.8719
_cell_length_b       27.742
_cell_length_c       44.522
_cell_angle_alpha    90
_cell_angle_beta     90
_cell_angle_gamma    90

_symmetry_space_group_name_H-M    "P 1"
_symmetry_Int_Tables_number       1

loop_
  _symmetry_equiv_pos_as_xyz
  'x, y, z'

loop_
  _atom_site_type_symbol
  _atom_site_label
  _atom_site_symmetry_multiplicity
  _atom_site_fract_x
  _atom_site_fract_y
  _atom_site_fract_z
  _atom_site_occupancy
  _atom_site_charge
Zn  Zn1       1.0  0.88176  0.52440  0.41485  1.0000 0.4624565853
Zn  Zn2       1.0  0.11824  0.97560  0.91485  1.0000 0.4624565853
Zn  Zn3       1.0  0.38176  0.47560  0.08515  1.0000 0.4624565853
Zn  Zn4       1.0  0.61824  0.02440  0.58515  1.0000 0.4624565853
Zn  Zn5       1.0  0.64231  0.54604  0.58770  1.0000 0.4534093751
Zn  Zn6       1.0  0.35769  0.95396  0.08770  1.0000 0.4534093751
Zn  Zn7       1.0  0.14231  0.45396  0.91230  1.0000 0.4534093751
Zn  Zn8       1.0  0.85769  0.04604  0.41230  1.0000 0.4534093751
Zn  Zn9       1.0  0.18140  0.26057  0.18011  1.0000 0.4663489996
Zn  Zn10      1.0  0.81860  0.23943  0.68011  1.0000 0.4663489996
Zn  Zn11      1.0  0.68140  0.73943  0.31989  1.0000 0.4663489996
Zn  Zn12      1.0  0.31860  0.76057  0.81989  1.0000 0.4663489996
Zn  Zn13      1.0  0.11824  0.47560  0.58515  1.0000 0.4624565853
Zn  Zn14      1.0  0.88176  0.02440  0.08515  1.0000 0.4624565853
Zn  Zn15      1.0  0.61824  0.52440  0.91485  1.0000 0.4624565853
Zn  Zn16      1.0  0.38176  0.97560  0.41485  1.0000 0.4624565853
Zn  Zn17      1.0  0.35769  0.45396  0.41230  1.0000 0.4534093751
Zn  Zn18      1.0  0.64231  0.04604  0.91230  1.0000 0.4534093751
Zn  Zn19      1.0  0.85769  0.54604  0.08770  1.0000 0.4534093751
Zn  Zn20      1.0  0.14231  0.95396  0.58770  1.0000 0.4534093751
Zn  Zn21      1.0  0.81860  0.73943  0.81989  1.0000 0.4663489996
Zn  Zn22      1.0  0.18140  0.76057  0.31989  1.0000 0.4663489996
Zn  Zn23      1.0  0.31860  0.26057  0.68011  1.0000 0.4663489996
Zn  Zn24      1.0  0.68140  0.23943  0.18011  1.0000 0.4663489996
H   H1        1.0  0.02170  0.53500  0.46600  1.0000 0.1099363805
H   H2        1.0  0.97830  0.96500  0.96600  1.0000 0.1099363805
H   H3        1.0  0.52170  0.46500  0.03400  1.0000 0.1099363805
H   H4        1.0  0.47830  0.03500  0.53400  1.0000 0.1099363805
H   H5        1.0  0.17780  0.56060  0.47530  1.0000 0.1309449905
H   H6        1.0  0.82220  0.93940  0.97530  1.0000 0.1309449905
H   H7        1.0  0.67780  0.43940  0.02470  1.0000 0.1309449905
H   H8        1.0  0.32220  0.06060  0.52470  1.0000 0.1309449905
H   H9        1.0  0.03660  0.57900  0.38220  1.0000 0.1099363805
H   H10       1.0  0.96340  0.92100  0.88220  1.0000 0.1099363805
H   H11       1.0  0.53660  0.42100  0.11780  1.0000 0.1099363805
H   H12       1.0  0.46340  0.07900  0.61780  1.0000 0.1099363805
H   H13       1.0  0.19360  0.60490  0.38870  1.0000 0.1309449905
H   H14       1.0  0.80640  0.89510  0.88870  1.0000 0.1309449905
H   H15       1.0  0.69360  0.39510  0.11130  1.0000 0.1309449905
H   H16       1.0  0.30640  0.10490  0.61130  1.0000 0.1309449905
H   H17       1.0  0.47240  0.71330  0.33320  1.0000 0.1099363805
H   H18       1.0  0.52760  0.78670  0.83320  1.0000 0.1099363805
H   H19       1.0  0.97240  0.28670  0.16680  1.0000 0.1099363805
H   H20       1.0  0.02760  0.21330  0.66680  1.0000 0.1099363805
H   H21       1.0  0.38240  0.67540  0.37000  1.0000 0.1309449905
H   H22       1.0  0.61760  0.82460  0.87000  1.0000 0.1309449905
H   H23       1.0  0.88240  0.32460  0.13000  1.0000 0.1309449905
H   H24       1.0  0.11760  0.17540  0.63000  1.0000 0.1309449905
H   H25       1.0  0.71320  0.68480  0.37560  1.0000 0.1099363805
H   H26       1.0  0.28680  0.81520  0.87560  1.0000 0.1099363805
H   H27       1.0  0.21320  0.31520  0.12440  1.0000 0.1099363805
H   H28       1.0  0.78680  0.18480  0.62440  1.0000 0.1099363805
H   H29       1.0  0.63040  0.64710  0.41420  1.0000 0.1309449905
H   H30       1.0  0.36960  0.85290  0.91420  1.0000 0.1309449905
H   H31       1.0  0.13040  0.35290  0.08580  1.0000 0.1309449905
H   H32       1.0  0.86960  0.14710  0.58580  1.0000 0.1309449905
H   H33       1.0  0.70130  0.57600  0.52460  1.0000 0.1099363805
H   H34       1.0  0.29870  0.92400  0.02460  1.0000 0.1099363805
H   H35       1.0  0.20130  0.42400  0.97540  1.0000 0.1099363805
H   H36       1.0  0.79870  0.07600  0.47540  1.0000 0.1099363805
H   H37       1.0  0.62780  0.59810  0.47970  1.0000 0.1368836455
H   H38       1.0  0.37220  0.90190  0.97970  1.0000 0.1368836455
H   H39       1.0  0.12780  0.40190  0.02030  1.0000 0.1368836455
H   H40       1.0  0.87220  0.09810  0.52030  1.0000 0.1368836455
H   H41       1.0  0.45510  0.52690  0.55680  1.0000 0.1099363805
H   H42       1.0  0.54490  0.97310  0.05680  1.0000 0.1099363805
H   H43       1.0  0.95510  0.47310  0.94320  1.0000 0.1099363805
H   H44       1.0  0.04490  0.02690  0.44320  1.0000 0.1099363805
H   H45       1.0  0.37440  0.54850  0.51310  1.0000 0.1309449905
H   H46       1.0  0.62560  0.95150  0.01310  1.0000 0.1309449905
H   H47       1.0  0.87440  0.45150  0.98690  1.0000 0.1309449905
H   H48       1.0  0.12560  0.04850  0.48690  1.0000 0.1309449905
H   H49       1.0  0.94610  0.08300  0.35580  1.0000 0.1025099083
H   H50       1.0  0.05390  0.41700  0.85580  1.0000 0.1025099083
H   H51       1.0  0.44610  0.91700  0.14420  1.0000 0.1025099083
H   H52       1.0  0.55390  0.58300  0.64420  1.0000 0.1025099083
H   H53       1.0  0.97500  0.15510  0.33130  1.0000 0.1309449905
H   H54       1.0  0.02500  0.34490  0.83130  1.0000 0.1309449905
H   H55       1.0  0.47500  0.84490  0.16870  1.0000 0.1309449905
H   H56       1.0  0.52500  0.65510  0.66870  1.0000 0.1309449905
H   H57       1.0  0.87530  0.15150  0.43020  1.0000 0.1025099083
H   H58       1.0  0.12470  0.34850  0.93020  1.0000 0.1025099083
H   H59       1.0  0.37530  0.84850  0.06980  1.0000 0.1025099083
H   H60       1.0  0.62470  0.65150  0.56980  1.0000 0.1025099083
H   H61       1.0  0.90710  0.22590  0.40810  1.0000 0.1368836455
H   H62       1.0  0.09290  0.27410  0.90810  1.0000 0.1368836455
H   H63       1.0  0.40710  0.77410  0.09190  1.0000 0.1309449905
H   H64       1.0  0.59290  0.72590  0.59190  1.0000 0.1368836455
H   H65       1.0  0.88810  0.41820  0.42990  1.0000 0.1099363805
H   H66       1.0  0.11190  0.08180  0.92990  1.0000 0.1099363805
H   H67       1.0  0.38810  0.58180  0.07010  1.0000 0.1099363805
H   H68       1.0  0.61190  0.91820  0.57010  1.0000 0.1099363805
H   H69       1.0  0.91400  0.34400  0.40650  1.0000 0.1309449905
H   H70       1.0  0.08600  0.15600  0.90650  1.0000 0.1309449905
H   H71       1.0  0.41400  0.65600  0.09350  1.0000 0.1309449905
H   H72       1.0  0.58600  0.84400  0.59350  1.0000 0.1309449905
H   H73       1.0  0.95080  0.48790  0.35540  1.0000 0.1025099083
H   H74       1.0  0.04920  0.01210  0.85540  1.0000 0.1025099083
H   H75       1.0  0.45080  0.51210  0.14460  1.0000 0.1025099083
H   H76       1.0  0.54920  0.98790  0.64460  1.0000 0.1025099083
H   H77       1.0  0.97860  0.41620  0.32990  1.0000 0.1309449905
H   H78       1.0  0.02140  0.08380  0.82990  1.0000 0.1309449905
H   H79       1.0  0.47860  0.58380  0.17010  1.0000 0.1309449905
H   H80       1.0  0.52140  0.91620  0.67010  1.0000 0.1309449905
H   H81       1.0  0.13190  0.34020  0.22310  1.0000 0.1099363805
H   H82       1.0  0.86810  0.15980  0.72310  1.0000 0.1099363805
H   H83       1.0  0.63190  0.65980  0.27690  1.0000 0.1099363805
H   H84       1.0  0.36810  0.84020  0.77690  1.0000 0.1099363805
H   H85       1.0  0.06910  0.35040  0.27070  1.0000 0.1368836455
H   H86       1.0  0.93090  0.14960  0.77070  1.0000 0.1368836455
H   H87       1.0  0.56910  0.64960  0.22930  1.0000 0.1368836455
H   H88       1.0  0.43090  0.85040  0.72930  1.0000 0.1368836455
H   H89       1.0  0.06430  0.20260  0.22320  1.0000 0.1099363805
H   H90       1.0  0.93570  0.29740  0.72320  1.0000 0.1099363805
H   H91       1.0  0.56430  0.79740  0.27680  1.0000 0.1099363805
H   H92       1.0  0.43570  0.70260  0.77680  1.0000 0.1099363805
H   H93       1.0  0.00360  0.20820  0.27210  1.0000 0.1309449905
H   H94       1.0  0.99640  0.29180  0.77210  1.0000 0.1309449905
H   H95       1.0  0.50360  0.79180  0.22790  1.0000 0.1309449905
H   H96       1.0  0.49640  0.70820  0.72790  1.0000 0.1309449905
H   H97       1.0  0.97830  0.46500  0.53400  1.0000 0.1099363805
H   H98       1.0  0.02170  0.03500  0.03400  1.0000 0.1099363805
H   H99       1.0  0.47830  0.53500  0.96600  1.0000 0.1099363805
H   H100      1.0  0.52170  0.96500  0.46600  1.0000 0.1099363805
H   H101      1.0  0.82220  0.43940  0.52470  1.0000 0.1309449905
H   H102      1.0  0.17780  0.06060  0.02470  1.0000 0.1309449905
H   H103      1.0  0.32220  0.56060  0.97530  1.0000 0.1309449905
H   H104      1.0  0.67780  0.93940  0.47530  1.0000 0.1309449905
H   H105      1.0  0.96340  0.42100  0.61780  1.0000 0.1099363805
H   H106      1.0  0.03660  0.07900  0.11780  1.0000 0.1099363805
H   H107      1.0  0.46340  0.57900  0.88220  1.0000 0.1099363805
H   H108      1.0  0.53660  0.92100  0.38220  1.0000 0.1099363805
H   H109      1.0  0.80640  0.39510  0.61130  1.0000 0.1309449905
H   H110      1.0  0.19360  0.10490  0.11130  1.0000 0.1309449905
H   H111      1.0  0.30640  0.60490  0.88870  1.0000 0.1309449905
H   H112      1.0  0.69360  0.89510  0.38870  1.0000 0.1309449905
H   H113      1.0  0.52760  0.28670  0.66680  1.0000 0.1099363805
H   H114      1.0  0.47240  0.21330  0.16680  1.0000 0.1099363805
H   H115      1.0  0.02760  0.71330  0.83320  1.0000 0.1099363805
H   H116      1.0  0.97240  0.78670  0.33320  1.0000 0.1099363805
H   H117      1.0  0.61760  0.32460  0.63000  1.0000 0.1309449905
H   H118      1.0  0.38240  0.17540  0.13000  1.0000 0.1309449905
H   H119      1.0  0.11760  0.67540  0.87000  1.0000 0.1309449905
H   H120      1.0  0.88240  0.82460  0.37000  1.0000 0.1309449905
H   H121      1.0  0.28680  0.31520  0.62440  1.0000 0.1099363805
H   H122      1.0  0.71320  0.18480  0.12440  1.0000 0.1099363805
H   H123      1.0  0.78680  0.68480  0.87560  1.0000 0.1099363805
H   H124      1.0  0.21320  0.81520  0.37560  1.0000 0.1099363805
H   H125      1.0  0.36960  0.35290  0.58580  1.0000 0.1309449905
H   H126      1.0  0.63040  0.14710  0.08580  1.0000 0.1309449905
H   H127      1.0  0.86960  0.64710  0.91420  1.0000 0.1309449905
H   H128      1.0  0.13040  0.85290  0.41420  1.0000 0.1309449905
H   H129      1.0  0.29870  0.42400  0.47540  1.0000 0.1099363805
H   H130      1.0  0.70130  0.07600  0.97540  1.0000 0.1099363805
H   H131      1.0  0.79870  0.57600  0.02460  1.0000 0.1099363805
H   H132      1.0  0.20130  0.92400  0.52460  1.0000 0.1099363805
H   H133      1.0  0.37220  0.40190  0.52030  1.0000 0.1368836455
H   H134      1.0  0.62780  0.09810  0.02030  1.0000 0.1368836455
H   H135      1.0  0.87220  0.59810  0.97970  1.0000 0.1368836455
H   H136      1.0  0.12780  0.90190  0.47970  1.0000 0.1368836455
H   H137      1.0  0.54490  0.47310  0.44320  1.0000 0.1099363805
H   H138      1.0  0.45510  0.02690  0.94320  1.0000 0.1099363805
H   H139      1.0  0.04490  0.52690  0.05680  1.0000 0.1099363805
H   H140      1.0  0.95510  0.97310  0.55680  1.0000 0.1099363805
H   H141      1.0  0.62560  0.45150  0.48690  1.0000 0.1309449905
H   H142      1.0  0.37440  0.04850  0.98690  1.0000 0.1309449905
H   H143      1.0  0.12560  0.54850  0.01310  1.0000 0.1309449905
H   H144      1.0  0.87440  0.95150  0.51310  1.0000 0.1309449905
H   H145      1.0  0.05390  0.91700  0.64420  1.0000 0.1025099083
H   H146      1.0  0.94610  0.58300  0.14420  1.0000 0.1025099083
H   H147      1.0  0.55390  0.08300  0.85580  1.0000 0.1025099083
H   H148      1.0  0.44610  0.41700  0.35580  1.0000 0.1025099083
H   H149      1.0  0.02500  0.84490  0.66870  1.0000 0.1309449905
H   H150      1.0  0.97500  0.65510  0.16870  1.0000 0.1309449905
H   H151      1.0  0.52500  0.15510  0.83130  1.0000 0.1309449905
H   H152      1.0  0.47500  0.34490  0.33130  1.0000 0.1309449905
H   H153      1.0  0.12470  0.84850  0.56980  1.0000 0.1025099083
H   H154      1.0  0.87530  0.65150  0.06980  1.0000 0.1025099083
H   H155      1.0  0.62470  0.15150  0.93020  1.0000 0.1025099083
H   H156      1.0  0.37530  0.34850  0.43020  1.0000 0.1025099083
H   H157      1.0  0.09290  0.77410  0.59190  1.0000 0.1368836455
H   H158      1.0  0.90710  0.72590  0.09190  1.0000 0.1309449905
H   H159      1.0  0.59290  0.22590  0.90810  1.0000 0.1368836455
H   H160      1.0  0.40710  0.27410  0.40810  1.0000 0.1309449905
H   H161      1.0  0.11190  0.58180  0.57010  1.0000 0.1099363805
H   H162      1.0  0.88810  0.91820  0.07010  1.0000 0.1099363805
H   H163      1.0  0.61190  0.41820  0.92990  1.0000 0.1099363805
H   H164      1.0  0.38810  0.08180  0.42990  1.0000 0.1099363805
H   H165      1.0  0.08600  0.65600  0.59350  1.0000 0.1309449905
H   H166      1.0  0.91400  0.84400  0.09350  1.0000 0.1309449905
H   H167      1.0  0.58600  0.34400  0.90650  1.0000 0.1309449905
H   H168      1.0  0.41400  0.15600  0.40650  1.0000 0.1309449905
H   H169      1.0  0.04920  0.51210  0.64460  1.0000 0.1025099083
H   H170      1.0  0.95080  0.98790  0.14460  1.0000 0.1025099083
H   H171      1.0  0.54920  0.48790  0.85540  1.0000 0.1025099083
H   H172      1.0  0.45080  0.01210  0.35540  1.0000 0.1025099083
H   H173      1.0  0.02140  0.58380  0.67010  1.0000 0.1309449905
H   H174      1.0  0.97860  0.91620  0.17010  1.0000 0.1309449905
H   H175      1.0  0.52140  0.41620  0.82990  1.0000 0.1309449905
H   H176      1.0  0.47860  0.08380  0.32990  1.0000 0.1309449905
H   H177      1.0  0.86810  0.65980  0.77690  1.0000 0.1099363805
H   H178      1.0  0.13190  0.84020  0.27690  1.0000 0.1099363805
H   H179      1.0  0.36810  0.34020  0.72310  1.0000 0.1099363805
H   H180      1.0  0.63190  0.15980  0.22310  1.0000 0.1099363805
H   H181      1.0  0.93090  0.64960  0.72930  1.0000 0.1368836455
H   H182      1.0  0.06910  0.85040  0.22930  1.0000 0.1368836455
H   H183      1.0  0.43090  0.35040  0.77070  1.0000 0.1368836455
H   H184      1.0  0.56910  0.14960  0.27070  1.0000 0.1368836455
H   H185      1.0  0.93570  0.79740  0.77680  1.0000 0.1099363805
H   H186      1.0  0.06430  0.70260  0.27680  1.0000 0.1099363805
H   H187      1.0  0.43570  0.20260  0.72320  1.0000 0.1099363805
H   H188      1.0  0.56430  0.29740  0.22320  1.0000 0.1099363805
H   H189      1.0  0.99640  0.79180  0.72790  1.0000 0.1309449905
H   H190      1.0  0.00360  0.70820  0.22790  1.0000 0.1309449905
H   H191      1.0  0.49640  0.20820  0.77210  1.0000 0.1309449905
H   H192      1.0  0.50360  0.29180  0.27210  1.0000 0.1309449905
C   C1        1.0  0.05730  0.54949  0.45017  1.0000 0.0819717943
C   C2        1.0  0.94270  0.95051  0.95017  1.0000 0.0819717943
C   C3        1.0  0.55730  0.45051  0.04983  1.0000 0.0819717943
C   C4        1.0  0.44270  0.04949  0.54983  1.0000 0.0819717943
C   C5        1.0  0.15030  0.56437  0.45594  1.0000 -0.1415456694
C   C6        1.0  0.84970  0.93563  0.95594  1.0000 -0.1415456694
C   C7        1.0  0.65030  0.43563  0.04406  1.0000 -0.1415456694
C   C8        1.0  0.34970  0.06437  0.54406  1.0000 -0.1415456694
C   C9        1.0  0.06620  0.57504  0.40126  1.0000 0.0819717943
C   C10       1.0  0.93380  0.92496  0.90126  1.0000 0.0819717943
C   C11       1.0  0.56620  0.42496  0.09874  1.0000 0.0819717943
C   C12       1.0  0.43380  0.07504  0.59874  1.0000 0.0819717943
C   C13       1.0  0.15960  0.59063  0.40492  1.0000 -0.1254398437
C   C14       1.0  0.84040  0.90937  0.90492  1.0000 -0.1254398437
C   C15       1.0  0.65960  0.40937  0.09508  1.0000 -0.1254398437
C   C16       1.0  0.34040  0.09063  0.59508  1.0000 -0.1254398437
C   C17       1.0  0.20300  0.58512  0.43259  1.0000 0.0599410614
C   C18       1.0  0.79700  0.91488  0.93259  1.0000 0.0599410614
C   C19       1.0  0.70300  0.41488  0.06741  1.0000 0.0599410614
C   C20       1.0  0.29700  0.08512  0.56741  1.0000 0.0599410614
C   C21       1.0  0.30570  0.59890  0.43730  1.0000 0.3727012489
C   C22       1.0  0.69430  0.90110  0.93730  1.0000 0.3727012489
C   C23       1.0  0.80570  0.40110  0.06270  1.0000 0.3727012489
C   C24       1.0  0.19430  0.09890  0.56270  1.0000 0.3727012489
C   C25       1.0  0.50480  0.69950  0.34991  1.0000 0.0819717943
C   C26       1.0  0.49520  0.80050  0.84991  1.0000 0.0819717943
C   C27       1.0  0.00480  0.30050  0.15009  1.0000 0.0819717943
C   C28       1.0  0.99520  0.19950  0.65009  1.0000 0.0819717943
C   C29       1.0  0.45060  0.67720  0.37175  1.0000 -0.1228276981
C   C30       1.0  0.54940  0.82280  0.87175  1.0000 -0.1228276981
C   C31       1.0  0.95060  0.32280  0.12825  1.0000 -0.1228276981
C   C32       1.0  0.04940  0.17720  0.62825  1.0000 -0.1228276981
C   C33       1.0  0.64490  0.68320  0.37458  1.0000 0.0921568665
C   C34       1.0  0.35510  0.81680  0.87458  1.0000 0.0921568665
C   C35       1.0  0.14490  0.31680  0.12542  1.0000 0.0921568665
C   C36       1.0  0.85510  0.18320  0.62542  1.0000 0.0921568665
C   C37       1.0  0.59620  0.66040  0.39769  1.0000 -0.1228276981
C   C38       1.0  0.40380  0.83960  0.89769  1.0000 -0.1228276981
C   C39       1.0  0.09620  0.33960  0.10231  1.0000 -0.1228276981
C   C40       1.0  0.90380  0.16040  0.60231  1.0000 -0.1228276981
C   C41       1.0  0.49680  0.65754  0.39624  1.0000 0.0599410614
C   C42       1.0  0.50320  0.84246  0.89624  1.0000 0.0599410614
C   C43       1.0  0.99680  0.34246  0.10376  1.0000 0.0599410614
C   C44       1.0  0.00320  0.15754  0.60376  1.0000 0.0599410614
C   C45       1.0  0.44230  0.63244  0.42034  1.0000 0.3727012489
C   C46       1.0  0.55770  0.86756  0.92034  1.0000 0.3727012489
C   C47       1.0  0.94230  0.36756  0.07966  1.0000 0.3727012489
C   C48       1.0  0.05770  0.13244  0.57966  1.0000 0.3727012489
C   C49       1.0  0.63400  0.57100  0.52232  1.0000 0.0819717943
C   C50       1.0  0.36600  0.92900  0.02232  1.0000 0.0819717943
C   C51       1.0  0.13400  0.42900  0.97768  1.0000 0.0819717943
C   C52       1.0  0.86600  0.07100  0.47768  1.0000 0.0819717943
C   C53       1.0  0.59060  0.58430  0.49547  1.0000 -0.1465380774
C   C54       1.0  0.40940  0.91570  0.99547  1.0000 -0.1465380774
C   C55       1.0  0.09060  0.41570  0.00453  1.0000 -0.1465380774
C   C56       1.0  0.90940  0.08430  0.50453  1.0000 -0.1465380774
C   C57       1.0  0.48980  0.54244  0.54111  1.0000 0.0688181011
C   C58       1.0  0.51020  0.95756  0.04111  1.0000 0.0688181011
C   C59       1.0  0.98980  0.45756  0.95889  1.0000 0.0688181011
C   C60       1.0  0.01020  0.04244  0.45889  1.0000 0.0688181011
C   C61       1.0  0.44130  0.55489  0.51515  1.0000 -0.1415456694
C   C62       1.0  0.55870  0.94511  0.01515  1.0000 -0.1465380774
C   C63       1.0  0.94130  0.44511  0.98485  1.0000 -0.1415456694
C   C64       1.0  0.05870  0.05489  0.48485  1.0000 -0.1465380774
C   C65       1.0  0.49270  0.57704  0.49192  1.0000 0.0541695519
C   C66       1.0  0.50730  0.92296  0.99192  1.0000 0.0541695519
C   C67       1.0  0.99270  0.42296  0.00808  1.0000 0.0541695519
C   C68       1.0  0.00730  0.07704  0.50808  1.0000 0.0541695519
C   C69       1.0  0.44140  0.59312  0.46435  1.0000 0.3727012489
C   C70       1.0  0.55860  0.90688  0.96435  1.0000 0.3727012489
C   C71       1.0  0.94140  0.40688  0.03565  1.0000 0.3727012489
C   C72       1.0  0.05860  0.09312  0.53565  1.0000 0.3727012489
C   C73       1.0  0.93660  0.11239  0.36628  1.0000 0.0921568665
C   C74       1.0  0.06340  0.38761  0.86628  1.0000 0.0921568665
C   C75       1.0  0.43660  0.88761  0.13372  1.0000 0.0921568665
C   C76       1.0  0.56340  0.61239  0.63372  1.0000 0.0921568665
C   C77       1.0  0.95470  0.15513  0.35162  1.0000 -0.1615355461
C   C78       1.0  0.04530  0.34487  0.85162  1.0000 -0.1615355461
C   C79       1.0  0.45470  0.84487  0.14838  1.0000 -0.1615355461
C   C80       1.0  0.54530  0.65513  0.64838  1.0000 -0.1615355461
C   C81       1.0  0.89590  0.15249  0.40982  1.0000 0.0819717943
C   C82       1.0  0.10410  0.34751  0.90982  1.0000 0.0819717943
C   C83       1.0  0.39590  0.84751  0.09018  1.0000 0.0819717943
C   C84       1.0  0.60410  0.65249  0.59018  1.0000 0.0819717943
C   C85       1.0  0.91400  0.19698  0.39689  1.0000 -0.1615355461
C   C86       1.0  0.08600  0.30302  0.89689  1.0000 -0.1615355461
C   C87       1.0  0.41400  0.80302  0.10311  1.0000 -0.1615355461
C   C88       1.0  0.58600  0.69698  0.60311  1.0000 -0.1615355461
C   C89       1.0  0.94270  0.19809  0.36691  1.0000 0.0599410614
C   C90       1.0  0.05730  0.30191  0.86691  1.0000 0.0599410614
C   C91       1.0  0.44270  0.80191  0.13309  1.0000 0.0599410614
C   C92       1.0  0.55730  0.69809  0.63309  1.0000 0.0599410614
C   C93       1.0  0.95770  0.24456  0.35108  1.0000 0.3768132119
C   C94       1.0  0.04230  0.25544  0.85108  1.0000 0.3768132119
C   C95       1.0  0.45770  0.75544  0.14892  1.0000 0.3768132119
C   C96       1.0  0.54230  0.74456  0.64892  1.0000 0.3768132119
C   C97       1.0  0.90610  0.41766  0.40930  1.0000 0.0921568665
C   C98       1.0  0.09390  0.08234  0.90930  1.0000 0.0921568665
C   C99       1.0  0.40610  0.58234  0.09070  1.0000 0.0921568665
C   C100      1.0  0.59390  0.91766  0.59070  1.0000 0.0921568665
C   C101      1.0  0.92140  0.37313  0.39554  1.0000 -0.1415456694
C   C102      1.0  0.07860  0.12687  0.89554  1.0000 -0.1415456694
C   C103      1.0  0.42140  0.62687  0.10446  1.0000 -0.1415456694
C   C104      1.0  0.57860  0.87313  0.60446  1.0000 -0.1415456694
C   C105      1.0  0.94280  0.45825  0.36581  1.0000 0.0921568665
C   C106      1.0  0.05720  0.04175  0.86581  1.0000 0.0921568665
C   C107      1.0  0.44280  0.54175  0.13419  1.0000 0.0921568665
C   C108      1.0  0.55720  0.95825  0.63419  1.0000 0.0921568665
C   C109      1.0  0.95940  0.41572  0.35040  1.0000 -0.1415456694
C   C110      1.0  0.04060  0.08428  0.85040  1.0000 -0.1415456694
C   C111      1.0  0.45940  0.58428  0.14960  1.0000 -0.1415456694
C   C112      1.0  0.54060  0.91572  0.64960  1.0000 -0.1415456694
C   C113      1.0  0.94750  0.37222  0.36543  1.0000 0.0599410614
C   C114      1.0  0.05250  0.12778  0.86543  1.0000 0.0599410614
C   C115      1.0  0.44750  0.62778  0.13457  1.0000 0.0599410614
C   C116      1.0  0.55250  0.87222  0.63457  1.0000 0.0599410614
C   C117      1.0  0.96010  0.32571  0.34994  1.0000 0.3768132119
C   C118      1.0  0.03990  0.17429  0.84994  1.0000 0.3768132119
C   C119      1.0  0.46010  0.67429  0.15006  1.0000 0.3768132119
C   C120      1.0  0.53990  0.82571  0.65006  1.0000 0.3768132119
C   C121      1.0  0.10550  0.31320  0.23328  1.0000 0.0819717943
C   C122      1.0  0.89450  0.18680  0.73328  1.0000 0.0819717943
C   C123      1.0  0.60550  0.68680  0.26672  1.0000 0.0819717943
C   C124      1.0  0.39450  0.81320  0.76672  1.0000 0.0819717943
C   C125      1.0  0.06890  0.31948  0.26161  1.0000 -0.1615355461
C   C126      1.0  0.93110  0.18052  0.76161  1.0000 -0.1615355461
C   C127      1.0  0.56890  0.68052  0.23839  1.0000 -0.1615355461
C   C128      1.0  0.43110  0.81948  0.73839  1.0000 -0.1615355461
C   C129      1.0  0.06680  0.23269  0.23335  1.0000 0.1025099083
C   C130      1.0  0.93320  0.26731  0.73335  1.0000 0.1025099083
C   C131      1.0  0.56680  0.76731  0.26665  1.0000 0.1025099083
C   C132      1.0  0.43320  0.73269  0.76665  1.0000 0.1025099083
C   C133      1.0  0.02960  0.23582  0.26242  1.0000 -0.1415456694
C   C134      1.0  0.97040  0.26418  0.76242  1.0000 -0.1415456694
C   C135      1.0  0.52960  0.76418  0.23758  1.0000 -0.1415456694
C   C136      1.0  0.47040  0.73582  0.73758  1.0000 -0.1415456694
C   C137      1.0  0.03160  0.28007  0.27676  1.0000 0.0599410614
C   C138      1.0  0.96840  0.21993  0.77676  1.0000 0.0599410614
C   C139      1.0  0.53160  0.71993  0.22324  1.0000 0.0599410614
C   C140      1.0  0.46840  0.78007  0.72324  1.0000 0.0599410614
C   C141      1.0  0.99810  0.28329  0.30835  1.0000 0.3768132119
C   C142      1.0  0.00190  0.21671  0.80835  1.0000 0.3768132119
C   C143      1.0  0.49810  0.71671  0.19165  1.0000 0.3768132119
C   C144      1.0  0.50190  0.78329  0.69165  1.0000 0.3768132119
C   C145      1.0  0.94270  0.45051  0.54983  1.0000 0.0819717943
C   C146      1.0  0.05730  0.04949  0.04983  1.0000 0.0819717943
C   C147      1.0  0.44270  0.54949  0.95017  1.0000 0.0819717943
C   C148      1.0  0.55730  0.95051  0.45017  1.0000 0.0819717943
C   C149      1.0  0.84970  0.43563  0.54406  1.0000 -0.1415456694
C   C150      1.0  0.15030  0.06437  0.04406  1.0000 -0.1415456694
C   C151      1.0  0.34970  0.56437  0.95594  1.0000 -0.1415456694
C   C152      1.0  0.65030  0.93563  0.45594  1.0000 -0.1415456694
C   C153      1.0  0.93380  0.42496  0.59874  1.0000 0.0819717943
C   C154      1.0  0.06620  0.07504  0.09874  1.0000 0.0819717943
C   C155      1.0  0.43380  0.57504  0.90126  1.0000 0.0819717943
C   C156      1.0  0.56620  0.92496  0.40126  1.0000 0.0819717943
C   C157      1.0  0.84040  0.40937  0.59508  1.0000 -0.1254398437
C   C158      1.0  0.15960  0.09063  0.09508  1.0000 -0.1254398437
C   C159      1.0  0.34040  0.59063  0.90492  1.0000 -0.1254398437
C   C160      1.0  0.65960  0.90937  0.40492  1.0000 -0.1254398437
C   C161      1.0  0.79700  0.41488  0.56741  1.0000 0.0599410614
C   C162      1.0  0.20300  0.08512  0.06741  1.0000 0.0599410614
C   C163      1.0  0.29700  0.58512  0.93259  1.0000 0.0599410614
C   C164      1.0  0.70300  0.91488  0.43259  1.0000 0.0599410614
C   C165      1.0  0.69430  0.40110  0.56270  1.0000 0.3727012489
C   C166      1.0  0.30570  0.09890  0.06270  1.0000 0.3727012489
C   C167      1.0  0.19430  0.59890  0.93730  1.0000 0.3727012489
C   C168      1.0  0.80570  0.90110  0.43730  1.0000 0.3727012489
C   C169      1.0  0.49520  0.30050  0.65009  1.0000 0.0819717943
C   C170      1.0  0.50480  0.19950  0.15009  1.0000 0.0819717943
C   C171      1.0  0.99520  0.69950  0.84991  1.0000 0.0819717943
C   C172      1.0  0.00480  0.80050  0.34991  1.0000 0.0819717943
C   C173      1.0  0.54940  0.32280  0.62825  1.0000 -0.1228276981
C   C174      1.0  0.45060  0.17720  0.12825  1.0000 -0.1228276981
C   C175      1.0  0.04940  0.67720  0.87175  1.0000 -0.1228276981
C   C176      1.0  0.95060  0.82280  0.37175  1.0000 -0.1228276981
C   C177      1.0  0.35510  0.31680  0.62542  1.0000 0.0921568665
C   C178      1.0  0.64490  0.18320  0.12542  1.0000 0.0921568665
C   C179      1.0  0.85510  0.68320  0.87458  1.0000 0.0921568665
C   C180      1.0  0.14490  0.81680  0.37458  1.0000 0.0921568665
C   C181      1.0  0.40380  0.33960  0.60231  1.0000 -0.1228276981
C   C182      1.0  0.59620  0.16040  0.10231  1.0000 -0.1228276981
C   C183      1.0  0.90380  0.66040  0.89769  1.0000 -0.1228276981
C   C184      1.0  0.09620  0.83960  0.39769  1.0000 -0.1228276981
C   C185      1.0  0.50320  0.34246  0.60376  1.0000 0.0599410614
C   C186      1.0  0.49680  0.15754  0.10376  1.0000 0.0599410614
C   C187      1.0  0.00320  0.65754  0.89624  1.0000 0.0599410614
C   C188      1.0  0.99680  0.84246  0.39624  1.0000 0.0599410614
C   C189      1.0  0.55770  0.36756  0.57966  1.0000 0.3727012489
C   C190      1.0  0.44230  0.13244  0.07966  1.0000 0.3727012489
C   C191      1.0  0.05770  0.63244  0.92034  1.0000 0.3727012489
C   C192      1.0  0.94230  0.86756  0.42034  1.0000 0.3727012489
C   C193      1.0  0.36600  0.42900  0.47768  1.0000 0.0819717943
C   C194      1.0  0.63400  0.07100  0.97768  1.0000 0.0819717943
C   C195      1.0  0.86600  0.57100  0.02232  1.0000 0.0819717943
C   C196      1.0  0.13400  0.92900  0.52232  1.0000 0.0819717943
C   C197      1.0  0.40940  0.41570  0.50453  1.0000 -0.1465380774
C   C198      1.0  0.59060  0.08430  0.00453  1.0000 -0.1465380774
C   C199      1.0  0.90940  0.58430  0.99547  1.0000 -0.1465380774
C   C200      1.0  0.09060  0.91570  0.49547  1.0000 -0.1465380774
C   C201      1.0  0.51020  0.45756  0.45889  1.0000 0.0688181011
C   C202      1.0  0.48980  0.04244  0.95889  1.0000 0.0688181011
C   C203      1.0  0.01020  0.54244  0.04111  1.0000 0.0688181011
C   C204      1.0  0.98980  0.95756  0.54111  1.0000 0.0688181011
C   C205      1.0  0.55870  0.44511  0.48485  1.0000 -0.1415456694
C   C206      1.0  0.44130  0.05489  0.98485  1.0000 -0.1415456694
C   C207      1.0  0.05870  0.55489  0.01515  1.0000 -0.1465380774
C   C208      1.0  0.94130  0.94511  0.51515  1.0000 -0.1465380774
C   C209      1.0  0.50730  0.42296  0.50808  1.0000 0.0541695519
C   C210      1.0  0.49270  0.07704  0.00808  1.0000 0.0541695519
C   C211      1.0  0.00730  0.57704  0.99192  1.0000 0.0541695519
C   C212      1.0  0.99270  0.92296  0.49192  1.0000 0.0541695519
C   C213      1.0  0.55860  0.40688  0.53565  1.0000 0.3727012489
C   C214      1.0  0.44140  0.09312  0.03565  1.0000 0.3727012489
C   C215      1.0  0.05860  0.59312  0.96435  1.0000 0.3727012489
C   C216      1.0  0.94140  0.90688  0.46435  1.0000 0.3727012489
C   C217      1.0  0.06340  0.88761  0.63372  1.0000 0.0921568665
C   C218      1.0  0.93660  0.61239  0.13372  1.0000 0.0921568665
C   C219      1.0  0.56340  0.11239  0.86628  1.0000 0.0921568665
C   C220      1.0  0.43660  0.38761  0.36628  1.0000 0.0921568665
C   C221      1.0  0.04530  0.84487  0.64838  1.0000 -0.1615355461
C   C222      1.0  0.95470  0.65513  0.14838  1.0000 -0.1615355461
C   C223      1.0  0.54530  0.15513  0.85162  1.0000 -0.1615355461
C   C224      1.0  0.45470  0.34487  0.35162  1.0000 -0.1615355461
C   C225      1.0  0.10410  0.84751  0.59018  1.0000 0.0819717943
C   C226      1.0  0.89590  0.65249  0.09018  1.0000 0.0819717943
C   C227      1.0  0.60410  0.15249  0.90982  1.0000 0.0819717943
C   C228      1.0  0.39590  0.34751  0.40982  1.0000 0.0819717943
C   C229      1.0  0.08600  0.80302  0.60311  1.0000 -0.1615355461
C   C230      1.0  0.91400  0.69698  0.10311  1.0000 -0.1615355461
C   C231      1.0  0.58600  0.19698  0.89689  1.0000 -0.1615355461
C   C232      1.0  0.41400  0.30302  0.39689  1.0000 -0.1615355461
C   C233      1.0  0.05730  0.80191  0.63309  1.0000 0.0599410614
C   C234      1.0  0.94270  0.69809  0.13309  1.0000 0.0599410614
C   C235      1.0  0.55730  0.19809  0.86691  1.0000 0.0599410614
C   C236      1.0  0.44270  0.30191  0.36691  1.0000 0.0599410614
C   C237      1.0  0.04230  0.75544  0.64892  1.0000 0.3768132119
C   C238      1.0  0.95770  0.74456  0.14892  1.0000 0.3768132119
C   C239      1.0  0.54230  0.24456  0.85108  1.0000 0.3768132119
C   C240      1.0  0.45770  0.25544  0.35108  1.0000 0.3768132119
C   C241      1.0  0.09390  0.58234  0.59070  1.0000 0.0921568665
C   C242      1.0  0.90610  0.91766  0.09070  1.0000 0.0921568665
C   C243      1.0  0.59390  0.41766  0.90930  1.0000 0.0921568665
C   C244      1.0  0.40610  0.08234  0.40930  1.0000 0.0921568665
C   C245      1.0  0.07860  0.62687  0.60446  1.0000 -0.1415456694
C   C246      1.0  0.92140  0.87313  0.10446  1.0000 -0.1415456694
C   C247      1.0  0.57860  0.37313  0.89554  1.0000 -0.1415456694
C   C248      1.0  0.42140  0.12687  0.39554  1.0000 -0.1415456694
C   C249      1.0  0.05720  0.54175  0.63419  1.0000 0.0921568665
C   C250      1.0  0.94280  0.95825  0.13419  1.0000 0.0921568665
C   C251      1.0  0.55720  0.45825  0.86581  1.0000 0.0921568665
C   C252      1.0  0.44280  0.04175  0.36581  1.0000 0.0921568665
C   C253      1.0  0.04060  0.58428  0.64960  1.0000 -0.1415456694
C   C254      1.0  0.95940  0.91572  0.14960  1.0000 -0.1415456694
C   C255      1.0  0.54060  0.41572  0.85040  1.0000 -0.1415456694
C   C256      1.0  0.45940  0.08428  0.35040  1.0000 -0.1415456694
C   C257      1.0  0.05250  0.62778  0.63457  1.0000 0.0599410614
C   C258      1.0  0.94750  0.87222  0.13457  1.0000 0.0599410614
C   C259      1.0  0.55250  0.37222  0.86543  1.0000 0.0599410614
C   C260      1.0  0.44750  0.12778  0.36543  1.0000 0.0599410614
C   C261      1.0  0.03990  0.67429  0.65006  1.0000 0.3768132119
C   C262      1.0  0.96010  0.82571  0.15006  1.0000 0.3768132119
C   C263      1.0  0.53990  0.32571  0.84994  1.0000 0.3768132119
C   C264      1.0  0.46010  0.17429  0.34994  1.0000 0.3768132119
C   C265      1.0  0.89450  0.68680  0.76672  1.0000 0.0819717943
C   C266      1.0  0.10550  0.81320  0.26672  1.0000 0.0819717943
C   C267      1.0  0.39450  0.31320  0.73328  1.0000 0.0819717943
C   C268      1.0  0.60550  0.18680  0.23328  1.0000 0.0819717943
C   C269      1.0  0.93110  0.68052  0.73839  1.0000 -0.1615355461
C   C270      1.0  0.06890  0.81948  0.23839  1.0000 -0.1615355461
C   C271      1.0  0.43110  0.31948  0.76161  1.0000 -0.1615355461
C   C272      1.0  0.56890  0.18052  0.26161  1.0000 -0.1615355461
C   C273      1.0  0.93320  0.76731  0.76665  1.0000 0.1025099083
C   C274      1.0  0.06680  0.73269  0.26665  1.0000 0.1025099083
C   C275      1.0  0.43320  0.23269  0.73335  1.0000 0.1025099083
C   C276      1.0  0.56680  0.26731  0.23335  1.0000 0.1025099083
C   C277      1.0  0.97040  0.76418  0.73758  1.0000 -0.1415456694
C   C278      1.0  0.02960  0.73582  0.23758  1.0000 -0.1415456694
C   C279      1.0  0.47040  0.23582  0.76242  1.0000 -0.1415456694
C   C280      1.0  0.52960  0.26418  0.26242  1.0000 -0.1415456694
C   C281      1.0  0.96840  0.71993  0.72324  1.0000 0.0599410614
C   C282      1.0  0.03160  0.78007  0.22324  1.0000 0.0599410614
C   C283      1.0  0.46840  0.28007  0.77676  1.0000 0.0599410614
C   C284      1.0  0.53160  0.21993  0.27676  1.0000 0.0599410614
C   C285      1.0  0.00190  0.71671  0.69165  1.0000 0.3768132119
C   C286      1.0  0.99810  0.78329  0.19165  1.0000 0.3768132119
C   C287      1.0  0.50190  0.28329  0.80835  1.0000 0.3768132119
C   C288      1.0  0.49810  0.21671  0.30835  1.0000 0.3768132119
I   I1        1.0  0.80430  0.50673  0.46594  1.0000 -0.4723662124
I   I2        1.0  0.19570  0.99327  0.96594  1.0000 -0.4723662124
I   I3        1.0  0.30430  0.49327  0.03406  1.0000 -0.4723662124
I   I4        1.0  0.69570  0.00673  0.53406  1.0000 -0.4723662124
I   I5        1.0  0.79744  0.57321  0.37484  1.0000 -0.4334877809
I   I6        1.0  0.20256  0.92679  0.87484  1.0000 -0.4334877809
I   I7        1.0  0.29744  0.42679  0.12516  1.0000 -0.4334877809
I   I8        1.0  0.70256  0.07321  0.62516  1.0000 -0.4334877809
I   I9        1.0  0.55568  0.48084  0.61702  1.0000 -0.4334877809
I   I10       1.0  0.44432  0.01916  0.11702  1.0000 -0.4334877809
I   I11       1.0  0.05568  0.51916  0.88298  1.0000 -0.4334877809
I   I12       1.0  0.94432  0.98084  0.38298  1.0000 -0.4334877809
I   I13       1.0  0.82418  0.55651  0.58486  1.0000 -0.4524116299
I   I14       1.0  0.17582  0.94349  0.08486  1.0000 -0.4524116299
I   I15       1.0  0.32418  0.44349  0.91514  1.0000 -0.4524116299
I   I16       1.0  0.67582  0.05651  0.41514  1.0000 -0.4524116299
I   I17       1.0  0.17832  0.17167  0.16567  1.0000 -0.4524116299
I   I18       1.0  0.82168  0.32833  0.66567  1.0000 -0.4524116299
I   I19       1.0  0.67832  0.82833  0.33433  1.0000 -0.4524116299
I   I20       1.0  0.32168  0.67167  0.83433  1.0000 -0.4524116299
I   I21       1.0  0.34292  0.30272  0.18748  1.0000 -0.4524116299
I   I22       1.0  0.65708  0.19728  0.68748  1.0000 -0.4553425537
I   I23       1.0  0.84292  0.69728  0.31252  1.0000 -0.4553425537
I   I24       1.0  0.15708  0.80272  0.81252  1.0000 -0.4553425537
I   I25       1.0  0.19570  0.49327  0.53406  1.0000 -0.4723662124
I   I26       1.0  0.80430  0.00673  0.03406  1.0000 -0.4723662124
I   I27       1.0  0.69570  0.50673  0.96594  1.0000 -0.4723662124
I   I28       1.0  0.30430  0.99327  0.46594  1.0000 -0.4723662124
I   I29       1.0  0.20256  0.42679  0.62516  1.0000 -0.4334877809
I   I30       1.0  0.79744  0.07321  0.12516  1.0000 -0.4334877809
I   I31       1.0  0.70256  0.57321  0.87484  1.0000 -0.4334877809
I   I32       1.0  0.29744  0.92679  0.37484  1.0000 -0.4334877809
I   I33       1.0  0.44432  0.51916  0.38298  1.0000 -0.4334877809
I   I34       1.0  0.55568  0.98084  0.88298  1.0000 -0.4334877809
I   I35       1.0  0.94432  0.48084  0.11702  1.0000 -0.4334877809
I   I36       1.0  0.05568  0.01916  0.61702  1.0000 -0.4334877809
I   I37       1.0  0.17582  0.44349  0.41514  1.0000 -0.4524116299
I   I38       1.0  0.82418  0.05651  0.91514  1.0000 -0.4524116299
I   I39       1.0  0.67582  0.55651  0.08486  1.0000 -0.4524116299
I   I40       1.0  0.32418  0.94349  0.58486  1.0000 -0.4524116299
I   I41       1.0  0.82168  0.82833  0.83433  1.0000 -0.4524116299
I   I42       1.0  0.17832  0.67167  0.33433  1.0000 -0.4524116299
I   I43       1.0  0.32168  0.17167  0.66567  1.0000 -0.4524116299
I   I44       1.0  0.67832  0.32833  0.16567  1.0000 -0.4524116299
I   I45       1.0  0.65708  0.69728  0.81252  1.0000 -0.4553425537
I   I46       1.0  0.34292  0.80272  0.31252  1.0000 -0.4524116299
I   I47       1.0  0.15708  0.30272  0.68748  1.0000 -0.4524116299
I   I48       1.0  0.84292  0.19728  0.18748  1.0000 -0.4553425537
N   N1        1.0  0.01490  0.55450  0.42343  1.0000 -0.1802599077
N   N2        1.0  0.98510  0.94550  0.92343  1.0000 -0.1802599077
N   N3        1.0  0.51490  0.44550  0.07657  1.0000 -0.1802599077
N   N4        1.0  0.48510  0.05450  0.57657  1.0000 -0.1802599077
N   N5        1.0  0.60160  0.70279  0.35110  1.0000 -0.1802599077
N   N6        1.0  0.39840  0.79721  0.85110  1.0000 -0.1802599077
N   N7        1.0  0.10160  0.29721  0.14890  1.0000 -0.1802599077
N   N8        1.0  0.89840  0.20279  0.64890  1.0000 -0.1802599077
N   N9        1.0  0.58470  0.55151  0.54512  1.0000 -0.1908463515
N   N10       1.0  0.41530  0.94849  0.04512  1.0000 -0.1908463515
N   N11       1.0  0.08470  0.44849  0.95488  1.0000 -0.1908463515
N   N12       1.0  0.91530  0.05151  0.45488  1.0000 -0.1908463515
N   N13       1.0  0.34820  0.62529  0.41593  1.0000 -0.369343041
N   N14       1.0  0.65180  0.87471  0.91593  1.0000 -0.369343041
N   N15       1.0  0.84820  0.37471  0.08407  1.0000 -0.369343041
N   N16       1.0  0.15180  0.12529  0.58407  1.0000 -0.369343041
N   N17       1.0  0.49270  0.61780  0.44426  1.0000 -0.3924496384
N   N18       1.0  0.50730  0.88220  0.94426  1.0000 -0.3924496384
N   N19       1.0  0.99270  0.38220  0.05574  1.0000 -0.3924496384
N   N20       1.0  0.00730  0.11780  0.55574  1.0000 -0.3924496384
N   N21       1.0  0.34840  0.58172  0.46191  1.0000 -0.3801156269
N   N22       1.0  0.65160  0.91828  0.96191  1.0000 -0.3801156269
N   N23       1.0  0.84840  0.41828  0.03809  1.0000 -0.3801156269
N   N24       1.0  0.15160  0.08172  0.53809  1.0000 -0.3801156269
N   N25       1.0  0.90600  0.11071  0.39498  1.0000 -0.1908463515
N   N26       1.0  0.09400  0.38929  0.89498  1.0000 -0.1908463515
N   N27       1.0  0.40600  0.88929  0.10502  1.0000 -0.1908463515
N   N28       1.0  0.59400  0.61071  0.60502  1.0000 -0.1908463515
N   N29       1.0  0.91590  0.45943  0.39481  1.0000 -0.1802599077
N   N30       1.0  0.08410  0.04057  0.89481  1.0000 -0.1802599077
N   N31       1.0  0.41590  0.54057  0.10519  1.0000 -0.1802599077
N   N32       1.0  0.58410  0.95943  0.60519  1.0000 -0.1802599077
N   N33       1.0  0.10560  0.27037  0.21928  1.0000 -0.1802599077
N   N34       1.0  0.89440  0.22963  0.71928  1.0000 -0.1802599077
N   N35       1.0  0.60560  0.72963  0.28072  1.0000 -0.1802599077
N   N36       1.0  0.39440  0.77037  0.78072  1.0000 -0.1802599077
N   N37       1.0  0.94500  0.28566  0.36598  1.0000 -0.4177968872
N   N38       1.0  0.05500  0.21434  0.86598  1.0000 -0.4177968872
N   N39       1.0  0.44500  0.71434  0.13402  1.0000 -0.4177968872
N   N40       1.0  0.55500  0.78566  0.63402  1.0000 -0.4109178053
N   N41       1.0  0.98700  0.32709  0.32077  1.0000 -0.4177968872
N   N42       1.0  0.01300  0.17291  0.82077  1.0000 -0.4177968872
N   N43       1.0  0.48700  0.67291  0.17923  1.0000 -0.4177968872
N   N44       1.0  0.51300  0.82709  0.67923  1.0000 -0.4177968872
N   N45       1.0  0.98370  0.24137  0.32223  1.0000 -0.4109178053
N   N46       1.0  0.01630  0.25863  0.82223  1.0000 -0.4109178053
N   N47       1.0  0.48370  0.75863  0.17777  1.0000 -0.4109178053
N   N48       1.0  0.51630  0.74137  0.67777  1.0000 -0.4109178053
N   N49       1.0  0.98510  0.44550  0.57657  1.0000 -0.1802599077
N   N50       1.0  0.01490  0.05450  0.07657  1.0000 -0.1802599077
N   N51       1.0  0.48510  0.55450  0.92343  1.0000 -0.1802599077
N   N52       1.0  0.51490  0.94550  0.42343  1.0000 -0.1802599077
N   N53       1.0  0.39840  0.29721  0.64890  1.0000 -0.1802599077
N   N54       1.0  0.60160  0.20279  0.14890  1.0000 -0.1802599077
N   N55       1.0  0.89840  0.70279  0.85110  1.0000 -0.1802599077
N   N56       1.0  0.10160  0.79721  0.35110  1.0000 -0.1802599077
N   N57       1.0  0.41530  0.44849  0.45488  1.0000 -0.1908463515
N   N58       1.0  0.58470  0.05151  0.95488  1.0000 -0.1908463515
N   N59       1.0  0.91530  0.55151  0.04512  1.0000 -0.1908463515
N   N60       1.0  0.08470  0.94849  0.54512  1.0000 -0.1908463515
N   N61       1.0  0.65180  0.37471  0.58407  1.0000 -0.369343041
N   N62       1.0  0.34820  0.12529  0.08407  1.0000 -0.369343041
N   N63       1.0  0.15180  0.62529  0.91593  1.0000 -0.369343041
N   N64       1.0  0.84820  0.87471  0.41593  1.0000 -0.369343041
N   N65       1.0  0.50730  0.38220  0.55574  1.0000 -0.3924496384
N   N66       1.0  0.49270  0.11780  0.05574  1.0000 -0.3924496384
N   N67       1.0  0.00730  0.61780  0.94426  1.0000 -0.3924496384
N   N68       1.0  0.99270  0.88220  0.44426  1.0000 -0.3924496384
N   N69       1.0  0.65160  0.41828  0.53809  1.0000 -0.3801156269
N   N70       1.0  0.34840  0.08172  0.03809  1.0000 -0.3801156269
N   N71       1.0  0.15160  0.58172  0.96191  1.0000 -0.3801156269
N   N72       1.0  0.84840  0.91828  0.46191  1.0000 -0.3801156269
N   N73       1.0  0.09400  0.88929  0.60502  1.0000 -0.1908463515
N   N74       1.0  0.90600  0.61071  0.10502  1.0000 -0.1908463515
N   N75       1.0  0.59400  0.11071  0.89498  1.0000 -0.1908463515
N   N76       1.0  0.40600  0.38929  0.39498  1.0000 -0.1908463515
N   N77       1.0  0.08410  0.54057  0.60519  1.0000 -0.1802599077
N   N78       1.0  0.91590  0.95943  0.10519  1.0000 -0.1802599077
N   N79       1.0  0.58410  0.45943  0.89481  1.0000 -0.1802599077
N   N80       1.0  0.41590  0.04057  0.39481  1.0000 -0.1802599077
N   N81       1.0  0.89440  0.72963  0.78072  1.0000 -0.1802599077
N   N82       1.0  0.10560  0.77037  0.28072  1.0000 -0.1802599077
N   N83       1.0  0.39440  0.27037  0.71928  1.0000 -0.1802599077
N   N84       1.0  0.60560  0.22963  0.21928  1.0000 -0.1802599077
N   N85       1.0  0.05500  0.71434  0.63402  1.0000 -0.4177968872
N   N86       1.0  0.94500  0.78566  0.13402  1.0000 -0.4109178053
N   N87       1.0  0.55500  0.28566  0.86598  1.0000 -0.4177968872
N   N88       1.0  0.44500  0.21434  0.36598  1.0000 -0.4177968872
N   N89       1.0  0.01300  0.67291  0.67923  1.0000 -0.4177968872
N   N90       1.0  0.98700  0.82709  0.17923  1.0000 -0.4177968872
N   N91       1.0  0.51300  0.32709  0.82077  1.0000 -0.4177968872
N   N92       1.0  0.48700  0.17291  0.32077  1.0000 -0.4177968872
N   N93       1.0  0.01630  0.75863  0.67777  1.0000 -0.4109178053
N   N94       1.0  0.98370  0.74137  0.17777  1.0000 -0.4109178053
N   N95       1.0  0.51630  0.24137  0.82223  1.0000 -0.4109178053
N   N96       1.0  0.48370  0.25863  0.32223  1.0000 -0.4109178053
