# DDEC6 charges by PACMAN v1.1 (https://github.com/mtap-research/PACMAN-charge/)
data_2010[La][nan]3[ASR]2
_chemical_formula_sum              "La8 H72 C168 S12 O72"
_cell_length_a       19.5011
_cell_length_b       16.7853
_cell_length_c       24.5349
_cell_angle_alpha    90
_cell_angle_beta     114.183
_cell_angle_gamma    90

_symmetry_space_group_name_H-M    "P 1"
_symmetry_Int_Tables_number       1

loop_
  _symmetry_equiv_pos_as_xyz
  'x, y, z'

loop_
  _atom_site_type_symbol
  _atom_site_label
  _atom_site_symmetry_multiplicity
  _atom_site_fract_x
  _atom_site_fract_y
  _atom_site_fract_z
  _atom_site_occupancy
  _atom_site_charge
La  La1       1.0  0.08171  0.48420  0.96851  1.0000 1.9121869588
La  La2       1.0  0.91829  0.98420  0.53149  1.0000 1.9121869588
La  La3       1.0  0.91829  0.51580  0.03149  1.0000 1.9121869588
La  La4       1.0  0.08171  0.01580  0.46851  1.0000 1.9121869588
La  La5       1.0  0.40157  0.47805  0.01912  1.0000 1.930448759
La  La6       1.0  0.59843  0.97805  0.48088  1.0000 1.930448759
La  La7       1.0  0.59843  0.52195  0.98088  1.0000 1.9353888715
La  La8       1.0  0.40157  0.02195  0.51912  1.0000 1.930448759
H   H1        1.0  0.30270  0.51330  0.84000  1.0000 0.1201903704
H   H2        1.0  0.69730  0.01330  0.66000  1.0000 0.1201903704
H   H3        1.0  0.69730  0.48670  0.16000  1.0000 0.1201903704
H   H4        1.0  0.30270  0.98670  0.34000  1.0000 0.1201903704
H   H5        1.0  0.24290  0.69230  0.32280  1.0000 0.1293519256
H   H6        1.0  0.75710  0.19230  0.17720  1.0000 0.1293519256
H   H7        1.0  0.75710  0.30770  0.67720  1.0000 0.1293519256
H   H8        1.0  0.24290  0.80770  0.82280  1.0000 0.1293519256
H   H9        1.0  0.20130  0.60390  0.22750  1.0000 0.1293519256
H   H10       1.0  0.79870  0.10390  0.27250  1.0000 0.1293519256
H   H11       1.0  0.79870  0.39610  0.77250  1.0000 0.1293519256
H   H12       1.0  0.20130  0.89610  0.72750  1.0000 0.1293519256
H   H13       1.0  0.60960  0.76080  0.76350  1.0000 0.1201903704
H   H14       1.0  0.39040  0.26080  0.73650  1.0000 0.1201903704
H   H15       1.0  0.39040  0.23920  0.23650  1.0000 0.1201903704
H   H16       1.0  0.60960  0.73920  0.26350  1.0000 0.1201903704
H   H17       1.0  0.28370  0.57850  0.75160  1.0000 0.1293519256
H   H18       1.0  0.71630  0.07850  0.74840  1.0000 0.1293519256
H   H19       1.0  0.71630  0.42150  0.24840  1.0000 0.1293519256
H   H20       1.0  0.28370  0.92150  0.25160  1.0000 0.1293519256
H   H21       1.0  0.24670  0.66840  0.65730  1.0000 0.1293519256
H   H22       1.0  0.75330  0.16840  0.84270  1.0000 0.1293519256
H   H23       1.0  0.75330  0.33160  0.34270  1.0000 0.1293519256
H   H24       1.0  0.24670  0.83160  0.15730  1.0000 0.1293519256
H   H25       1.0  0.18120  0.53550  0.14000  1.0000 0.1201903704
H   H26       1.0  0.81880  0.03550  0.36000  1.0000 0.1201903704
H   H27       1.0  0.81880  0.46450  0.86000  1.0000 0.1201903704
H   H28       1.0  0.18120  0.96450  0.64000  1.0000 0.1201903704
H   H29       1.0  0.29630  0.78280  0.40120  1.0000 0.1293519256
H   H30       1.0  0.70370  0.28280  0.09880  1.0000 0.1201903704
H   H31       1.0  0.70370  0.21720  0.59880  1.0000 0.1293519256
H   H32       1.0  0.29630  0.71720  0.90120  1.0000 0.1293519256
H   H33       1.0  0.92520  0.67180  0.79450  1.0000 0.1494606073
H   H34       1.0  0.07480  0.17180  0.70550  1.0000 0.1494606073
H   H35       1.0  0.07480  0.32820  0.20550  1.0000 0.1494606073
H   H36       1.0  0.92520  0.82820  0.29450  1.0000 0.1494606073
H   H37       1.0  0.71470  0.68460  0.84000  1.0000 0.1201903704
H   H38       1.0  0.28530  0.18460  0.66000  1.0000 0.1201903704
H   H39       1.0  0.28530  0.31540  0.16000  1.0000 0.1201903704
H   H40       1.0  0.71470  0.81540  0.34000  1.0000 0.1201903704
H   H41       1.0  0.11020  0.60510  0.83740  1.0000 0.1494606073
H   H42       1.0  0.88980  0.10510  0.66260  1.0000 0.1494606073
H   H43       1.0  0.88980  0.39490  0.16260  1.0000 0.1494606073
H   H44       1.0  0.11020  0.89490  0.33740  1.0000 0.1494606073
H   H45       1.0  0.67700  0.86040  0.61330  1.0000 0.1379881983
H   H46       1.0  0.32300  0.36040  0.88670  1.0000 0.1379881983
H   H47       1.0  0.32300  0.13960  0.38670  1.0000 0.1379881983
H   H48       1.0  0.67700  0.63960  0.11330  1.0000 0.1379881983
H   H49       1.0  0.38520  0.60260  0.15100  1.0000 0.1379881983
H   H50       1.0  0.61480  0.10260  0.34900  1.0000 0.1379881983
H   H51       1.0  0.61480  0.39740  0.84900  1.0000 0.1379881983
H   H52       1.0  0.38520  0.89740  0.65100  1.0000 0.1379881983
H   H53       1.0  0.52710  0.83950  0.68730  1.0000 0.1201903704
H   H54       1.0  0.47290  0.33950  0.81270  1.0000 0.1201903704
H   H55       1.0  0.47290  0.16050  0.31270  1.0000 0.1201903704
H   H56       1.0  0.52710  0.66050  0.18730  1.0000 0.1201903704
H   H57       1.0  0.19790  0.75740  0.57870  1.0000 0.1201903704
H   H58       1.0  0.80210  0.25740  0.92130  1.0000 0.1201903704
H   H59       1.0  0.80210  0.24260  0.42130  1.0000 0.1201903704
H   H60       1.0  0.19790  0.74260  0.07870  1.0000 0.1201903704
H   H61       1.0  0.48290  0.79760  0.36930  1.0000 0.1293519256
H   H62       1.0  0.51710  0.29760  0.13070  1.0000 0.1293519256
H   H63       1.0  0.51710  0.20240  0.63070  1.0000 0.1293519256
H   H64       1.0  0.48290  0.70240  0.86930  1.0000 0.1293519256
H   H65       1.0  0.82150  0.61680  0.90240  1.0000 0.1201903704
H   H66       1.0  0.17850  0.11680  0.59760  1.0000 0.1201903704
H   H67       1.0  0.17850  0.38320  0.09760  1.0000 0.1201903704
H   H68       1.0  0.82150  0.88320  0.40240  1.0000 0.1201903704
H   H69       1.0  0.02230  0.80360  0.62140  1.0000 0.1379881983
H   H70       1.0  0.97770  0.30360  0.87860  1.0000 0.1379881983
H   H71       1.0  0.97770  0.19640  0.37860  1.0000 0.1379881983
H   H72       1.0  0.02230  0.69640  0.12140  1.0000 0.1379881983
C   C1        1.0  0.22000  0.50800  0.90410  1.0000 0.6375519419
C   C2        1.0  0.78000  0.00800  0.59590  1.0000 0.6375519419
C   C3        1.0  0.78000  0.49200  0.09590  1.0000 0.6375519419
C   C4        1.0  0.22000  0.99200  0.40410  1.0000 0.6375519419
C   C5        1.0  0.20840  0.55110  0.84750  1.0000 -0.0146419835
C   C6        1.0  0.79160  0.05110  0.65250  1.0000 -0.0146419835
C   C7        1.0  0.79160  0.44890  0.15250  1.0000 -0.0146419835
C   C8        1.0  0.20840  0.94890  0.34750  1.0000 -0.0166086957
C   C9        1.0  0.26020  0.54480  0.82160  1.0000 -0.086733981
C   C10       1.0  0.73980  0.04480  0.67840  1.0000 -0.086733981
C   C11       1.0  0.73980  0.45520  0.17840  1.0000 -0.086733981
C   C12       1.0  0.26020  0.95520  0.32160  1.0000 -0.086733981
C   C13       1.0  0.30480  0.64410  0.24270  1.0000 0.0513273301
C   C14       1.0  0.69520  0.14410  0.25730  1.0000 0.0513273301
C   C15       1.0  0.69520  0.35590  0.75730  1.0000 0.0513273301
C   C16       1.0  0.30480  0.85590  0.74270  1.0000 0.0513273301
C   C17       1.0  0.29000  0.71410  0.33120  1.0000 -0.1328612962
C   C18       1.0  0.71000  0.21410  0.16880  1.0000 -0.1328612962
C   C19       1.0  0.71000  0.28590  0.66880  1.0000 -0.1328612962
C   C20       1.0  0.29000  0.78590  0.83120  1.0000 -0.1328612962
C   C21       1.0  0.27980  0.56440  0.13530  1.0000 -0.0294652965
C   C22       1.0  0.72020  0.06440  0.36470  1.0000 -0.0294652965
C   C23       1.0  0.72020  0.43560  0.86470  1.0000 -0.0294652965
C   C24       1.0  0.27980  0.93560  0.63530  1.0000 -0.0294652965
C   C25       1.0  0.23820  0.60400  0.21260  1.0000 -0.1328612962
C   C26       1.0  0.76180  0.10400  0.28740  1.0000 -0.1328612962
C   C27       1.0  0.76180  0.39600  0.78740  1.0000 -0.1328612962
C   C28       1.0  0.23820  0.89600  0.71260  1.0000 -0.1328612962
C   C29       1.0  0.62320  0.78070  0.73390  1.0000 -0.1009003005
C   C30       1.0  0.37680  0.28070  0.76610  1.0000 -0.1009003005
C   C31       1.0  0.37680  0.21930  0.26610  1.0000 -0.1009003005
C   C32       1.0  0.62320  0.71930  0.23390  1.0000 -0.1009003005
C   C33       1.0  0.24950  0.58470  0.76880  1.0000 -0.1328612962
C   C34       1.0  0.75050  0.08470  0.73120  1.0000 -0.1328612962
C   C35       1.0  0.75050  0.41530  0.23120  1.0000 -0.1328612962
C   C36       1.0  0.24950  0.91530  0.26880  1.0000 -0.1328612962
C   C37       1.0  0.75480  0.71790  0.77910  1.0000 0.0423328146
C   C38       1.0  0.24520  0.21790  0.72090  1.0000 0.0423328146
C   C39       1.0  0.24520  0.28210  0.22090  1.0000 0.0423328146
C   C40       1.0  0.75480  0.78210  0.27910  1.0000 0.0423328146
C   C41       1.0  0.20250  0.69580  0.65060  1.0000 -0.1328612962
C   C42       1.0  0.79750  0.19580  0.84940  1.0000 -0.1358855283
C   C43       1.0  0.79750  0.30420  0.34940  1.0000 -0.1328612962
C   C44       1.0  0.20250  0.80420  0.15060  1.0000 -0.1358855283
C   C45       1.0  0.59300  0.85880  0.64300  1.0000 -0.0146419835
C   C46       1.0  0.40700  0.35880  0.85700  1.0000 -0.0146419835
C   C47       1.0  0.40700  0.14120  0.35700  1.0000 -0.0146419835
C   C48       1.0  0.59300  0.64120  0.14300  1.0000 -0.0146419835
C   C49       1.0  0.71030  0.79350  0.68830  1.0000 -0.0782537091
C   C50       1.0  0.28970  0.29350  0.81170  1.0000 -0.0782537091
C   C51       1.0  0.28970  0.20650  0.31170  1.0000 -0.0782537091
C   C52       1.0  0.71030  0.70650  0.18830  1.0000 -0.0782537091
C   C53       1.0  0.22580  0.56350  0.15950  1.0000 -0.086733981
C   C54       1.0  0.77420  0.06350  0.34050  1.0000 -0.086733981
C   C55       1.0  0.77420  0.43650  0.84050  1.0000 -0.086733981
C   C56       1.0  0.22580  0.93650  0.65950  1.0000 -0.086733981
C   C57       1.0  0.32900  0.69420  0.29700  1.0000 0.0423328146
C   C58       1.0  0.67100  0.19420  0.20300  1.0000 0.0423328146
C   C59       1.0  0.67100  0.30580  0.70300  1.0000 0.0423328146
C   C60       1.0  0.32900  0.80580  0.79700  1.0000 0.0423328146
C   C61       1.0  0.69310  0.76400  0.73460  1.0000 0.0339906002
C   C62       1.0  0.30690  0.26400  0.76540  1.0000 0.0339906002
C   C63       1.0  0.30690  0.23600  0.26540  1.0000 0.0339906002
C   C64       1.0  0.69310  0.73600  0.23460  1.0000 0.0339906002
C   C65       1.0  0.18720  0.63380  0.74220  1.0000 0.0423328146
C   C66       1.0  0.81280  0.13380  0.75780  1.0000 0.0423328146
C   C67       1.0  0.81280  0.36620  0.25780  1.0000 0.0423328146
C   C68       1.0  0.18720  0.86620  0.24220  1.0000 0.0423328146
C   C69       1.0  0.32280  0.76780  0.37880  1.0000 -0.086733981
C   C70       1.0  0.67720  0.26780  0.12120  1.0000 -0.086733981
C   C71       1.0  0.67720  0.23220  0.62120  1.0000 -0.086733981
C   C72       1.0  0.32280  0.73220  0.87880  1.0000 -0.086733981
C   C73       1.0  0.88330  0.67300  0.80350  1.0000 -0.086733981
C   C74       1.0  0.11670  0.17300  0.69650  1.0000 -0.086733981
C   C75       1.0  0.11670  0.32700  0.19650  1.0000 -0.086733981
C   C76       1.0  0.88330  0.82700  0.30350  1.0000 -0.086733981
C   C77       1.0  0.10510  0.79060  0.59180  1.0000 -0.0294652965
C   C78       1.0  0.89490  0.29060  0.90820  1.0000 -0.0294652965
C   C79       1.0  0.89490  0.20940  0.40820  1.0000 -0.0294652965
C   C80       1.0  0.10510  0.70940  0.09180  1.0000 -0.0294652965
C   C81       1.0  0.75630  0.68160  0.83070  1.0000 -0.1328612962
C   C82       1.0  0.24370  0.18160  0.66930  1.0000 -0.1328612962
C   C83       1.0  0.24370  0.31840  0.16930  1.0000 -0.1328612962
C   C84       1.0  0.75630  0.81840  0.33070  1.0000 -0.1328612962
C   C85       1.0  0.14510  0.59970  0.82080  1.0000 -0.1009003005
C   C86       1.0  0.85490  0.09970  0.67920  1.0000 -0.1009003005
C   C87       1.0  0.85490  0.40030  0.17920  1.0000 -0.1009003005
C   C88       1.0  0.14510  0.90030  0.32080  1.0000 -0.1009003005
C   C89       1.0  0.66310  0.84090  0.64280  1.0000 -0.1186031317
C   C90       1.0  0.33690  0.34090  0.85720  1.0000 -0.1186031317
C   C91       1.0  0.33690  0.15910  0.35720  1.0000 -0.1186031317
C   C92       1.0  0.66310  0.65910  0.14280  1.0000 -0.1186031317
C   C93       1.0  0.34820  0.60290  0.16570  1.0000 -0.1009003005
C   C94       1.0  0.65180  0.10290  0.33430  1.0000 -0.1009003005
C   C95       1.0  0.65180  0.39710  0.83430  1.0000 -0.1009003005
C   C96       1.0  0.34820  0.89710  0.66570  1.0000 -0.1009003005
C   C97       1.0  0.16570  0.68410  0.68790  1.0000 0.0423328146
C   C98       1.0  0.83430  0.18410  0.81210  1.0000 0.0423328146
C   C99       1.0  0.83430  0.31590  0.31210  1.0000 0.0423328146
C   C100      1.0  0.16570  0.81590  0.18790  1.0000 0.0423328146
C   C101      1.0  0.39450  0.79930  0.39330  1.0000 -0.0166086957
C   C102      1.0  0.60550  0.29930  0.10670  1.0000 -0.0166086957
C   C103      1.0  0.60550  0.20070  0.60670  1.0000 -0.0166086957
C   C104      1.0  0.39450  0.70070  0.89330  1.0000 -0.0166086957
C   C105      1.0  0.35970  0.64160  0.21840  1.0000 -0.1077837432
C   C106      1.0  0.64030  0.14160  0.28160  1.0000 -0.1077837432
C   C107      1.0  0.64030  0.35840  0.78160  1.0000 -0.1077837432
C   C108      1.0  0.35970  0.85840  0.71840  1.0000 -0.1077837432
C   C109      1.0  0.88410  0.63570  0.85430  1.0000 -0.0146419835
C   C110      1.0  0.11590  0.13570  0.64570  1.0000 -0.0146419835
C   C111      1.0  0.11590  0.36430  0.14570  1.0000 -0.0146419835
C   C112      1.0  0.88410  0.86430  0.35430  1.0000 -0.0146419835
C   C113      1.0  0.57410  0.82790  0.68810  1.0000 -0.0782537091
C   C114      1.0  0.42590  0.32790  0.81190  1.0000 -0.0782537091
C   C115      1.0  0.42590  0.17210  0.31190  1.0000 -0.0782537091
C   C116      1.0  0.57410  0.67210  0.18810  1.0000 -0.0782537091
C   C117      1.0  0.42870  0.86150  0.44160  1.0000 0.6236333037
C   C118      1.0  0.57130  0.36150  0.05840  1.0000 0.6236333037
C   C119      1.0  0.57130  0.13850  0.55840  1.0000 0.6236333037
C   C120      1.0  0.42870  0.63850  0.94160  1.0000 0.6236333037
C   C121      1.0  0.81810  0.71210  0.76650  1.0000 -0.0782537091
C   C122      1.0  0.18190  0.21210  0.73350  1.0000 -0.0782537091
C   C123      1.0  0.18190  0.28790  0.23350  1.0000 -0.0782537091
C   C124      1.0  0.81810  0.78790  0.26650  1.0000 -0.0782537091
C   C125      1.0  0.53700  0.91190  0.59690  1.0000 0.59780527
C   C126      1.0  0.46300  0.41190  0.90310  1.0000 0.59780527
C   C127      1.0  0.46300  0.08810  0.40310  1.0000 0.59780527
C   C128      1.0  0.53700  0.58810  0.09690  1.0000 0.59780527
C   C129      1.0  0.13620  0.63920  0.76930  1.0000 -0.1009003005
C   C130      1.0  0.86380  0.13920  0.73070  1.0000 -0.1009003005
C   C131      1.0  0.86380  0.36080  0.23070  1.0000 -0.1009003005
C   C132      1.0  0.13620  0.86080  0.26930  1.0000 -0.1009003005
C   C133      1.0  0.09850  0.72600  0.67540  1.0000 -0.1009003005
C   C134      1.0  0.90150  0.22600  0.82460  1.0000 -0.1009003005
C   C135      1.0  0.90150  0.27400  0.32460  1.0000 -0.1009003005
C   C136      1.0  0.09850  0.77400  0.17540  1.0000 -0.1009003005
C   C137      1.0  0.40080  0.72670  0.31270  1.0000 -0.1009003005
C   C138      1.0  0.59920  0.22670  0.18730  1.0000 -0.1009003005
C   C139      1.0  0.59920  0.27330  0.68730  1.0000 -0.1009003005
C   C140      1.0  0.40080  0.77330  0.81270  1.0000 -0.1009003005
C   C141      1.0  0.07450  0.85330  0.54470  1.0000 0.6071304763
C   C142      1.0  0.92550  0.35330  0.95530  1.0000 0.6071304763
C   C143      1.0  0.92550  0.14670  0.45530  1.0000 0.6071304763
C   C144      1.0  0.07450  0.64670  0.04470  1.0000 0.6071304763
C   C145      1.0  0.17290  0.74900  0.60330  1.0000 -0.086733981
C   C146      1.0  0.82710  0.24900  0.89670  1.0000 -0.086733981
C   C147      1.0  0.82710  0.25100  0.39670  1.0000 -0.086733981
C   C148      1.0  0.17290  0.75100  0.10330  1.0000 -0.086733981
C   C149      1.0  0.43490  0.77800  0.36000  1.0000 -0.1077837432
C   C150      1.0  0.56510  0.27800  0.14000  1.0000 -0.1077837432
C   C151      1.0  0.56510  0.22200  0.64000  1.0000 -0.1077837432
C   C152      1.0  0.43490  0.72200  0.86000  1.0000 -0.1077837432
C   C153      1.0  0.82050  0.64090  0.86800  1.0000 -0.1009003005
C   C154      1.0  0.17950  0.14090  0.63200  1.0000 -0.1009003005
C   C155      1.0  0.17950  0.35910  0.13200  1.0000 -0.1009003005
C   C156      1.0  0.82050  0.85910  0.36800  1.0000 -0.1009003005
C   C157      1.0  0.95110  0.58840  0.89510  1.0000 0.5852667177
C   C158      1.0  0.04890  0.08840  0.60490  1.0000 0.5845507467
C   C159      1.0  0.04890  0.41160  0.10490  1.0000 0.5852667177
C   C160      1.0  0.95110  0.91160  0.39510  1.0000 0.5852667177
C   C161      1.0  0.06730  0.77770  0.62850  1.0000 -0.1009003005
C   C162      1.0  0.93270  0.27770  0.87150  1.0000 -0.1009003005
C   C163      1.0  0.93270  0.22230  0.37150  1.0000 -0.1009003005
C   C164      1.0  0.06730  0.72230  0.12850  1.0000 -0.1009003005
C   C165      1.0  0.26320  0.52610  0.07610  1.0000 0.6375519419
C   C166      1.0  0.73680  0.02610  0.42390  1.0000 0.6375519419
C   C167      1.0  0.73680  0.47390  0.92390  1.0000 0.6375519419
C   C168      1.0  0.26320  0.97390  0.57610  1.0000 0.6375519419
S   S1        1.0  0.80192  0.76244  0.69846  1.0000 0.9630073691
S   S2        1.0  0.19808  0.26244  0.80154  1.0000 0.9630073691
S   S3        1.0  0.19808  0.23756  0.30154  1.0000 0.9630073691
S   S4        1.0  0.80192  0.73756  0.19846  1.0000 0.9630073691
S   S5        1.0  0.44014  0.69600  0.26297  1.0000 0.9720055992
S   S6        1.0  0.55986  0.19600  0.23703  1.0000 0.9720055992
S   S7        1.0  0.55986  0.30400  0.73703  1.0000 0.9720055992
S   S8        1.0  0.44014  0.80400  0.76297  1.0000 0.9720055992
S   S9        1.0  0.06272  0.70654  0.72953  1.0000 0.9784321422
S   S10       1.0  0.93728  0.20654  0.77047  1.0000 0.9784321422
S   S11       1.0  0.93728  0.29346  0.27047  1.0000 0.9784321422
S   S12       1.0  0.06272  0.79346  0.22953  1.0000 0.9784321422
O   O1        1.0  0.20578  0.48330  0.05168  1.0000 -0.6227445071
O   O2        1.0  0.79422  0.98330  0.44832  1.0000 -0.6227445071
O   O3        1.0  0.79422  0.51670  0.94832  1.0000 -0.6227445071
O   O4        1.0  0.20578  0.01670  0.55168  1.0000 -0.6227445071
O   O5        1.0  0.28026  0.47070  0.93066  1.0000 -0.6227445071
O   O6        1.0  0.71974  0.97070  0.56934  1.0000 -0.6227445071
O   O7        1.0  0.71974  0.52930  0.06934  1.0000 -0.6227445071
O   O8        1.0  0.28026  0.02930  0.43066  1.0000 -0.6227445071
O   O9        1.0  0.01180  0.59570  0.89010  1.0000 -0.5533698912
O   O10       1.0  0.98820  0.09570  0.60990  1.0000 -0.5533698912
O   O11       1.0  0.98820  0.40430  0.10990  1.0000 -0.5533698912
O   O12       1.0  0.01180  0.90430  0.39010  1.0000 -0.5533698912
O   O13       1.0  0.16660  0.51240  0.92040  1.0000 -0.6272451197
O   O14       1.0  0.83340  0.01240  0.57960  1.0000 -0.6272451197
O   O15       1.0  0.83340  0.48760  0.07960  1.0000 -0.6272451197
O   O16       1.0  0.16660  0.98760  0.42040  1.0000 -0.6272451197
O   O17       1.0  0.38730  0.89180  0.46400  1.0000 -0.5853215372
O   O18       1.0  0.61270  0.39180  0.03600  1.0000 -0.5853215372
O   O19       1.0  0.61270  0.10820  0.53600  1.0000 -0.5843418156
O   O20       1.0  0.38730  0.60820  0.96400  1.0000 -0.5853215372
O   O21       1.0  0.31240  0.53790  0.05470  1.0000 -0.6374451434
O   O22       1.0  0.68760  0.03790  0.44530  1.0000 -0.6374451434
O   O23       1.0  0.68760  0.46210  0.94530  1.0000 -0.6374451434
O   O24       1.0  0.31240  0.96210  0.55470  1.0000 -0.6374451434
O   O25       1.0  0.47210  0.91420  0.59420  1.0000 -0.5691871708
O   O26       1.0  0.52790  0.41420  0.90580  1.0000 -0.5691871708
O   O27       1.0  0.52790  0.08580  0.40580  1.0000 -0.5691871708
O   O28       1.0  0.47210  0.58580  0.09420  1.0000 -0.5691871708
O   O29       1.0  0.06820  0.77760  0.76450  1.0000 -0.5007214939
O   O30       1.0  0.93180  0.27760  0.73550  1.0000 -0.5007214939
O   O31       1.0  0.93180  0.22240  0.23550  1.0000 -0.5007214939
O   O32       1.0  0.06820  0.72240  0.26450  1.0000 -0.5007214939
O   O33       1.0  0.45160  0.76310  0.23080  1.0000 -0.5191339617
O   O34       1.0  0.54840  0.26310  0.26920  1.0000 -0.5191339617
O   O35       1.0  0.54840  0.23690  0.76920  1.0000 -0.5191339617
O   O36       1.0  0.45160  0.73690  0.73080  1.0000 -0.5191339617
O   O37       1.0  0.55770  0.95770  0.56590  1.0000 -0.6589189088
O   O38       1.0  0.44230  0.45770  0.93410  1.0000 -0.6589189088
O   O39       1.0  0.44230  0.04230  0.43410  1.0000 -0.6589189088
O   O40       1.0  0.55770  0.54230  0.06590  1.0000 -0.6589189088
O   O41       1.0  0.99150  0.66650  0.70490  1.0000 -0.4616027212
O   O42       1.0  0.00850  0.16650  0.79510  1.0000 -0.4660697793
O   O43       1.0  0.00850  0.33350  0.29510  1.0000 -0.4660697793
O   O44       1.0  0.99150  0.83350  0.20490  1.0000 -0.4660697793
O   O45       1.0  0.49810  0.87390  0.45880  1.0000 -0.652771539
O   O46       1.0  0.50190  0.37390  0.04120  1.0000 -0.652771539
O   O47       1.0  0.50190  0.12610  0.54120  1.0000 -0.652771539
O   O48       1.0  0.49810  0.62610  0.95880  1.0000 -0.652771539
O   O49       1.0  0.85130  0.82980  0.70900  1.0000 -0.4906590625
O   O50       1.0  0.14870  0.32980  0.79100  1.0000 -0.4906590625
O   O51       1.0  0.14870  0.17020  0.29100  1.0000 -0.4906590625
O   O52       1.0  0.85130  0.67020  0.20900  1.0000 -0.4906590625
O   O53       1.0  0.11380  0.87700  0.51820  1.0000 -0.5550430929
O   O54       1.0  0.88620  0.37700  0.98180  1.0000 -0.5550430929
O   O55       1.0  0.88620  0.12300  0.48180  1.0000 -0.5533698912
O   O56       1.0  0.11380  0.62300  0.01820  1.0000 -0.5533698912
O   O57       1.0  0.50320  0.64380  0.29200  1.0000 -0.5007214939
O   O58       1.0  0.49680  0.14380  0.20800  1.0000 -0.4906590625
O   O59       1.0  0.49680  0.35620  0.70800  1.0000 -0.4906590625
O   O60       1.0  0.50320  0.85620  0.79200  1.0000 -0.4906590625
O   O61       1.0  0.79850  0.70670  0.65300  1.0000 -0.4616027212
O   O62       1.0  0.20150  0.20670  0.84700  1.0000 -0.4616027212
O   O63       1.0  0.20150  0.29330  0.34700  1.0000 -0.4616027212
O   O64       1.0  0.79850  0.79330  0.15300  1.0000 -0.4616027212
O   O65       1.0  0.94230  0.53930  0.93260  1.0000 -0.6982947802
O   O66       1.0  0.05770  0.03930  0.56740  1.0000 -0.6982947802
O   O67       1.0  0.05770  0.46070  0.06740  1.0000 -0.6982947802
O   O68       1.0  0.94230  0.96070  0.43260  1.0000 -0.6982947802
O   O69       1.0  0.00380  0.87410  0.53390  1.0000 -0.7209361111
O   O70       1.0  0.99620  0.37410  0.96610  1.0000 -0.7209361111
O   O71       1.0  0.99620  0.12590  0.46610  1.0000 -0.7209361111
O   O72       1.0  0.00380  0.62590  0.03390  1.0000 -0.7209361111
