# DDEC6 charges by PACMAN v1.1 (https://github.com/mtap-research/PACMAN-charge/)
data_2010[Cd][dia]3[ASR]3
_chemical_formula_sum              "Cd4 H76 C100 N20 O16"
_cell_length_a       14.865
_cell_length_b       14.865
_cell_length_c       13.139
_cell_angle_alpha    90
_cell_angle_beta     90
_cell_angle_gamma    90

_symmetry_space_group_name_H-M    "P 1"
_symmetry_Int_Tables_number       1

loop_
  _symmetry_equiv_pos_as_xyz
  'x, y, z'

loop_
  _atom_site_type_symbol
  _atom_site_label
  _atom_site_symmetry_multiplicity
  _atom_site_fract_x
  _atom_site_fract_y
  _atom_site_fract_z
  _atom_site_occupancy
  _atom_site_charge
Cd  Cd1       1.0  0.26947  0.26947  0.50000  1.0000 0.7969673071
Cd  Cd2       1.0  0.73053  0.73053  0.00000  1.0000 0.7969673071
Cd  Cd3       1.0  0.23053  0.76947  0.75000  1.0000 0.7969673071
Cd  Cd4       1.0  0.76947  0.23053  0.25000  1.0000 0.7969673071
H   H1        1.0  0.31300  0.04650  0.58130  1.0000 0.1318116679
H   H2        1.0  0.68700  0.95350  0.08130  1.0000 0.1318116679
H   H3        1.0  0.18700  0.54650  0.66870  1.0000 0.1318116679
H   H4        1.0  0.81300  0.45350  0.16870  1.0000 0.1318116679
H   H5        1.0  0.95350  0.68700  0.91870  1.0000 0.1318116679
H   H6        1.0  0.04650  0.31300  0.41870  1.0000 0.1318116679
H   H7        1.0  0.45350  0.81300  0.83130  1.0000 0.1318116679
H   H8        1.0  0.54650  0.18700  0.33130  1.0000 0.1318116679
H   H9        1.0  0.40310  0.00540  0.73010  1.0000 0.1318116679
H   H10       1.0  0.59690  0.99460  0.23010  1.0000 0.1318116679
H   H11       1.0  0.09690  0.50540  0.51990  1.0000 0.1318116679
H   H12       1.0  0.90310  0.49460  0.01990  1.0000 0.1318116679
H   H13       1.0  0.99460  0.59690  0.76990  1.0000 0.1318116679
H   H14       1.0  0.00540  0.40310  0.26990  1.0000 0.1318116679
H   H15       1.0  0.49460  0.90310  0.98010  1.0000 0.1318116679
H   H16       1.0  0.50540  0.09690  0.48010  1.0000 0.1318116679
H   H17       1.0  0.40420  0.27180  0.70060  1.0000 0.1173880417
H   H18       1.0  0.59580  0.72820  0.20060  1.0000 0.1173880417
H   H19       1.0  0.09580  0.77180  0.54940  1.0000 0.1173880417
H   H20       1.0  0.90420  0.22820  0.04940  1.0000 0.1173880417
H   H21       1.0  0.72820  0.59580  0.79940  1.0000 0.1173880417
H   H22       1.0  0.27180  0.40420  0.29940  1.0000 0.1173880417
H   H23       1.0  0.22820  0.90420  0.95060  1.0000 0.1173880417
H   H24       1.0  0.77180  0.09580  0.45060  1.0000 0.1173880417
H   H25       1.0  0.56040  0.04960  0.80380  1.0000 0.1173880417
H   H26       1.0  0.43960  0.95040  0.30380  1.0000 0.1173880417
H   H27       1.0  0.93960  0.54960  0.44620  1.0000 0.1173880417
H   H28       1.0  0.06040  0.45040  0.94620  1.0000 0.1173880417
H   H29       1.0  0.95040  0.43960  0.69620  1.0000 0.1173880417
H   H30       1.0  0.04960  0.56040  0.19620  1.0000 0.1173880417
H   H31       1.0  0.45040  0.06040  0.05380  1.0000 0.1173880417
H   H32       1.0  0.54960  0.93960  0.55380  1.0000 0.1173880417
H   H33       1.0  0.65510  0.06880  0.94440  1.0000 0.1173880417
H   H34       1.0  0.34490  0.93120  0.44440  1.0000 0.1173880417
H   H35       1.0  0.84490  0.56880  0.30560  1.0000 0.1173880417
H   H36       1.0  0.15510  0.43120  0.80560  1.0000 0.1173880417
H   H37       1.0  0.93120  0.34490  0.55560  1.0000 0.1173880417
H   H38       1.0  0.06880  0.65510  0.05560  1.0000 0.1173880417
H   H39       1.0  0.43120  0.15510  0.19440  1.0000 0.1173880417
H   H40       1.0  0.56880  0.84490  0.69440  1.0000 0.1173880417
H   H41       1.0  0.50620  0.27930  0.03370  1.0000 0.1114877792
H   H42       1.0  0.49380  0.72070  0.53370  1.0000 0.1114877792
H   H43       1.0  0.99380  0.77930  0.21630  1.0000 0.1114877792
H   H44       1.0  0.00620  0.22070  0.71630  1.0000 0.1114877792
H   H45       1.0  0.72070  0.49380  0.46630  1.0000 0.1114877792
H   H46       1.0  0.27930  0.50620  0.96630  1.0000 0.1114877792
H   H47       1.0  0.22070  0.00620  0.28370  1.0000 0.1114877792
H   H48       1.0  0.77930  0.99380  0.78370  1.0000 0.1114877792
H   H49       1.0  0.41380  0.26280  0.89110  1.0000 0.1318116679
H   H50       1.0  0.58620  0.73720  0.39110  1.0000 0.1318116679
H   H51       1.0  0.08620  0.76280  0.35890  1.0000 0.1318116679
H   H52       1.0  0.91380  0.23720  0.85890  1.0000 0.1318116679
H   H53       1.0  0.73720  0.58620  0.60890  1.0000 0.1318116679
H   H54       1.0  0.26280  0.41380  0.10890  1.0000 0.1318116679
H   H55       1.0  0.23720  0.91380  0.14110  1.0000 0.1318116679
H   H56       1.0  0.76280  0.08620  0.64110  1.0000 0.1318116679
H   H57       1.0  0.29870  0.47550  0.54340  1.0000 0.0972300936
H   H58       1.0  0.70130  0.52450  0.04340  1.0000 0.0972300936
H   H59       1.0  0.20130  0.97550  0.70660  1.0000 0.0972300936
H   H60       1.0  0.79870  0.02450  0.20660  1.0000 0.0972300936
H   H61       1.0  0.52450  0.70130  0.95660  1.0000 0.0972300936
H   H62       1.0  0.47550  0.29870  0.45660  1.0000 0.0972300936
H   H63       1.0  0.02450  0.79870  0.79340  1.0000 0.0972300936
H   H64       1.0  0.97550  0.20130  0.29340  1.0000 0.0972300936
H   H65       1.0  0.40730  0.59680  0.54100  1.0000 0.1365991477
H   H66       1.0  0.59270  0.40320  0.04100  1.0000 0.1365991477
H   H67       1.0  0.09270  0.09680  0.70900  1.0000 0.1365991477
H   H68       1.0  0.90730  0.90320  0.20900  1.0000 0.1365991477
H   H69       1.0  0.40320  0.59270  0.95900  1.0000 0.1365991477
H   H70       1.0  0.59680  0.40730  0.45900  1.0000 0.1365991477
H   H71       1.0  0.90320  0.90730  0.79100  1.0000 0.1365991477
H   H72       1.0  0.09680  0.09270  0.29100  1.0000 0.1365991477
H   H73       1.0  0.55410  0.55410  0.50000  1.0000 0.1114877792
H   H74       1.0  0.44590  0.44590  0.00000  1.0000 0.1114877792
H   H75       1.0  0.94590  0.05410  0.75000  1.0000 0.1114877792
H   H76       1.0  0.05410  0.94590  0.25000  1.0000 0.1114877792
C   C1        1.0  0.34300  0.08640  0.62390  1.0000 -0.0374267045
C   C2        1.0  0.65700  0.91360  0.12390  1.0000 -0.0374267045
C   C3        1.0  0.15700  0.58640  0.62610  1.0000 -0.0374267045
C   C4        1.0  0.84300  0.41360  0.12610  1.0000 -0.0374267045
C   C5        1.0  0.91360  0.65700  0.87610  1.0000 -0.0374267045
C   C6        1.0  0.08640  0.34300  0.37610  1.0000 -0.0374267045
C   C7        1.0  0.41360  0.84300  0.87390  1.0000 -0.0374267045
C   C8        1.0  0.58640  0.15700  0.37390  1.0000 -0.0374267045
C   C9        1.0  0.39230  0.06320  0.70610  1.0000 -0.1014261027
C   C10       1.0  0.60770  0.93680  0.20610  1.0000 -0.1014261027
C   C11       1.0  0.10770  0.56320  0.54390  1.0000 -0.1014261027
C   C12       1.0  0.89230  0.43680  0.04390  1.0000 -0.1014261027
C   C13       1.0  0.93680  0.60770  0.79390  1.0000 -0.1014261027
C   C14       1.0  0.06320  0.39230  0.29390  1.0000 -0.1014261027
C   C15       1.0  0.43680  0.89230  0.95610  1.0000 -0.1014261027
C   C16       1.0  0.56320  0.10770  0.45610  1.0000 -0.1014261027
C   C17       1.0  0.39270  0.21130  0.68880  1.0000 0.0892383754
C   C18       1.0  0.60730  0.78870  0.18880  1.0000 0.0892383754
C   C19       1.0  0.10730  0.71130  0.56120  1.0000 0.0892383754
C   C20       1.0  0.89270  0.28870  0.06120  1.0000 0.0892383754
C   C21       1.0  0.78870  0.60730  0.81120  1.0000 0.0892383754
C   C22       1.0  0.21130  0.39270  0.31120  1.0000 0.0892383754
C   C23       1.0  0.28870  0.89270  0.93880  1.0000 0.0892383754
C   C24       1.0  0.71130  0.10730  0.43880  1.0000 0.0892383754
C   C25       1.0  0.47870  0.15410  0.83590  1.0000 0.1627593879
C   C26       1.0  0.52130  0.84590  0.33590  1.0000 0.1627593879
C   C27       1.0  0.02130  0.65410  0.41410  1.0000 0.1627593879
C   C28       1.0  0.97870  0.34590  0.91410  1.0000 0.1627593879
C   C29       1.0  0.84590  0.52130  0.66410  1.0000 0.1627593879
C   C30       1.0  0.15410  0.47870  0.16410  1.0000 0.1627593879
C   C31       1.0  0.34590  0.97870  0.08590  1.0000 0.1627593879
C   C32       1.0  0.65410  0.02130  0.58590  1.0000 0.1627593879
C   C33       1.0  0.55010  0.09600  0.84980  1.0000 -0.1908009853
C   C34       1.0  0.44990  0.90400  0.34980  1.0000 -0.1908009853
C   C35       1.0  0.94990  0.59600  0.40020  1.0000 -0.1908009853
C   C36       1.0  0.05010  0.40400  0.90020  1.0000 -0.1908009853
C   C37       1.0  0.90400  0.44990  0.65020  1.0000 -0.1908009853
C   C38       1.0  0.09600  0.55010  0.15020  1.0000 -0.1908009853
C   C39       1.0  0.40400  0.05010  0.09980  1.0000 -0.1908009853
C   C40       1.0  0.59600  0.94990  0.59980  1.0000 -0.1908009853
C   C41       1.0  0.60700  0.10770  0.93400  1.0000 -0.0880386736
C   C42       1.0  0.39300  0.89230  0.43400  1.0000 -0.0880386736
C   C43       1.0  0.89300  0.60770  0.31600  1.0000 -0.0880386736
C   C44       1.0  0.10700  0.39230  0.81600  1.0000 -0.0880386736
C   C45       1.0  0.89230  0.39300  0.56600  1.0000 -0.0880386736
C   C46       1.0  0.10770  0.60700  0.06600  1.0000 -0.0880386736
C   C47       1.0  0.39230  0.10700  0.18400  1.0000 -0.0880386736
C   C48       1.0  0.60770  0.89300  0.68400  1.0000 -0.0880386736
C   C49       1.0  0.59110  0.17750  0.00160  1.0000 -0.0260312948
C   C50       1.0  0.40890  0.82250  0.50160  1.0000 -0.0260312948
C   C51       1.0  0.90890  0.67750  0.24840  1.0000 -0.0260312948
C   C52       1.0  0.09110  0.32250  0.74840  1.0000 -0.0260312948
C   C53       1.0  0.82250  0.40890  0.49840  1.0000 -0.0260312948
C   C54       1.0  0.17750  0.59110  0.99840  1.0000 -0.0260312948
C   C55       1.0  0.32250  0.09110  0.25160  1.0000 -0.0260312948
C   C56       1.0  0.67750  0.90890  0.75160  1.0000 -0.0260312948
C   C57       1.0  0.51800  0.23400  0.98680  1.0000 -0.1014261027
C   C58       1.0  0.48200  0.76600  0.48680  1.0000 -0.1014261027
C   C59       1.0  0.98200  0.73400  0.26320  1.0000 -0.1014261027
C   C60       1.0  0.01800  0.26600  0.76320  1.0000 -0.1014261027
C   C61       1.0  0.76600  0.48200  0.51320  1.0000 -0.1014261027
C   C62       1.0  0.23400  0.51800  0.01320  1.0000 -0.1014261027
C   C63       1.0  0.26600  0.01800  0.23680  1.0000 -0.1014261027
C   C64       1.0  0.73400  0.98200  0.73680  1.0000 -0.1014261027
C   C65       1.0  0.46160  0.22370  0.90220  1.0000 -0.2008928078
C   C66       1.0  0.53840  0.77630  0.40220  1.0000 -0.2008928078
C   C67       1.0  0.03840  0.72370  0.34780  1.0000 -0.2008928078
C   C68       1.0  0.96160  0.27630  0.84780  1.0000 -0.2008928078
C   C69       1.0  0.77630  0.53840  0.59780  1.0000 -0.2008928078
C   C70       1.0  0.22370  0.46160  0.09780  1.0000 -0.2008928078
C   C71       1.0  0.27630  0.96160  0.15220  1.0000 -0.2008928078
C   C72       1.0  0.72370  0.03840  0.65220  1.0000 -0.2008928078
C   C73       1.0  0.65180  0.19260  0.09190  1.0000 0.5369312112
C   C74       1.0  0.34820  0.80740  0.59190  1.0000 0.5369312112
C   C75       1.0  0.84820  0.69260  0.15810  1.0000 0.5369312112
C   C76       1.0  0.15180  0.30740  0.65810  1.0000 0.5369312112
C   C77       1.0  0.80740  0.34820  0.40810  1.0000 0.5369312112
C   C78       1.0  0.19260  0.65180  0.90810  1.0000 0.5369312112
C   C79       1.0  0.30740  0.15180  0.34190  1.0000 0.5369312112
C   C80       1.0  0.69260  0.84820  0.84190  1.0000 0.5369312112
C   C81       1.0  0.35800  0.46360  0.52500  1.0000 0.0972300936
C   C82       1.0  0.64200  0.53640  0.02500  1.0000 0.0972300936
C   C83       1.0  0.14200  0.96360  0.72500  1.0000 0.0972300936
C   C84       1.0  0.85800  0.03640  0.22500  1.0000 0.0972300936
C   C85       1.0  0.53640  0.64200  0.97500  1.0000 0.0972300936
C   C86       1.0  0.46360  0.35800  0.47500  1.0000 0.0972300936
C   C87       1.0  0.03640  0.85800  0.77500  1.0000 0.0972300936
C   C88       1.0  0.96360  0.14200  0.27500  1.0000 0.0972300936
C   C89       1.0  0.42250  0.53770  0.52600  1.0000 -0.1519181914
C   C90       1.0  0.57750  0.46230  0.02600  1.0000 -0.1519181914
C   C91       1.0  0.07750  0.03770  0.72400  1.0000 -0.1519181914
C   C92       1.0  0.92250  0.96230  0.22400  1.0000 -0.1519181914
C   C93       1.0  0.46230  0.57750  0.97400  1.0000 -0.1519181914
C   C94       1.0  0.53770  0.42250  0.47400  1.0000 -0.1519181914
C   C95       1.0  0.96230  0.92250  0.77600  1.0000 -0.1519181914
C   C96       1.0  0.03770  0.07750  0.27600  1.0000 -0.1519181914
C   C97       1.0  0.50990  0.50990  0.50000  1.0000 -0.0453529153
C   C98       1.0  0.49010  0.49010  0.00000  1.0000 -0.0453529153
C   C99       1.0  0.99010  0.00990  0.75000  1.0000 -0.0453529153
C   C100      1.0  0.00990  0.99010  0.25000  1.0000 -0.0453529153
N   N1        1.0  0.34420  0.18010  0.61280  1.0000 -0.2813340779
N   N2        1.0  0.65580  0.81990  0.11280  1.0000 -0.2813340779
N   N3        1.0  0.15580  0.68010  0.63720  1.0000 -0.2813340779
N   N4        1.0  0.84420  0.31990  0.13720  1.0000 -0.2813340779
N   N5        1.0  0.81990  0.65580  0.88720  1.0000 -0.2813340779
N   N6        1.0  0.18010  0.34420  0.38720  1.0000 -0.2813340779
N   N7        1.0  0.31990  0.84420  0.86280  1.0000 -0.2813340779
N   N8        1.0  0.68010  0.15580  0.36280  1.0000 -0.2813340779
N   N9        1.0  0.42340  0.14280  0.74730  1.0000 0.0020879973
N   N10       1.0  0.57660  0.85720  0.24730  1.0000 0.0020879973
N   N11       1.0  0.07660  0.64280  0.50270  1.0000 0.0020879973
N   N12       1.0  0.92340  0.35720  0.00270  1.0000 0.0020879973
N   N13       1.0  0.85720  0.57660  0.75270  1.0000 0.0020879973
N   N14       1.0  0.14280  0.42340  0.25270  1.0000 0.0020879973
N   N15       1.0  0.35720  0.92340  0.99730  1.0000 0.0020879973
N   N16       1.0  0.64280  0.07660  0.49730  1.0000 0.0020879973
N   N17       1.0  0.38020  0.38020  0.50000  1.0000 -0.2434906754
N   N18       1.0  0.61980  0.61980  0.00000  1.0000 -0.2434906754
N   N19       1.0  0.11980  0.88020  0.75000  1.0000 -0.2434906754
N   N20       1.0  0.88020  0.11980  0.25000  1.0000 -0.2434906754
O   O1        1.0  0.71800  0.14060  0.10130  1.0000 -0.5715298112
O   O2        1.0  0.28200  0.85940  0.60130  1.0000 -0.5715298112
O   O3        1.0  0.78200  0.64060  0.14870  1.0000 -0.5715298112
O   O4        1.0  0.21800  0.35940  0.64870  1.0000 -0.5715298112
O   O5        1.0  0.85940  0.28200  0.39870  1.0000 -0.5715298112
O   O6        1.0  0.14060  0.71800  0.89870  1.0000 -0.5715298112
O   O7        1.0  0.35940  0.21800  0.35130  1.0000 -0.5715298112
O   O8        1.0  0.64060  0.78200  0.85130  1.0000 -0.5715298112
O   O9        1.0  0.63520  0.25540  0.15250  1.0000 -0.5401442106
O   O10       1.0  0.36480  0.74460  0.65250  1.0000 -0.5401442106
O   O11       1.0  0.86480  0.75540  0.09750  1.0000 -0.5401442106
O   O12       1.0  0.13520  0.24460  0.59750  1.0000 -0.5401442106
O   O13       1.0  0.74460  0.36480  0.34750  1.0000 -0.5401442106
O   O14       1.0  0.25540  0.63520  0.84750  1.0000 -0.5401442106
O   O15       1.0  0.24460  0.13520  0.40250  1.0000 -0.5401442106
O   O16       1.0  0.75540  0.86480  0.90250  1.0000 -0.5401442106
