# DDEC6 charges by PACMAN v1.1 (https://github.com/mtap-research/PACMAN-charge/)
data_2010[Zn][qtz]3[ASR]1
_chemical_formula_sum              "Zn3 H24 C36 N6 O12"
_cell_length_a       15.512
_cell_length_b       15.512
_cell_length_c       6.262
_cell_angle_alpha    90
_cell_angle_beta     90
_cell_angle_gamma    120

_symmetry_space_group_name_H-M    "P 1"
_symmetry_Int_Tables_number       1

loop_
  _symmetry_equiv_pos_as_xyz
  'x, y, z'

loop_
  _atom_site_type_symbol
  _atom_site_label
  _atom_site_symmetry_multiplicity
  _atom_site_fract_x
  _atom_site_fract_y
  _atom_site_fract_z
  _atom_site_occupancy
  _atom_site_charge
Zn  Zn1       1.0  0.50000  0.00000  0.14960  1.0000 0.7406260475
Zn  Zn2       1.0  0.50000  0.50000  0.48293  1.0000 0.7406260475
Zn  Zn3       1.0  0.00000  0.50000  0.81627  1.0000 0.7406260475
H   H1        1.0  0.27640  0.87830  0.78460  1.0000 0.1396421845
H   H2        1.0  0.39810  0.27640  0.11793  1.0000 0.1396421845
H   H3        1.0  0.12170  0.39810  0.45127  1.0000 0.1396421845
H   H4        1.0  0.72360  0.12170  0.78460  1.0000 0.1396421845
H   H5        1.0  0.60190  0.72360  0.11793  1.0000 0.1396421845
H   H6        1.0  0.87830  0.60190  0.45127  1.0000 0.1396421845
H   H7        1.0  0.40290  0.99190  0.57390  1.0000 0.1159748787
H   H8        1.0  0.41100  0.40290  0.90723  1.0000 0.1159748787
H   H9        1.0  0.00810  0.41100  0.24057  1.0000 0.1159748787
H   H10       1.0  0.59710  0.00810  0.57390  1.0000 0.1159748787
H   H11       1.0  0.58900  0.59710  0.90723  1.0000 0.1159748787
H   H12       1.0  0.99190  0.58900  0.24057  1.0000 0.1159748787
H   H13       1.0  0.33420  0.79610  0.12200  1.0000 0.1082657779
H   H14       1.0  0.53810  0.33420  0.45533  1.0000 0.1082657779
H   H15       1.0  0.20390  0.53810  0.78867  1.0000 0.1082657779
H   H16       1.0  0.66580  0.20390  0.12200  1.0000 0.1082657779
H   H17       1.0  0.46190  0.66580  0.45533  1.0000 0.1082657779
H   H18       1.0  0.79610  0.46190  0.78867  1.0000 0.1082657779
H   H19       1.0  0.20220  0.67890  0.31600  1.0000 0.1396421845
H   H20       1.0  0.52330  0.20220  0.64933  1.0000 0.1396421845
H   H21       1.0  0.32110  0.52330  0.98267  1.0000 0.1396421845
H   H22       1.0  0.79780  0.32110  0.31600  1.0000 0.1396421845
H   H23       1.0  0.47670  0.79780  0.64933  1.0000 0.1396421845
H   H24       1.0  0.67890  0.47670  0.98267  1.0000 0.1396421845
C   C1        1.0  0.14390  0.68620  0.71280  1.0000 0.5355958844
C   C2        1.0  0.45770  0.14390  0.04613  1.0000 0.5355958844
C   C3        1.0  0.31380  0.45770  0.37947  1.0000 0.5355958844
C   C4        1.0  0.85610  0.31380  0.71280  1.0000 0.5355958844
C   C5        1.0  0.54230  0.85610  0.04613  1.0000 0.5355958844
C   C6        1.0  0.68620  0.54230  0.37947  1.0000 0.5355958844
C   C7        1.0  0.22630  0.76420  0.57390  1.0000 0.0300178731
C   C8        1.0  0.46210  0.22630  0.90723  1.0000 0.0300178731
C   C9        1.0  0.23580  0.46210  0.24057  1.0000 0.0300178731
C   C10       1.0  0.77370  0.23580  0.57390  1.0000 0.0300178731
C   C11       1.0  0.53790  0.77370  0.90723  1.0000 0.0300178731
C   C12       1.0  0.76420  0.53790  0.24057  1.0000 0.0300178731
C   C13       1.0  0.28700  0.86010  0.64980  1.0000 -0.1530199891
C   C14       1.0  0.42690  0.28700  0.98313  1.0000 -0.1530199891
C   C15       1.0  0.13990  0.42690  0.31647  1.0000 -0.1530199891
C   C16       1.0  0.71300  0.13990  0.64980  1.0000 -0.1530199891
C   C17       1.0  0.57310  0.71300  0.98313  1.0000 -0.1530199891
C   C18       1.0  0.86010  0.57310  0.31647  1.0000 -0.1530199891
C   C19       1.0  0.36290  0.92760  0.52280  1.0000 0.0909652243
C   C20       1.0  0.43530  0.36290  0.85613  1.0000 0.0909652243
C   C21       1.0  0.07240  0.43530  0.18947  1.0000 0.0909652243
C   C22       1.0  0.63710  0.07240  0.52280  1.0000 0.0909652243
C   C23       1.0  0.56470  0.63710  0.85613  1.0000 0.0909652243
C   C24       1.0  0.92760  0.56470  0.18947  1.0000 0.0909652243
C   C25       1.0  0.32200  0.81280  0.25680  1.0000 0.0826187747
C   C26       1.0  0.50920  0.32200  0.59013  1.0000 0.0826187747
C   C27       1.0  0.18720  0.50920  0.92347  1.0000 0.0826187747
C   C28       1.0  0.67800  0.18720  0.25680  1.0000 0.0826187747
C   C29       1.0  0.49080  0.67800  0.59013  1.0000 0.0826187747
C   C30       1.0  0.81280  0.49080  0.92347  1.0000 0.0826187747
C   C31       1.0  0.24340  0.74180  0.37340  1.0000 -0.1444657341
C   C32       1.0  0.50160  0.24340  0.70673  1.0000 -0.1444657341
C   C33       1.0  0.25820  0.50160  0.04007  1.0000 -0.1444657341
C   C34       1.0  0.75660  0.25820  0.37340  1.0000 -0.1444657341
C   C35       1.0  0.49840  0.75660  0.70673  1.0000 -0.1444657341
C   C36       1.0  0.74180  0.49840  0.04007  1.0000 -0.1444657341
N   N1        1.0  0.38169  0.90510  0.32960  1.0000 -0.2347852533
N   N2        1.0  0.47659  0.38169  0.66293  1.0000 -0.2347852533
N   N3        1.0  0.09490  0.47659  0.99627  1.0000 -0.2347852533
N   N4        1.0  0.61831  0.09490  0.32960  1.0000 -0.2347852533
N   N5        1.0  0.52341  0.61831  0.66293  1.0000 -0.2347852533
N   N6        1.0  0.90510  0.52341  0.99627  1.0000 -0.2347852533
O   O1        1.0  0.08542  0.60481  0.61660  1.0000 -0.5456715122
O   O2        1.0  0.48061  0.08542  0.94993  1.0000 -0.5456715122
O   O3        1.0  0.39519  0.48061  0.28327  1.0000 -0.5456715122
O   O4        1.0  0.91458  0.39519  0.61660  1.0000 -0.5456715122
O   O5        1.0  0.51939  0.91458  0.94993  1.0000 -0.5456715122
O   O6        1.0  0.60481  0.51939  0.28327  1.0000 -0.5456715122
O   O7        1.0  0.14150  0.70110  0.90290  1.0000 -0.535093317
O   O8        1.0  0.44040  0.14150  0.23623  1.0000 -0.535093317
O   O9        1.0  0.29890  0.44040  0.56957  1.0000 -0.535093317
O   O10       1.0  0.85850  0.29890  0.90290  1.0000 -0.535093317
O   O11       1.0  0.55960  0.85850  0.23623  1.0000 -0.535093317
O   O12       1.0  0.70110  0.55960  0.56957  1.0000 -0.535093317
