# DDEC6 charges by PACMAN v1.1 (https://github.com/mtap-research/PACMAN-charge/)
data_2010[Cd][dia]3[ASR]2
_chemical_formula_sum              "Cd2 H28 C40 N8 O8"
_cell_length_a       9.147
_cell_length_b       9.219
_cell_length_c       14.604
_cell_angle_alpha    97.973
_cell_angle_beta     104.956
_cell_angle_gamma    104.565

_symmetry_space_group_name_H-M    "P 1"
_symmetry_Int_Tables_number       1

loop_
  _symmetry_equiv_pos_as_xyz
  'x, y, z'

loop_
  _atom_site_type_symbol
  _atom_site_label
  _atom_site_symmetry_multiplicity
  _atom_site_fract_x
  _atom_site_fract_y
  _atom_site_fract_z
  _atom_site_occupancy
  _atom_site_charge
Cd  Cd1       1.0  0.40284  0.92096  0.81123  1.0000 0.8313103099
Cd  Cd2       1.0  0.66166  0.75242  0.40398  1.0000 0.837355413
H   H1        1.0  0.07470  0.84040  0.49340  1.0000 0.1293916847
H   H2        1.0  0.24340  0.82970  0.39400  1.0000 0.1293916847
H   H3        1.0  0.82390  0.79500  0.22500  1.0000 0.1293916847
H   H4        1.0  0.89410  0.71160  0.09110  1.0000 0.1293916847
H   H5        1.0  0.00440  0.74870  0.96150  1.0000 0.1195238378
H   H6        1.0  0.43370  0.90900  0.14430  1.0000 0.1365666729
H   H7        1.0  0.34570  0.89290  0.27420  1.0000 0.1365666729
H   H8        1.0  0.81980  0.83170  0.63680  1.0000 0.1293916847
H   H9        1.0  0.98460  0.70920  0.73800  1.0000 0.1365666729
H   H10       1.0  0.80460  0.44790  0.47560  1.0000 0.1123965809
H   H11       1.0  0.96600  0.30450  0.51400  1.0000 0.1293916847
H   H12       1.0  0.09730  0.12990  0.57230  1.0000 0.1195238378
H   H13       1.0  0.20780  0.35910  0.84220  1.0000 0.1195238378
H   H14       1.0  0.06650  0.52520  0.79330  1.0000 0.1293916847
H   H15       1.0  0.73840  0.86190  0.77350  1.0000 0.1195238378
H   H16       1.0  0.00350  0.98580  0.87610  1.0000 0.1365666729
H   H17       1.0  0.72710  0.21650  0.94300  1.0000 0.1195238378
H   H18       1.0  0.21990  0.20770  0.96580  1.0000 0.1365666729
H   H19       1.0  0.42010  0.37810  0.09370  1.0000 0.1293916847
H   H20       1.0  0.12030  0.50020  0.21610  1.0000 0.1123965809
H   H21       1.0  0.91080  0.31640  0.09730  1.0000 0.1293916847
H   H22       1.0  0.29830  0.81020  0.57970  1.0000 0.1195238378
H   H23       1.0  0.34570  0.60980  0.47920  1.0000 0.1365666729
H   H24       1.0  0.47030  0.56110  0.75270  1.0000 0.1123965809
H   H25       1.0  0.35160  0.36590  0.43250  1.0000 0.1365666729
H   H26       1.0  0.45070  0.17940  0.37940  1.0000 0.1195238378
H   H27       1.0  0.64280  0.15510  0.65700  1.0000 0.1195238378
H   H28       1.0  0.56790  0.37590  0.70620  1.0000 0.1195238378
C   C1        1.0  0.04490  0.82820  0.42630  1.0000 -0.0792195035
C   C2        1.0  0.13680  0.82430  0.37230  1.0000 -0.0792195035
C   C3        1.0  0.90610  0.80400  0.28050  1.0000 0.1365666729
C   C4        1.0  0.11180  0.81190  0.19670  1.0000 0.1622284878
C   C5        1.0  0.00210  0.75580  0.10230  1.0000 -0.2180062305
C   C6        1.0  0.07200  0.77310  0.02470  1.0000 -0.0910764724
C   C7        1.0  0.22220  0.82000  0.03810  1.0000 -0.0152400029
C   C8        1.0  0.32540  0.87000  0.13450  1.0000 -0.0729034613
C   C9        1.0  0.27450  0.86360  0.21180  1.0000 -0.1585266661
C   C10       1.0  0.29240  0.84310  0.95580  1.0000 0.5427609462
C   C11       1.0  0.83600  0.73820  0.61700  1.0000 -0.0461665379
C   C12       1.0  0.92680  0.67120  0.67270  1.0000 -0.0968564521
C   C13       1.0  0.82710  0.52760  0.52860  1.0000 0.0994801972
C   C14       1.0  0.99760  0.42950  0.64700  1.0000 0.1754751135
C   C15       1.0  0.01050  0.31450  0.58030  1.0000 -0.2086284455
C   C16       1.0  0.09330  0.21180  0.61570  1.0000 -0.0910764724
C   C17       1.0  0.16610  0.23240  0.71170  1.0000 -0.0265587862
C   C18       1.0  0.15660  0.34740  0.77650  1.0000 -0.0910764724
C   C19       1.0  0.07310  0.44780  0.74780  1.0000 -0.2016498815
C   C20       1.0  0.25770  0.12470  0.74520  1.0000 0.5484287519
C   C21       1.0  0.76930  0.94790  0.82360  1.0000 -0.0461665379
C   C22       1.0  0.91470  0.01580  0.87880  1.0000 -0.0968564521
C   C23       1.0  0.76180  0.13920  0.91600  1.0000 0.1195238378
C   C24       1.0  0.04270  0.24410  0.01750  1.0000 0.1672939587
C   C25       1.0  0.19730  0.26170  0.01640  1.0000 -0.1878531422
C   C26       1.0  0.31600  0.36380  0.09430  1.0000 -0.0792195035
C   C27       1.0  0.29300  0.44510  0.17180  1.0000 -0.0461665379
C   C28       1.0  0.14000  0.43590  0.16880  1.0000 -0.0792195035
C   C29       1.0  0.01400  0.33000  0.09520  1.0000 -0.2086284455
C   C30       1.0  0.42290  0.55500  0.25160  1.0000 0.5427609462
C   C31       1.0  0.33890  0.73370  0.60100  1.0000 -0.0461665379
C   C32       1.0  0.36120  0.62260  0.54570  1.0000 -0.108330838
C   C33       1.0  0.43120  0.59570  0.69720  1.0000 0.0888093118
C   C34       1.0  0.46400  0.39450  0.57720  1.0000 0.1672939587
C   C35       1.0  0.41790  0.32910  0.47690  1.0000 -0.174408115
C   C36       1.0  0.47000  0.21330  0.44570  1.0000 -0.0910764724
C   C37       1.0  0.55510  0.14180  0.51190  1.0000 -0.0792195035
C   C38       1.0  0.59020  0.20020  0.61110  1.0000 -0.0792195035
C   C39       1.0  0.54210  0.33333  0.64040  1.0000 -0.1878531422
C   C40       1.0  0.59880  0.01050  0.47740  1.0000 0.5275211115
N   N1        1.0  0.88900  0.81040  0.36410  1.0000 -0.2822665792
N   N2        1.0  0.05220  0.81120  0.27960  1.0000 0.0074525349
N   N3        1.0  0.77060  0.64630  0.52590  1.0000 -0.2896903476
N   N4        1.0  0.91950  0.53720  0.61650  1.0000 0.0074525349
N   N5        1.0  0.66830  0.02120  0.84990  1.0000 -0.2896903476
N   N6        1.0  0.91250  0.14000  0.94180  1.0000 0.0040387669
N   N7        1.0  0.38520  0.71950  0.69620  1.0000 -0.2896903476
N   N8        1.0  0.41310  0.52550  0.60500  1.0000 -0.0013572283
O   O1        1.0  0.19410  0.83100  0.87290  1.0000 -0.5594411414
O   O2        1.0  0.43230  0.86890  0.96760  1.0000 -0.4951246898
O   O3        1.0  0.24010  0.00260  0.68800  1.0000 -0.5394115072
O   O4        1.0  0.34710  0.16170  0.83360  1.0000 -0.5732538323
O   O5        1.0  0.40180  0.59230  0.33040  1.0000 -0.5394115072
O   O6        1.0  0.55300  0.61520  0.23620  1.0000 -0.5594411414
O   O7        1.0  0.60740  0.98480  0.38760  1.0000 -0.5795313935
O   O8        1.0  0.64160  0.92850  0.53200  1.0000 -0.5142498236
