# DDEC6 charges by PACMAN v1.1 (https://github.com/mtap-research/PACMAN-charge/)
data_2010[Yb][nan]3[ASR]1
_chemical_formula_sum              "Yb4 H12 C36 O24"
_cell_length_a       10.24
_cell_length_b       10.24
_cell_length_c       14.42
_cell_angle_alpha    90
_cell_angle_beta     90
_cell_angle_gamma    90

_symmetry_space_group_name_H-M    "P 1"
_symmetry_Int_Tables_number       1

loop_
  _symmetry_equiv_pos_as_xyz
  'x, y, z'

loop_
  _atom_site_type_symbol
  _atom_site_label
  _atom_site_symmetry_multiplicity
  _atom_site_fract_x
  _atom_site_fract_y
  _atom_site_fract_z
  _atom_site_occupancy
  _atom_site_charge
Yb  Yb1       1.0  0.64785  0.35215  0.12500  1.0000 2.1122017681
Yb  Yb2       1.0  0.35215  0.64785  0.62500  1.0000 2.1122017681
Yb  Yb3       1.0  0.64785  0.64785  0.37500  1.0000 2.1122017681
Yb  Yb4       1.0  0.35215  0.35215  0.87500  1.0000 2.1122017681
H   H1        1.0  0.57490  0.94100  0.12910  1.0000 0.1373068347
H   H2        1.0  0.42510  0.05900  0.62910  1.0000 0.1373068347
H   H3        1.0  0.05900  0.57490  0.37910  1.0000 0.1373068347
H   H4        1.0  0.94100  0.42510  0.87910  1.0000 0.1373068347
H   H5        1.0  0.42510  0.94100  0.87090  1.0000 0.1373068347
H   H6        1.0  0.57490  0.05900  0.37090  1.0000 0.1373068347
H   H7        1.0  0.94100  0.57490  0.62090  1.0000 0.1373068347
H   H8        1.0  0.05900  0.42510  0.12090  1.0000 0.1373068347
H   H9        1.0  0.50000  0.60110  0.00000  1.0000 0.1102194294
H   H10       1.0  0.50000  0.39890  0.50000  1.0000 0.1102194294
H   H11       1.0  0.39890  0.50000  0.25000  1.0000 0.1102194294
H   H12       1.0  0.60110  0.50000  0.75000  1.0000 0.1102194294
C   C1        1.0  0.58900  0.68220  0.16100  1.0000 0.6508965447
C   C2        1.0  0.41100  0.31780  0.66100  1.0000 0.6508965447
C   C3        1.0  0.31780  0.58900  0.41100  1.0000 0.6508965447
C   C4        1.0  0.68220  0.41100  0.91100  1.0000 0.6508965447
C   C5        1.0  0.41100  0.68220  0.83900  1.0000 0.6508965447
C   C6        1.0  0.58900  0.31780  0.33900  1.0000 0.6508965447
C   C7        1.0  0.68220  0.58900  0.58900  1.0000 0.6508965447
C   C8        1.0  0.31780  0.41100  0.08900  1.0000 0.6508965447
C   C9        1.0  0.54460  0.89580  0.07750  1.0000 -0.0969514892
C   C10       1.0  0.45540  0.10420  0.57750  1.0000 -0.0969514892
C   C11       1.0  0.10420  0.54460  0.32750  1.0000 -0.0969514892
C   C12       1.0  0.89580  0.45540  0.82750  1.0000 -0.0969514892
C   C13       1.0  0.45540  0.89580  0.92250  1.0000 -0.0969514892
C   C14       1.0  0.54460  0.10420  0.42250  1.0000 -0.0969514892
C   C15       1.0  0.89580  0.54460  0.67250  1.0000 -0.0969514892
C   C16       1.0  0.10420  0.45540  0.17250  1.0000 -0.0969514892
C   C17       1.0  0.54350  0.76020  0.07740  1.0000 -0.030663939
C   C18       1.0  0.45650  0.23980  0.57740  1.0000 -0.030663939
C   C19       1.0  0.23980  0.54350  0.32740  1.0000 -0.030663939
C   C20       1.0  0.76020  0.45650  0.82740  1.0000 -0.030663939
C   C21       1.0  0.45650  0.76020  0.92260  1.0000 -0.030663939
C   C22       1.0  0.54350  0.23980  0.42260  1.0000 -0.030663939
C   C23       1.0  0.76020  0.54350  0.67260  1.0000 -0.030663939
C   C24       1.0  0.23980  0.45650  0.17260  1.0000 -0.030663939
C   C25       1.0  0.50000  0.11160  0.00000  1.0000 0.6829363286
C   C26       1.0  0.50000  0.88840  0.50000  1.0000 0.6829363286
C   C27       1.0  0.88840  0.50000  0.25000  1.0000 0.6829363286
C   C28       1.0  0.11160  0.50000  0.75000  1.0000 0.6829363286
C   C29       1.0  0.50000  0.96430  0.00000  1.0000 -0.0393026014
C   C30       1.0  0.50000  0.03570  0.50000  1.0000 -0.0393026014
C   C31       1.0  0.03570  0.50000  0.25000  1.0000 -0.0393026014
C   C32       1.0  0.96430  0.50000  0.75000  1.0000 -0.0393026014
C   C33       1.0  0.50000  0.69190  0.00000  1.0000 -0.1068998769
C   C34       1.0  0.50000  0.30810  0.50000  1.0000 -0.1068998769
C   C35       1.0  0.30810  0.50000  0.25000  1.0000 -0.1068998769
C   C36       1.0  0.69190  0.50000  0.75000  1.0000 -0.1068998769
O   O1        1.0  0.57390  0.16600  0.05860  1.0000 -0.6961379916
O   O2        1.0  0.42610  0.83400  0.55860  1.0000 -0.6961379916
O   O3        1.0  0.83400  0.57390  0.30860  1.0000 -0.6961379916
O   O4        1.0  0.16600  0.42610  0.80860  1.0000 -0.6961379916
O   O5        1.0  0.42610  0.16600  0.94140  1.0000 -0.6961379916
O   O6        1.0  0.57390  0.83400  0.44140  1.0000 -0.6961379916
O   O7        1.0  0.16600  0.57390  0.69140  1.0000 -0.6961379916
O   O8        1.0  0.83400  0.42610  0.19140  1.0000 -0.6961379916
O   O9        1.0  0.61240  0.56620  0.14980  1.0000 -0.6720137418
O   O10       1.0  0.38760  0.43380  0.64980  1.0000 -0.6720137418
O   O11       1.0  0.43380  0.61240  0.39980  1.0000 -0.6720137418
O   O12       1.0  0.56620  0.38760  0.89980  1.0000 -0.6720137418
O   O13       1.0  0.38760  0.56620  0.85020  1.0000 -0.6720137418
O   O14       1.0  0.61240  0.43380  0.35020  1.0000 -0.6720137418
O   O15       1.0  0.56620  0.61240  0.60020  1.0000 -0.6720137418
O   O16       1.0  0.43380  0.38760  0.10020  1.0000 -0.6720137418
O   O17       1.0  0.59510  0.74020  0.23760  1.0000 -0.6720137418
O   O18       1.0  0.40490  0.25980  0.73760  1.0000 -0.6720137418
O   O19       1.0  0.25980  0.59510  0.48760  1.0000 -0.6720137418
O   O20       1.0  0.74020  0.40490  0.98760  1.0000 -0.6720137418
O   O21       1.0  0.40490  0.74020  0.76240  1.0000 -0.6720137418
O   O22       1.0  0.59510  0.25980  0.26240  1.0000 -0.6720137418
O   O23       1.0  0.74020  0.59510  0.51240  1.0000 -0.6720137418
O   O24       1.0  0.25980  0.40490  0.01240  1.0000 -0.6720137418
