# DDEC6 charges by PACMAN v1.1 (https://github.com/mtap-research/PACMAN-charge/)
data_2010[CuLa][nan]3[ASR]1
_chemical_formula_sum              "La2 Cu4 H40 C44 N8 O24"
_cell_length_a       10.949
_cell_length_b       13.371
_cell_length_c       14.453
_cell_angle_alpha    64.427
_cell_angle_beta     71.905
_cell_angle_gamma    74.327

_symmetry_space_group_name_H-M    "P 1"
_symmetry_Int_Tables_number       1

loop_
  _symmetry_equiv_pos_as_xyz
  'x, y, z'

loop_
  _atom_site_type_symbol
  _atom_site_label
  _atom_site_symmetry_multiplicity
  _atom_site_fract_x
  _atom_site_fract_y
  _atom_site_fract_z
  _atom_site_occupancy
  _atom_site_charge
La  La1       1.0  0.77644  0.17983  0.23157  1.0000 1.8523651644
La  La2       1.0  0.22356  0.82017  0.76843  1.0000 1.8523651644
Cu  Cu1       1.0  0.31872  0.39745  0.06274  1.0000 0.6786505266
Cu  Cu2       1.0  0.68128  0.60255  0.93726  1.0000 0.6786505266
Cu  Cu3       1.0  0.80963  0.87675  0.56144  1.0000 0.659534721
Cu  Cu4       1.0  0.19037  0.12325  0.43856  1.0000 0.659534721
H   H1        1.0  0.60510  0.35660  0.93920  1.0000 0.1413675882
H   H2        1.0  0.39490  0.64340  0.06080  1.0000 0.1413675882
H   H3        1.0  0.59380  0.24170  0.93980  1.0000 0.1413675882
H   H4        1.0  0.40620  0.75830  0.06020  1.0000 0.1413675882
H   H5        1.0  0.38590  0.18710  0.00370  1.0000 0.1313330649
H   H6        1.0  0.61410  0.81290  0.99630  1.0000 0.1313330649
H   H7        1.0  0.37910  0.25300  0.88510  1.0000 0.1313330649
H   H8        1.0  0.62090  0.74700  0.11490  1.0000 0.1313330649
H   H9        1.0  0.36290  0.43860  0.81030  1.0000 0.148611318
H   H10       1.0  0.63710  0.56140  0.18970  1.0000 0.148611318
H   H11       1.0  0.50860  0.44190  0.80050  1.0000 0.1413675882
H   H12       1.0  0.49140  0.55810  0.19950  1.0000 0.1413675882
H   H13       1.0  0.08690  0.55100  0.09000  1.0000 0.1194900258
H   H14       1.0  0.91310  0.44900  0.91000  1.0000 0.1194900258
H   H15       1.0  0.97070  0.64270  0.20080  1.0000 0.1313330649
H   H16       1.0  0.02930  0.35730  0.79920  1.0000 0.1313330649
H   H17       1.0  0.22120  0.46710  0.38850  1.0000 0.1194900258
H   H18       1.0  0.77880  0.53290  0.61150  1.0000 0.1194900258
H   H19       1.0  0.32780  0.37630  0.27550  1.0000 0.1115882157
H   H20       1.0  0.67220  0.62370  0.72450  1.0000 0.1115882157
H   H21       1.0  0.84350  0.09080  0.58310  1.0000 0.1413675882
H   H22       1.0  0.15650  0.90920  0.41690  1.0000 0.1413675882
H   H23       1.0  0.69740  0.14860  0.59320  1.0000 0.1413675882
H   H24       1.0  0.30260  0.85140  0.40680  1.0000 0.1413675882
H   H25       1.0  0.53920  0.06140  0.61520  1.0000 0.148611318
H   H26       1.0  0.46080  0.93860  0.38480  1.0000 0.148611318
H   H27       1.0  0.53700  0.97240  0.73000  1.0000 0.148611318
H   H28       1.0  0.46300  0.02760  0.27000  1.0000 0.148611318
H   H29       1.0  0.72250  0.86810  0.78730  1.0000 0.1413675882
H   H30       1.0  0.27750  0.13190  0.21270  1.0000 0.1413675882
H   H31       1.0  0.75820  0.98390  0.76510  1.0000 0.1413675882
H   H32       1.0  0.24180  0.01610  0.23490  1.0000 0.1413675882
H   H33       1.0  0.05050  0.70820  0.55000  1.0000 0.1115882157
H   H34       1.0  0.94950  0.29180  0.45000  1.0000 0.1115882157
H   H35       1.0  0.15200  0.59180  0.45890  1.0000 0.1313330649
H   H36       1.0  0.84800  0.40820  0.54110  1.0000 0.1313330649
H   H37       1.0  0.85370  0.69940  0.31760  1.0000 0.1313330649
H   H38       1.0  0.14630  0.30060  0.68240  1.0000 0.1313330649
H   H39       1.0  0.76080  0.81400  0.41010  1.0000 0.1115882157
H   H40       1.0  0.23920  0.18600  0.58990  1.0000 0.1115882157
C   C1        1.0  0.55190  0.29770  0.97040  1.0000 -0.3068919496
C   C2        1.0  0.44810  0.70230  0.02960  1.0000 -0.3068919496
C   C3        1.0  0.54180  0.24410  0.08840  1.0000 0.6145937129
C   C4        1.0  0.45820  0.75590  0.91160  1.0000 0.6201937084
C   C5        1.0  0.35610  0.25920  0.95310  1.0000 -0.3068919496
C   C6        1.0  0.64390  0.74080  0.04690  1.0000 -0.3068919496
C   C7        1.0  0.20930  0.28750  0.98560  1.0000 0.6021070266
C   C8        1.0  0.79070  0.71250  0.01440  1.0000 0.6021070266
C   C9        1.0  0.42200  0.44370  0.84550  1.0000 -0.3034832692
C   C10       1.0  0.57800  0.55630  0.15450  1.0000 -0.3034832692
C   C11       1.0  0.38180  0.55320  0.86080  1.0000 0.6021070266
C   C12       1.0  0.61820  0.44680  0.13920  1.0000 0.6021070266
C   C13       1.0  0.11360  0.53390  0.15100  1.0000 0.0972520991
C   C14       1.0  0.88640  0.46610  0.84900  1.0000 0.0972520991
C   C15       1.0  0.04450  0.59030  0.21660  1.0000 -0.185858959
C   C16       1.0  0.95550  0.40970  0.78340  1.0000 -0.185858959
C   C17       1.0  0.08570  0.56870  0.30640  1.0000 0.0892459883
C   C18       1.0  0.91430  0.43130  0.69360  1.0000 0.0892459883
C   C19       1.0  0.19240  0.48590  0.32800  1.0000 -0.2092781232
C   C20       1.0  0.80760  0.51410  0.67200  1.0000 -0.2092781232
C   C21       1.0  0.25600  0.43140  0.25990  1.0000 0.067823062
C   C22       1.0  0.74400  0.56860  0.74010  1.0000 0.067823062
C   C23       1.0  0.76020  0.09130  0.57220  1.0000 -0.2896682934
C   C24       1.0  0.23980  0.90870  0.42780  1.0000 -0.2896682934
C   C25       1.0  0.77240  0.11930  0.45640  1.0000 0.6021070266
C   C26       1.0  0.22760  0.88070  0.54360  1.0000 0.6021070266
C   C27       1.0  0.57620  0.98630  0.65630  1.0000 -0.3034832692
C   C28       1.0  0.42380  0.01370  0.34370  1.0000 -0.3034832692
C   C29       1.0  0.54270  0.90290  0.62750  1.0000 0.6298533364
C   C30       1.0  0.45730  0.09710  0.37250  1.0000 0.6298533364
C   C31       1.0  0.76960  0.92840  0.73540  1.0000 -0.3034832692
C   C32       1.0  0.23040  0.07160  0.26460  1.0000 -0.3034832692
C   C33       1.0  0.91370  0.88260  0.70730  1.0000 0.6201937084
C   C34       1.0  0.08630  0.11740  0.29270  1.0000 0.6201937084
C   C35       1.0  0.01140  0.70740  0.50170  1.0000 0.0824808164
C   C36       1.0  0.98860  0.29260  0.49830  1.0000 0.0824808164
C   C37       1.0  0.07330  0.63760  0.44660  1.0000 -0.2092781232
C   C38       1.0  0.92670  0.36240  0.55340  1.0000 -0.2092781232
C   C39       1.0  0.01760  0.63630  0.37310  1.0000 0.0972520991
C   C40       1.0  0.98240  0.36370  0.62690  1.0000 0.0972520991
C   C41       1.0  0.89690  0.70140  0.36280  1.0000 -0.1995856629
C   C42       1.0  0.10310  0.29860  0.63720  1.0000 -0.1995856629
C   C43       1.0  0.84080  0.76930  0.41940  1.0000 0.067823062
C   C44       1.0  0.15920  0.23070  0.58060  1.0000 0.067823062
N   N1        1.0  0.42210  0.34550  0.94650  1.0000 -0.0037686561
N   N2        1.0  0.57790  0.65450  0.05350  1.0000 -0.0037686561
N   N3        1.0  0.21800  0.45510  0.17240  1.0000 -0.230320336
N   N4        1.0  0.78200  0.54490  0.82760  1.0000 -0.230320336
N   N5        1.0  0.71850  0.98060  0.63800  1.0000 -0.0071534584
N   N6        1.0  0.28150  0.01940  0.36200  1.0000 -0.0071534584
N   N7        1.0  0.89760  0.77320  0.48760  1.0000 -0.230320336
N   N8        1.0  0.10240  0.22680  0.51240  1.0000 -0.230320336
O   O1        1.0  0.63830  0.18140  0.12090  1.0000 -0.610211821
O   O2        1.0  0.36170  0.81860  0.87910  1.0000 -0.610211821
O   O3        1.0  0.43360  0.26900  0.14680  1.0000 -0.550070496
O   O4        1.0  0.56640  0.73100  0.85320  1.0000 -0.550070496
O   O5        1.0  0.14270  0.24740  0.95830  1.0000 -0.5806847305
O   O6        1.0  0.85730  0.75260  0.04170  1.0000 -0.5806847305
O   O7        1.0  0.16430  0.34650  0.04130  1.0000 -0.5806847305
O   O8        1.0  0.83570  0.65350  0.95870  1.0000 -0.5806847305
O   O9        1.0  0.38500  0.64140  0.78000  1.0000 -0.5873083786
O   O10       1.0  0.61500  0.35860  0.22000  1.0000 -0.5873083786
O   O11       1.0  0.34410  0.55070  0.95330  1.0000 -0.5649302916
O   O12       1.0  0.65590  0.44930  0.04670  1.0000 -0.5649302916
O   O13       1.0  0.75250  0.21990  0.39620  1.0000 -0.5806847305
O   O14       1.0  0.24750  0.78010  0.60380  1.0000 -0.5806847305
O   O15       1.0  0.80400  0.03920  0.42550  1.0000 -0.610211821
O   O16       1.0  0.19600  0.96080  0.57450  1.0000 -0.610211821
O   O17       1.0  0.42640  0.89480  0.64660  1.0000 -0.5806847305
O   O18       1.0  0.57360  0.10520  0.35340  1.0000 -0.5806847305
O   O19       1.0  0.63490  0.84750  0.58170  1.0000 -0.5367867665
O   O20       1.0  0.36510  0.15250  0.41830  1.0000 -0.5367867665
O   O21       1.0  0.98500  0.87620  0.76230  1.0000 -0.610211821
O   O22       1.0  0.01500  0.12380  0.23770  1.0000 -0.610211821
O   O23       1.0  0.95040  0.85270  0.62970  1.0000 -0.550070496
O   O24       1.0  0.04960  0.14730  0.37030  1.0000 -0.550070496
