# DDEC6 charges by PACMAN v1.1 (https://github.com/mtap-research/PACMAN-charge/)
data_2010[Tb][llj]3[ASR]1
_chemical_formula_sum              "Tb8 H40 C56 S8 O48"
_cell_length_a       17.1205
_cell_length_b       17.1205
_cell_length_c       8.4672
_cell_angle_alpha    90
_cell_angle_beta     90
_cell_angle_gamma    90

_symmetry_space_group_name_H-M    "P 1"
_symmetry_Int_Tables_number       1

loop_
  _symmetry_equiv_pos_as_xyz
  'x, y, z'

loop_
  _atom_site_type_symbol
  _atom_site_label
  _atom_site_symmetry_multiplicity
  _atom_site_fract_x
  _atom_site_fract_y
  _atom_site_fract_z
  _atom_site_occupancy
  _atom_site_charge
Tb  Tb1       1.0  0.03733  0.10982  0.85020  1.0000 2.1944280634
Tb  Tb2       1.0  0.96267  0.89018  0.85020  1.0000 2.1944280634
Tb  Tb3       1.0  0.89018  0.03733  0.14980  1.0000 2.1944280634
Tb  Tb4       1.0  0.10982  0.96267  0.14980  1.0000 2.1944280634
Tb  Tb5       1.0  0.53733  0.39018  0.64980  1.0000 2.1944280634
Tb  Tb6       1.0  0.46267  0.60982  0.64980  1.0000 2.1944280634
Tb  Tb7       1.0  0.39018  0.46267  0.35020  1.0000 2.1944280634
Tb  Tb8       1.0  0.60982  0.53733  0.35020  1.0000 2.1944280634
H   H1        1.0  0.26400  0.25130  0.94690  1.0000 0.1334087005
H   H2        1.0  0.73600  0.74870  0.94690  1.0000 0.1334087005
H   H3        1.0  0.74870  0.26400  0.05310  1.0000 0.1334087005
H   H4        1.0  0.25130  0.73600  0.05310  1.0000 0.1334087005
H   H5        1.0  0.76400  0.24870  0.55310  1.0000 0.1334087005
H   H6        1.0  0.23600  0.75130  0.55310  1.0000 0.1334087005
H   H7        1.0  0.24870  0.23600  0.44690  1.0000 0.1334087005
H   H8        1.0  0.75130  0.76400  0.44690  1.0000 0.1334087005
H   H9        1.0  0.33510  0.05860  0.17210  1.0000 0.1184212495
H   H10       1.0  0.66490  0.94140  0.17210  1.0000 0.1184212495
H   H11       1.0  0.94140  0.33510  0.82790  1.0000 0.1184212495
H   H12       1.0  0.05860  0.66490  0.82790  1.0000 0.1184212495
H   H13       1.0  0.83510  0.44140  0.32790  1.0000 0.1184212495
H   H14       1.0  0.16490  0.55860  0.32790  1.0000 0.1184212495
H   H15       1.0  0.44140  0.16490  0.67210  1.0000 0.1184212495
H   H16       1.0  0.55860  0.83510  0.67210  1.0000 0.1184212495
H   H17       1.0  0.45120  0.12020  0.23720  1.0000 0.1184212495
H   H18       1.0  0.54880  0.87980  0.23720  1.0000 0.1184212495
H   H19       1.0  0.87980  0.45120  0.76280  1.0000 0.1184212495
H   H20       1.0  0.12020  0.54880  0.76280  1.0000 0.1184212495
H   H21       1.0  0.95120  0.37980  0.26280  1.0000 0.1184212495
H   H22       1.0  0.04880  0.62020  0.26280  1.0000 0.1184212495
H   H23       1.0  0.37980  0.04880  0.73720  1.0000 0.1184212495
H   H24       1.0  0.62020  0.95120  0.73720  1.0000 0.1184212495
H   H25       1.0  0.47650  0.24340  0.14460  1.0000 0.1371727059
H   H26       1.0  0.52350  0.75660  0.14460  1.0000 0.1371727059
H   H27       1.0  0.75660  0.47650  0.85540  1.0000 0.1371727059
H   H28       1.0  0.24340  0.52350  0.85540  1.0000 0.1371727059
H   H29       1.0  0.97650  0.25660  0.35540  1.0000 0.1371727059
H   H30       1.0  0.02350  0.74340  0.35540  1.0000 0.1371727059
H   H31       1.0  0.25660  0.02350  0.64460  1.0000 0.1371727059
H   H32       1.0  0.74340  0.97650  0.64460  1.0000 0.1371727059
H   H33       1.0  0.90400  0.03400  0.78000  1.0000 0.4101458746
H   H34       1.0  0.09600  0.96600  0.78000  1.0000 0.4101458746
H   H35       1.0  0.96600  0.90400  0.22000  1.0000 0.4101458746
H   H36       1.0  0.03400  0.09600  0.22000  1.0000 0.4101458746
H   H37       1.0  0.40400  0.46600  0.72000  1.0000 0.4101458746
H   H38       1.0  0.59600  0.53400  0.72000  1.0000 0.4101458746
H   H39       1.0  0.46600  0.59600  0.28000  1.0000 0.4101458746
H   H40       1.0  0.53400  0.40400  0.28000  1.0000 0.4101458746
C   C1        1.0  0.37300  0.25880  0.03770  1.0000 -0.0996360815
C   C2        1.0  0.62700  0.74120  0.03770  1.0000 -0.0996360815
C   C3        1.0  0.74120  0.37300  0.96230  1.0000 -0.0996360815
C   C4        1.0  0.25880  0.62700  0.96230  1.0000 -0.0996360815
C   C5        1.0  0.87300  0.24120  0.46230  1.0000 -0.0996360815
C   C6        1.0  0.12700  0.75880  0.46230  1.0000 -0.0996360815
C   C7        1.0  0.24120  0.12700  0.53770  1.0000 -0.0996360815
C   C8        1.0  0.75880  0.87300  0.53770  1.0000 -0.0996360815
C   C9        1.0  0.30200  0.22370  0.00210  1.0000 -0.0996360815
C   C10       1.0  0.69800  0.77630  0.00210  1.0000 -0.0996360815
C   C11       1.0  0.77630  0.30200  0.99790  1.0000 -0.0996360815
C   C12       1.0  0.22370  0.69800  0.99790  1.0000 -0.0996360815
C   C13       1.0  0.80200  0.27630  0.49790  1.0000 -0.0996360815
C   C14       1.0  0.19800  0.72370  0.49790  1.0000 -0.0996360815
C   C15       1.0  0.27630  0.19800  0.50210  1.0000 -0.0996360815
C   C16       1.0  0.72370  0.80200  0.50210  1.0000 -0.0996360815
C   C17       1.0  0.28820  0.14740  0.04930  1.0000 -0.0405009645
C   C18       1.0  0.71180  0.85260  0.04930  1.0000 -0.0405009645
C   C19       1.0  0.85260  0.28820  0.95070  1.0000 -0.0405009645
C   C20       1.0  0.14740  0.71180  0.95070  1.0000 -0.0405009645
C   C21       1.0  0.78820  0.35260  0.45070  1.0000 -0.0405009645
C   C22       1.0  0.21180  0.64740  0.45070  1.0000 -0.0405009645
C   C23       1.0  0.35260  0.21180  0.54930  1.0000 -0.0405009645
C   C24       1.0  0.64740  0.78820  0.54930  1.0000 -0.0405009645
C   C25       1.0  0.21360  0.10790  0.00810  1.0000 0.631879657
C   C26       1.0  0.78640  0.89210  0.00810  1.0000 0.631879657
C   C27       1.0  0.89210  0.21360  0.99190  1.0000 0.631879657
C   C28       1.0  0.10790  0.78640  0.99190  1.0000 0.631879657
C   C29       1.0  0.71360  0.39210  0.49190  1.0000 0.631879657
C   C30       1.0  0.28640  0.60790  0.49190  1.0000 0.631879657
C   C31       1.0  0.39210  0.28640  0.50810  1.0000 0.631879657
C   C32       1.0  0.60790  0.71360  0.50810  1.0000 0.631879657
C   C33       1.0  0.34430  0.10940  0.13760  1.0000 -0.0866083955
C   C34       1.0  0.65570  0.89060  0.13760  1.0000 -0.0866083955
C   C35       1.0  0.89060  0.34430  0.86240  1.0000 -0.0866083955
C   C36       1.0  0.10940  0.65570  0.86240  1.0000 -0.0866083955
C   C37       1.0  0.84430  0.39060  0.36240  1.0000 -0.0866083955
C   C38       1.0  0.15570  0.60940  0.36240  1.0000 -0.0866083955
C   C39       1.0  0.39060  0.15570  0.63760  1.0000 -0.0866083955
C   C40       1.0  0.60940  0.84430  0.63760  1.0000 -0.0866083955
C   C41       1.0  0.41430  0.14600  0.17570  1.0000 -0.0996360815
C   C42       1.0  0.58570  0.85400  0.17570  1.0000 -0.0996360815
C   C43       1.0  0.85400  0.41430  0.82430  1.0000 -0.0996360815
C   C44       1.0  0.14600  0.58570  0.82430  1.0000 -0.0996360815
C   C45       1.0  0.91430  0.35400  0.32430  1.0000 -0.0996360815
C   C46       1.0  0.08570  0.64600  0.32430  1.0000 -0.0996360815
C   C47       1.0  0.35400  0.08570  0.67570  1.0000 -0.0996360815
C   C48       1.0  0.64600  0.91430  0.67570  1.0000 -0.0996360815
C   C49       1.0  0.42890  0.21960  0.12300  1.0000 -0.0825321195
C   C50       1.0  0.57110  0.78040  0.12300  1.0000 -0.0825321195
C   C51       1.0  0.78040  0.42890  0.87700  1.0000 -0.0825321195
C   C52       1.0  0.21960  0.57110  0.87700  1.0000 -0.0825321195
C   C53       1.0  0.92890  0.28040  0.37700  1.0000 -0.0825321195
C   C54       1.0  0.07110  0.71960  0.37700  1.0000 -0.0825321195
C   C55       1.0  0.28040  0.07110  0.62300  1.0000 -0.0825321195
C   C56       1.0  0.71960  0.92890  0.62300  1.0000 -0.0825321195
S   S1        1.0  0.39234  0.35614  0.97636  1.0000 1.2637350778
S   S2        1.0  0.60766  0.64386  0.97636  1.0000 1.2637350778
S   S3        1.0  0.64386  0.39234  0.02364  1.0000 1.2637350778
S   S4        1.0  0.35614  0.60766  0.02364  1.0000 1.2637350778
S   S5        1.0  0.89234  0.14386  0.52364  1.0000 1.2637350778
S   S6        1.0  0.10766  0.85614  0.52364  1.0000 1.2637350778
S   S7        1.0  0.14386  0.10766  0.47636  1.0000 1.2637350778
S   S8        1.0  0.85614  0.89234  0.47636  1.0000 1.2637350778
O   O1        1.0  0.45060  0.34910  0.85300  1.0000 -0.705905371
O   O2        1.0  0.54940  0.65090  0.85300  1.0000 -0.705905371
O   O3        1.0  0.65090  0.45060  0.14700  1.0000 -0.705905371
O   O4        1.0  0.34910  0.54940  0.14700  1.0000 -0.705905371
O   O5        1.0  0.95060  0.15090  0.64700  1.0000 -0.705905371
O   O6        1.0  0.04940  0.84910  0.64700  1.0000 -0.705905371
O   O7        1.0  0.15090  0.04940  0.35300  1.0000 -0.705905371
O   O8        1.0  0.84910  0.95060  0.35300  1.0000 -0.705905371
O   O9        1.0  0.42470  0.39520  0.11570  1.0000 -0.7165952852
O   O10       1.0  0.57530  0.60480  0.11570  1.0000 -0.7165952852
O   O11       1.0  0.60480  0.42470  0.88430  1.0000 -0.7165952852
O   O12       1.0  0.39520  0.57530  0.88430  1.0000 -0.7165952852
O   O13       1.0  0.92470  0.10480  0.38430  1.0000 -0.7165952852
O   O14       1.0  0.07530  0.89520  0.38430  1.0000 -0.7165952852
O   O15       1.0  0.10480  0.07530  0.61570  1.0000 -0.7165952852
O   O16       1.0  0.89520  0.92470  0.61570  1.0000 -0.7165952852
O   O17       1.0  0.32050  0.39040  0.91810  1.0000 -0.5790960347
O   O18       1.0  0.67950  0.60960  0.91810  1.0000 -0.5790960347
O   O19       1.0  0.60960  0.32050  0.08190  1.0000 -0.5790960347
O   O20       1.0  0.39040  0.67950  0.08190  1.0000 -0.5790960347
O   O21       1.0  0.82050  0.10960  0.58190  1.0000 -0.5790960347
O   O22       1.0  0.17950  0.89040  0.58190  1.0000 -0.5790960347
O   O23       1.0  0.10960  0.17950  0.41810  1.0000 -0.5790960347
O   O24       1.0  0.89040  0.82050  0.41810  1.0000 -0.5790960347
O   O25       1.0  0.15870  0.14820  0.95620  1.0000 -0.6442622473
O   O26       1.0  0.84130  0.85180  0.95620  1.0000 -0.6453374078
O   O27       1.0  0.85180  0.15870  0.04380  1.0000 -0.6442622473
O   O28       1.0  0.14820  0.84130  0.04380  1.0000 -0.6442622473
O   O29       1.0  0.65870  0.35180  0.54380  1.0000 -0.6453374078
O   O30       1.0  0.34130  0.64820  0.54380  1.0000 -0.6453374078
O   O31       1.0  0.35180  0.34130  0.45620  1.0000 -0.6453374078
O   O32       1.0  0.64820  0.65870  0.45620  1.0000 -0.6453374078
O   O33       1.0  0.21080  0.03390  0.03070  1.0000 -0.6867454728
O   O34       1.0  0.78920  0.96610  0.03070  1.0000 -0.6867454728
O   O35       1.0  0.96610  0.21080  0.96930  1.0000 -0.6867454728
O   O36       1.0  0.03390  0.78920  0.96930  1.0000 -0.6867454728
O   O37       1.0  0.71080  0.46610  0.46930  1.0000 -0.6867454728
O   O38       1.0  0.28920  0.53390  0.46930  1.0000 -0.6867454728
O   O39       1.0  0.46610  0.28920  0.53070  1.0000 -0.6867454728
O   O40       1.0  0.53390  0.71080  0.53070  1.0000 -0.6867454728
O   O41       1.0  0.92750  0.02590  0.87920  1.0000 -1.165786468
O   O42       1.0  0.07250  0.97410  0.87920  1.0000 -1.165786468
O   O43       1.0  0.97410  0.92750  0.12080  1.0000 -1.165786468
O   O44       1.0  0.02590  0.07250  0.12080  1.0000 -1.165786468
O   O45       1.0  0.42750  0.47410  0.62080  1.0000 -1.165786468
O   O46       1.0  0.57250  0.52590  0.62080  1.0000 -1.165786468
O   O47       1.0  0.47410  0.57250  0.37920  1.0000 -1.165786468
O   O48       1.0  0.52590  0.42750  0.37920  1.0000 -1.165786468
