# DDEC6 charges by PACMAN v1.1 (https://github.com/mtap-research/PACMAN-charge/)
data_2010[Al][bpq]3[ASR]2
_chemical_formula_sum              "Al4 H20 C32 O20"
_cell_length_a       6.672
_cell_length_b       16.936
_cell_length_c       12.807
_cell_angle_alpha    90
_cell_angle_beta     90
_cell_angle_gamma    90

_symmetry_space_group_name_H-M    "P 1"
_symmetry_Int_Tables_number       1

loop_
  _symmetry_equiv_pos_as_xyz
  'x, y, z'

loop_
  _atom_site_type_symbol
  _atom_site_label
  _atom_site_symmetry_multiplicity
  _atom_site_fract_x
  _atom_site_fract_y
  _atom_site_fract_z
  _atom_site_occupancy
  _atom_site_charge
Al  Al1       1.0  0.25350  0.75232  0.25059  1.0000 1.6160586102
Al  Al2       1.0  0.75348  0.75233  0.25064  1.0000 1.6160586102
Al  Al3       1.0  0.75360  0.25233  0.75058  1.0000 1.6160586102
Al  Al4       1.0  0.25360  0.25233  0.75064  1.0000 1.6160586102
H   H1        1.0  0.68092  0.94214  0.05367  1.0000 0.1093518542
H   H2        1.0  0.18097  0.44186  0.55321  1.0000 0.1093518542
H   H3        1.0  0.32593  0.56241  0.05397  1.0000 0.1093518542
H   H4        1.0  0.82596  0.06227  0.55413  1.0000 0.1093518542
H   H5        1.0  0.32596  0.44203  0.94777  1.0000 0.1093518542
H   H6        1.0  0.82593  0.94189  0.44793  1.0000 0.1093518542
H   H7        1.0  0.68096  0.06251  0.94744  1.0000 0.1093518542
H   H8        1.0  0.18093  0.56226  0.44704  1.0000 0.1093518542
H   H9        1.0  0.32601  0.06238  0.94724  1.0000 0.1093518542
H   H10       1.0  0.82597  0.56237  0.44721  1.0000 0.1093518542
H   H11       1.0  0.68092  0.44201  0.94772  1.0000 0.1093518542
H   H12       1.0  0.18089  0.94188  0.44801  1.0000 0.1093518542
H   H13       1.0  0.68089  0.56239  0.05393  1.0000 0.1093518542
H   H14       1.0  0.18092  0.06226  0.55422  1.0000 0.1093518542
H   H15       1.0  0.32596  0.94201  0.05347  1.0000 0.1093518542
H   H16       1.0  0.82600  0.44198  0.55338  1.0000 0.1093518542
H   H17       1.0  0.50364  0.25253  0.87402  1.0000 0.4498005732
H   H18       1.0  0.00364  0.25243  0.62719  1.0000 0.4498005732
H   H19       1.0  0.00351  0.75239  0.37402  1.0000 0.4498005732
H   H20       1.0  0.50351  0.75249  0.12718  1.0000 0.4498005732
C   C1        1.0  0.82311  0.96743  0.03091  1.0000 -0.0941190264
C   C2        1.0  0.32314  0.46722  0.53056  1.0000 -0.0941190264
C   C3        1.0  0.18376  0.53711  0.03118  1.0000 -0.0941190264
C   C4        1.0  0.68378  0.03698  0.53137  1.0000 -0.0941190264
C   C5        1.0  0.18378  0.46735  0.97046  1.0000 -0.0941190264
C   C6        1.0  0.68376  0.96721  0.47065  1.0000 -0.0941190264
C   C7        1.0  0.82313  0.03719  0.97017  1.0000 -0.0941190264
C   C8        1.0  0.32311  0.53699  0.46985  1.0000 -0.0941190264
C   C9        1.0  0.18383  0.03712  0.97006  1.0000 -0.0941190264
C   C10       1.0  0.68381  0.53705  0.46994  1.0000 -0.0941190264
C   C11       1.0  0.82309  0.46734  0.97044  1.0000 -0.0941190264
C   C12       1.0  0.32307  0.96721  0.47070  1.0000 -0.0941190264
C   C13       1.0  0.82307  0.53710  0.03116  1.0000 -0.0941190264
C   C14       1.0  0.32309  0.03697  0.53142  1.0000 -0.0941190264
C   C15       1.0  0.18380  0.96736  0.03080  1.0000 -0.0941190264
C   C16       1.0  0.68383  0.46728  0.53065  1.0000 -0.0941190264
C   C17       1.0  0.00345  0.93095  0.06246  1.0000 -0.0296933987
C   C18       1.0  0.00344  0.85815  0.13181  1.0000 0.661589764
C   C19       1.0  0.50349  0.43080  0.56221  1.0000 -0.0296933987
C   C20       1.0  0.50351  0.35804  0.63162  1.0000 0.661589764
C   C21       1.0  0.00340  0.57361  0.06268  1.0000 -0.0296933987
C   C22       1.0  0.00339  0.64648  0.13186  1.0000 0.661589764
C   C23       1.0  0.50345  0.07348  0.56288  1.0000 -0.0296933987
C   C24       1.0  0.50348  0.14639  0.63199  1.0000 0.661589764
C   C25       1.0  0.00345  0.43090  0.93884  1.0000 -0.0296933987
C   C26       1.0  0.00348  0.35812  0.86948  1.0000 0.661589764
C   C27       1.0  0.50340  0.93077  0.43905  1.0000 -0.0296933987
C   C28       1.0  0.50339  0.85803  0.36962  1.0000 0.661589764
C   C29       1.0  0.00349  0.07364  0.93860  1.0000 -0.0296933987
C   C30       1.0  0.00351  0.14650  0.86938  1.0000 0.661589764
C   C31       1.0  0.50345  0.57353  0.43842  1.0000 -0.0296933987
C   C32       1.0  0.50344  0.64643  0.36929  1.0000 0.661589764
O   O1        1.0  0.17409  0.82909  0.16125  1.0000 -0.6096827091
O   O2        1.0  0.67417  0.32902  0.66113  1.0000 -0.6096827091
O   O3        1.0  0.83273  0.67555  0.16129  1.0000 -0.6096827091
O   O4        1.0  0.33284  0.17548  0.66140  1.0000 -0.6096827091
O   O5        1.0  0.83284  0.32909  0.83997  1.0000 -0.6096827091
O   O6        1.0  0.33275  0.82901  0.34008  1.0000 -0.6096827091
O   O7        1.0  0.17418  0.17556  0.83997  1.0000 -0.6096827091
O   O8        1.0  0.67410  0.67553  0.33993  1.0000 -0.6096827091
O   O9        1.0  0.83285  0.17556  0.83993  1.0000 -0.6096827091
O   O10       1.0  0.33278  0.67549  0.33985  1.0000 -0.6096827091
O   O11       1.0  0.17415  0.32909  0.84000  1.0000 -0.6096827091
O   O12       1.0  0.67405  0.82902  0.34009  1.0000 -0.6096827091
O   O13       1.0  0.17406  0.67554  0.16127  1.0000 -0.6096827091
O   O14       1.0  0.67416  0.17548  0.66136  1.0000 -0.6096827091
O   O15       1.0  0.83279  0.82913  0.16133  1.0000 -0.6096827091
O   O16       1.0  0.33286  0.32903  0.66116  1.0000 -0.6096827091
O   O17       1.0  0.00350  0.75236  0.30670  1.0000 -0.9518523888
O   O18       1.0  0.50362  0.25242  0.80671  1.0000 -0.9518523888
O   O19       1.0  0.00362  0.25238  0.69450  1.0000 -0.9518523888
O   O20       1.0  0.50350  0.75240  0.19450  1.0000 -0.9518523888
