# DDEC6 charges by PACMAN v1.1 (https://github.com/mtap-research/PACMAN-charge/)
data_2010[Mn][nan]3[ASR]1
_chemical_formula_sum              "Mn6 H36 C72 O24"
_cell_length_a       12.283
_cell_length_b       13.386
_cell_length_c       13.931
_cell_angle_alpha    102.14
_cell_angle_beta     101.47
_cell_angle_gamma    95.13

_symmetry_space_group_name_H-M    "P 1"
_symmetry_Int_Tables_number       1

loop_
  _symmetry_equiv_pos_as_xyz
  'x, y, z'

loop_
  _atom_site_type_symbol
  _atom_site_label
  _atom_site_symmetry_multiplicity
  _atom_site_fract_x
  _atom_site_fract_y
  _atom_site_fract_z
  _atom_site_occupancy
  _atom_site_charge
Mn  Mn1       1.0  0.00000  0.00000  0.00000  1.0000 1.1016823466
Mn  Mn2       1.0  0.89857  0.88341  0.75075  1.0000 1.0134218152
Mn  Mn3       1.0  0.10143  0.11659  0.24925  1.0000 1.0134218152
Mn  Mn4       1.0  0.08690  0.75711  0.60780  1.0000 1.0134218152
Mn  Mn5       1.0  0.91310  0.24289  0.39220  1.0000 1.0134218152
Mn  Mn6       1.0  0.00000  0.50000  0.50000  1.0000 1.1016823466
H   H1        1.0  0.52150  0.91010  0.76600  1.0000 0.1269076097
H   H2        1.0  0.47850  0.08990  0.23400  1.0000 0.1269076097
H   H3        1.0  0.73990  0.12810  0.98260  1.0000 0.1200129874
H   H4        1.0  0.26010  0.87190  0.01740  1.0000 0.1200129874
H   H5        1.0  0.59340  0.20480  0.03320  1.0000 0.1200129874
H   H6        1.0  0.40660  0.79520  0.96680  1.0000 0.1200129874
H   H7        1.0  0.38630  0.20410  0.01940  1.0000 0.1200129874
H   H8        1.0  0.61370  0.79590  0.98060  1.0000 0.1200129874
H   H9        1.0  0.20510  0.12490  0.94890  1.0000 0.1269076097
H   H10       1.0  0.79490  0.87510  0.05110  1.0000 0.1269076097
H   H11       1.0  0.31510  0.90800  0.75340  1.0000 0.1356760453
H   H12       1.0  0.68490  0.09200  0.24660  1.0000 0.1356760453
H   H13       1.0  0.97380  0.69440  0.08750  1.0000 0.1269076097
H   H14       1.0  0.02620  0.30560  0.91250  1.0000 0.1269076097
H   H15       1.0  0.79700  0.60000  0.79880  1.0000 0.1200129874
H   H16       1.0  0.20300  0.40000  0.20120  1.0000 0.1200129874
H   H17       1.0  0.72730  0.44750  0.82870  1.0000 0.1200129874
H   H18       1.0  0.27270  0.55250  0.17130  1.0000 0.1200129874
H   H19       1.0  0.72030  0.32850  0.94630  1.0000 0.1200129874
H   H20       1.0  0.27970  0.67150  0.05370  1.0000 0.1200129874
H   H21       1.0  0.78120  0.29550  0.10280  1.0000 0.1200129874
H   H22       1.0  0.21880  0.70450  0.89720  1.0000 0.1200129874
H   H23       1.0  0.96940  0.57580  0.20340  1.0000 0.1269076097
H   H24       1.0  0.03060  0.42420  0.79660  1.0000 0.1269076097
H   H25       1.0  0.66240  0.75140  0.58380  1.0000 0.1356760453
H   H26       1.0  0.33760  0.24860  0.41620  1.0000 0.1356760453
H   H27       1.0  0.77490  0.54590  0.38010  1.0000 0.1269076097
H   H28       1.0  0.22510  0.45410  0.61990  1.0000 0.1269076097
H   H29       1.0  0.59280  0.47200  0.30110  1.0000 0.1200129874
H   H30       1.0  0.40720  0.52800  0.69890  1.0000 0.1200129874
H   H31       1.0  0.38770  0.45650  0.30060  1.0000 0.1200129874
H   H32       1.0  0.61230  0.54350  0.69940  1.0000 0.1200129874
H   H33       1.0  0.24270  0.51140  0.37160  1.0000 0.1200129874
H   H34       1.0  0.75730  0.48860  0.62840  1.0000 0.1200129874
H   H35       1.0  0.45700  0.74160  0.57770  1.0000 0.1269076097
H   H36       1.0  0.54300  0.25840  0.42230  1.0000 0.1269076097
C   C1        1.0  0.53508  0.96861  0.82108  1.0000 -0.1560624276
C   C2        1.0  0.46492  0.03139  0.17892  1.0000 -0.1560624276
C   C3        1.0  0.64379  0.01031  0.86905  1.0000 -0.0197421926
C   C4        1.0  0.35621  0.98969  0.13095  1.0000 -0.0197421926
C   C5        1.0  0.66479  0.09941  0.94967  1.0000 -0.1076717827
C   C6        1.0  0.33521  0.90059  0.05033  1.0000 -0.1076717827
C   C7        1.0  0.57800  0.14429  0.98024  1.0000 -0.1560624276
C   C8        1.0  0.42200  0.85571  0.01976  1.0000 -0.1560624276
C   C9        1.0  0.37292  0.14314  0.96707  1.0000 -0.1489813684
C   C10       1.0  0.62708  0.85686  0.03293  1.0000 -0.1489813684
C   C11       1.0  0.26565  0.09679  0.92491  1.0000 -0.1076717827
C   C12       1.0  0.73435  0.90321  0.07509  1.0000 -0.1076717827
C   C13       1.0  0.24395  0.00681  0.84549  1.0000 -0.0302466933
C   C14       1.0  0.75605  0.99319  0.15451  1.0000 -0.0302466933
C   C15       1.0  0.33063  0.96648  0.80867  1.0000 -0.1489813684
C   C16       1.0  0.66937  0.03352  0.19133  1.0000 -0.1489813684
C   C17       1.0  0.44292  0.01172  0.85272  1.0000 0.0724920758
C   C18       1.0  0.55708  0.98828  0.14728  1.0000 0.0724920758
C   C19       1.0  0.46491  0.10148  0.93373  1.0000 0.0882782827
C   C20       1.0  0.53509  0.89852  0.06627  1.0000 0.0882782827
C   C21       1.0  0.74006  0.96095  0.83818  1.0000 0.5741048868
C   C22       1.0  0.25994  0.03905  0.16182  1.0000 0.5741048868
C   C23       1.0  0.12664  0.95562  0.80338  1.0000 0.6139449145
C   C24       1.0  0.87336  0.04438  0.19662  1.0000 0.6139449145
C   C25       1.0  0.92510  0.64337  0.03498  1.0000 -0.1560624276
C   C26       1.0  0.07490  0.35663  0.96502  1.0000 -0.1560624276
C   C27       1.0  0.89260  0.66287  0.94164  1.0000 -0.0197421926
C   C28       1.0  0.10740  0.33713  0.05836  1.0000 -0.0197421926
C   C29       1.0  0.81870  0.58710  0.86390  1.0000 -0.1076717827
C   C30       1.0  0.18130  0.41290  0.13610  1.0000 -0.1076717827
C   C31       1.0  0.77850  0.49640  0.88130  1.0000 -0.1489813684
C   C32       1.0  0.22150  0.50360  0.11870  1.0000 -0.1489813684
C   C33       1.0  0.77170  0.37880  0.99740  1.0000 -0.1489813684
C   C34       1.0  0.22830  0.62120  0.00260  1.0000 -0.1489813684
C   C35       1.0  0.80690  0.35980  0.09050  1.0000 -0.1076717827
C   C36       1.0  0.19310  0.64020  0.90950  1.0000 -0.1076717827
C   C37       1.0  0.88060  0.43430  0.16857  1.0000 -0.0197421926
C   C38       1.0  0.11940  0.56570  0.83143  1.0000 -0.0197421926
C   C39       1.0  0.91960  0.52596  0.15063  1.0000 -0.1489813684
C   C40       1.0  0.08040  0.47404  0.84937  1.0000 -0.1489813684
C   C41       1.0  0.88700  0.54787  0.05427  1.0000 0.0724920758
C   C42       1.0  0.11300  0.45213  0.94573  1.0000 0.0724920758
C   C43       1.0  0.81170  0.47360  0.97640  1.0000 0.0819564875
C   C44       1.0  0.18830  0.52640  0.02360  1.0000 0.0819564875
C   C45       1.0  0.93030  0.76407  0.91889  1.0000 0.5922683295
C   C46       1.0  0.06970  0.23593  0.08111  1.0000 0.5922683295
C   C47       1.0  0.91307  0.41144  0.27068  1.0000 0.5991902765
C   C48       1.0  0.08693  0.58856  0.72932  1.0000 0.5991902765
C   C49       1.0  0.64751  0.69353  0.52804  1.0000 -0.1434506436
C   C50       1.0  0.35249  0.30647  0.47196  1.0000 -0.1434506436
C   C51       1.0  0.73518  0.65422  0.49189  1.0000 -0.0302466933
C   C52       1.0  0.26482  0.34578  0.50811  1.0000 -0.0302466933
C   C53       1.0  0.71407  0.57117  0.40585  1.0000 -0.1076717827
C   C54       1.0  0.28593  0.42883  0.59415  1.0000 -0.1076717827
C   C55       1.0  0.60618  0.52693  0.35944  1.0000 -0.1489813684
C   C56       1.0  0.39382  0.47307  0.64056  1.0000 -0.1489813684
C   C57       1.0  0.40279  0.51337  0.35742  1.0000 -0.1560624276
C   C58       1.0  0.59721  0.48663  0.64258  1.0000 -0.1560624276
C   C59       1.0  0.31675  0.54643  0.39878  1.0000 -0.1076717827
C   C60       1.0  0.68325  0.45357  0.60122  1.0000 -0.1076717827
C   C61       1.0  0.33701  0.63264  0.48200  1.0000 -0.0197421926
C   C62       1.0  0.66299  0.36736  0.51800  1.0000 -0.0197421926
C   C63       1.0  0.44417  0.68316  0.52265  1.0000 -0.1560624276
C   C64       1.0  0.55583  0.31684  0.47735  1.0000 -0.1560624276
C   C65       1.0  0.53583  0.64868  0.48305  1.0000 0.0724920758
C   C66       1.0  0.46417  0.35132  0.51695  1.0000 0.0724920758
C   C67       1.0  0.51424  0.56275  0.39807  1.0000 0.0882782827
C   C68       1.0  0.48576  0.43725  0.60193  1.0000 0.0882782827
C   C69       1.0  0.85243  0.69660  0.54591  1.0000 0.6139449145
C   C70       1.0  0.14757  0.30340  0.45409  1.0000 0.6139449145
C   C71       1.0  0.24212  0.66725  0.52766  1.0000 0.5757412728
C   C72       1.0  0.75788  0.33275  0.47234  1.0000 0.5757412728
O   O1        1.0  0.83773  0.99173  0.89462  1.0000 -0.5886072104
O   O2        1.0  0.16227  0.00827  0.10538  1.0000 -0.5886072104
O   O3        1.0  0.72285  0.89345  0.75725  1.0000 -0.5512966995
O   O4        1.0  0.27715  0.10655  0.24275  1.0000 -0.5512966995
O   O5        1.0  0.05360  0.97462  0.85500  1.0000 -0.5631372714
O   O6        1.0  0.94640  0.02538  0.14500  1.0000 -0.5631372714
O   O7        1.0  0.09946  0.89672  0.71669  1.0000 -0.5707443242
O   O8        1.0  0.90054  0.10328  0.28331  1.0000 -0.5707443242
O   O9        1.0  0.97522  0.83847  0.99250  1.0000 -0.5631372714
O   O10       1.0  0.02478  0.16153  0.00750  1.0000 -0.5631372714
O   O11       1.0  0.91071  0.76594  0.82729  1.0000 -0.5631372714
O   O12       1.0  0.08929  0.23406  0.17271  1.0000 -0.5631372714
O   O13       1.0  0.88750  0.32053  0.27620  1.0000 -0.5512966995
O   O14       1.0  0.11250  0.67947  0.72380  1.0000 -0.5512966995
O   O15       1.0  0.95982  0.48696  0.34331  1.0000 -0.5707443242
O   O16       1.0  0.04018  0.51304  0.65669  1.0000 -0.5707443242
O   O17       1.0  0.93169  0.64715  0.52553  1.0000 -0.5707443242
O   O18       1.0  0.06831  0.35285  0.47447  1.0000 -0.5707443242
O   O19       1.0  0.87270  0.78158  0.60899  1.0000 -0.5707443242
O   O20       1.0  0.12730  0.21842  0.39101  1.0000 -0.5707443242
O   O21       1.0  0.14930  0.60830  0.50239  1.0000 -0.5886072104
O   O22       1.0  0.85070  0.39170  0.49761  1.0000 -0.5886072104
O   O23       1.0  0.25660  0.75452  0.58739  1.0000 -0.5512966995
O   O24       1.0  0.74340  0.24548  0.41261  1.0000 -0.5512966995
