# DDEC6 charges by PACMAN v1.1 (https://github.com/mtap-research/PACMAN-charge/)
data_2010[Co][nan]3[ASR]5
_chemical_formula_sum              "Co40 H96 C288 O192"
_cell_length_a       24.58
_cell_length_b       24.58
_cell_length_c       39.386
_cell_angle_alpha    90
_cell_angle_beta     90
_cell_angle_gamma    137.594

_symmetry_space_group_name_H-M    "P 1"
_symmetry_Int_Tables_number       1

loop_
  _symmetry_equiv_pos_as_xyz
  'x, y, z'

loop_
  _atom_site_type_symbol
  _atom_site_label
  _atom_site_symmetry_multiplicity
  _atom_site_fract_x
  _atom_site_fract_y
  _atom_site_fract_z
  _atom_site_occupancy
  _atom_site_charge
Co  Co1       1.0  0.01279  0.27183  0.68846  1.0000 1.0097757479
Co  Co2       1.0  0.98721  0.72817  0.68846  1.0000 1.0097757479
Co  Co3       1.0  0.72817  0.98721  0.31154  1.0000 1.0097757479
Co  Co4       1.0  0.27183  0.01279  0.31154  1.0000 1.0097757479
Co  Co5       1.0  0.48721  0.22817  0.81154  1.0000 1.0097757479
Co  Co6       1.0  0.51279  0.77183  0.81154  1.0000 1.0097757479
Co  Co7       1.0  0.77183  0.51279  0.18846  1.0000 1.0097757479
Co  Co8       1.0  0.22817  0.48721  0.18846  1.0000 1.0097757479
Co  Co9       1.0  0.80976  0.19024  0.50000  1.0000 1.0487901718
Co  Co10      1.0  0.19024  0.80976  0.50000  1.0000 1.0487901718
Co  Co11      1.0  0.69024  0.30976  0.00000  1.0000 1.0487901718
Co  Co12      1.0  0.30976  0.69024  0.00000  1.0000 1.0487901718
Co  Co13      1.0  0.30490  0.40572  0.37991  1.0000 1.0157857587
Co  Co14      1.0  0.69510  0.59428  0.37991  1.0000 1.0157857587
Co  Co15      1.0  0.59428  0.69510  0.62009  1.0000 1.0157857587
Co  Co16      1.0  0.40572  0.30490  0.62009  1.0000 1.0157857587
Co  Co17      1.0  0.19510  0.09428  0.12009  1.0000 1.0157857587
Co  Co18      1.0  0.80490  0.90572  0.12009  1.0000 1.0157857587
Co  Co19      1.0  0.90572  0.80490  0.87991  1.0000 1.0157857587
Co  Co20      1.0  0.09428  0.19510  0.87991  1.0000 1.0157857587
Co  Co21      1.0  0.14017  0.21855  0.40627  1.0000 1.0097757479
Co  Co22      1.0  0.85983  0.78145  0.40627  1.0000 1.0097757479
Co  Co23      1.0  0.78145  0.85983  0.59373  1.0000 1.0097757479
Co  Co24      1.0  0.21855  0.14017  0.59373  1.0000 1.0097757479
Co  Co25      1.0  0.35983  0.28145  0.09373  1.0000 1.0097757479
Co  Co26      1.0  0.64017  0.71855  0.09373  1.0000 1.0097757479
Co  Co27      1.0  0.71855  0.64017  0.90627  1.0000 1.0097757479
Co  Co28      1.0  0.28145  0.35983  0.90627  1.0000 1.0097757479
Co  Co29      1.0  0.72148  0.27852  0.50000  1.0000 1.0788294425
Co  Co30      1.0  0.27852  0.72148  0.50000  1.0000 1.0788294425
Co  Co31      1.0  0.77852  0.22148  0.00000  1.0000 1.0788294425
Co  Co32      1.0  0.22148  0.77852  0.00000  1.0000 1.0788294425
Co  Co33      1.0  0.13415  0.47327  0.67785  1.0000 1.0487901718
Co  Co34      1.0  0.86585  0.52673  0.67785  1.0000 1.0487901718
Co  Co35      1.0  0.52673  0.86585  0.32215  1.0000 1.0487901718
Co  Co36      1.0  0.47327  0.13415  0.32215  1.0000 1.0487901718
Co  Co37      1.0  0.36585  0.02673  0.82215  1.0000 1.0487901718
Co  Co38      1.0  0.63415  0.97327  0.82215  1.0000 1.0487901718
Co  Co39      1.0  0.97327  0.63415  0.17785  1.0000 1.0487901718
Co  Co40      1.0  0.02673  0.36585  0.17785  1.0000 1.0487901718
H   H1        1.0  0.88140  0.25780  0.59260  1.0000 0.1396787648
H   H2        1.0  0.11860  0.74220  0.59260  1.0000 0.1396787648
H   H3        1.0  0.74220  0.11860  0.40740  1.0000 0.1396787648
H   H4        1.0  0.25780  0.88140  0.40740  1.0000 0.1396787648
H   H5        1.0  0.61860  0.24220  0.90740  1.0000 0.1396787648
H   H6        1.0  0.38140  0.75780  0.90740  1.0000 0.1396787648
H   H7        1.0  0.75780  0.38140  0.09260  1.0000 0.1396787648
H   H8        1.0  0.24220  0.61860  0.09260  1.0000 0.1396787648
H   H9        1.0  0.82810  0.37830  0.59110  1.0000 0.1396787648
H   H10       1.0  0.17190  0.62170  0.59110  1.0000 0.1396787648
H   H11       1.0  0.62170  0.17190  0.40890  1.0000 0.1396787648
H   H12       1.0  0.37830  0.82810  0.40890  1.0000 0.1396787648
H   H13       1.0  0.67190  0.12170  0.90890  1.0000 0.1396787648
H   H14       1.0  0.32810  0.87830  0.90890  1.0000 0.1396787648
H   H15       1.0  0.87830  0.32810  0.09110  1.0000 0.1396787648
H   H16       1.0  0.12170  0.67190  0.09110  1.0000 0.1396787648
H   H17       1.0  0.94840  0.40300  0.67040  1.0000 0.1396787648
H   H18       1.0  0.05160  0.59700  0.67040  1.0000 0.1396787648
H   H19       1.0  0.59700  0.05160  0.32960  1.0000 0.1396787648
H   H20       1.0  0.40300  0.94840  0.32960  1.0000 0.1396787648
H   H21       1.0  0.55160  0.09700  0.82960  1.0000 0.1396787648
H   H22       1.0  0.44840  0.90300  0.82960  1.0000 0.1396787648
H   H23       1.0  0.90300  0.44840  0.17040  1.0000 0.1396787648
H   H24       1.0  0.09700  0.55160  0.17040  1.0000 0.1396787648
H   H25       1.0  0.03940  0.27980  0.45620  1.0000 0.13252245
H   H26       1.0  0.96060  0.72020  0.45620  1.0000 0.13252245
H   H27       1.0  0.72020  0.96060  0.54380  1.0000 0.13252245
H   H28       1.0  0.27980  0.03940  0.54380  1.0000 0.13252245
H   H29       1.0  0.46060  0.22020  0.04380  1.0000 0.13252245
H   H30       1.0  0.53940  0.77980  0.04380  1.0000 0.13252245
H   H31       1.0  0.77980  0.53940  0.95620  1.0000 0.13252245
H   H32       1.0  0.22020  0.46060  0.95620  1.0000 0.13252245
H   H33       1.0  0.25480  0.50940  0.44050  1.0000 0.1396787648
H   H34       1.0  0.74520  0.49060  0.44050  1.0000 0.1396787648
H   H35       1.0  0.49060  0.74520  0.55950  1.0000 0.1396787648
H   H36       1.0  0.50940  0.25480  0.55950  1.0000 0.1396787648
H   H37       1.0  0.24520  0.99060  0.05950  1.0000 0.1396787648
H   H38       1.0  0.75480  0.00940  0.05950  1.0000 0.1396787648
H   H39       1.0  0.00940  0.75480  0.94050  1.0000 0.1396787648
H   H40       1.0  0.99060  0.24520  0.94050  1.0000 0.1396787648
H   H41       1.0  0.08270  0.46190  0.49190  1.0000 0.1396787648
H   H42       1.0  0.91730  0.53810  0.49190  1.0000 0.1396787648
H   H43       1.0  0.53810  0.91730  0.50810  1.0000 0.1396787648
H   H44       1.0  0.46190  0.08270  0.50810  1.0000 0.1396787648
H   H45       1.0  0.41730  0.03810  0.00810  1.0000 0.1396787648
H   H46       1.0  0.58270  0.96190  0.00810  1.0000 0.1396787648
H   H47       1.0  0.96190  0.58270  0.99190  1.0000 0.1396787648
H   H48       1.0  0.03810  0.41730  0.99190  1.0000 0.1396787648
H   H49       1.0  0.84530  0.00950  0.66960  1.0000 0.13252245
H   H50       1.0  0.15470  0.99050  0.66960  1.0000 0.13252245
H   H51       1.0  0.99050  0.15470  0.33040  1.0000 0.13252245
H   H52       1.0  0.00950  0.84530  0.33040  1.0000 0.13252245
H   H53       1.0  0.65470  0.49050  0.83040  1.0000 0.13252245
H   H54       1.0  0.34530  0.50950  0.83040  1.0000 0.13252245
H   H55       1.0  0.50950  0.34530  0.16960  1.0000 0.13252245
H   H56       1.0  0.49050  0.65470  0.16960  1.0000 0.13252245
H   H57       1.0  0.76540  0.04600  0.74510  1.0000 0.13252245
H   H58       1.0  0.23460  0.95400  0.74510  1.0000 0.13252245
H   H59       1.0  0.95400  0.23460  0.25490  1.0000 0.13252245
H   H60       1.0  0.04600  0.76540  0.25490  1.0000 0.13252245
H   H61       1.0  0.73460  0.45400  0.75490  1.0000 0.13252245
H   H62       1.0  0.26540  0.54600  0.75490  1.0000 0.13252245
H   H63       1.0  0.54600  0.26540  0.24510  1.0000 0.13252245
H   H64       1.0  0.45400  0.73460  0.24510  1.0000 0.13252245
H   H65       1.0  0.62700  0.82100  0.70940  1.0000 0.1396787648
H   H66       1.0  0.37300  0.17900  0.70940  1.0000 0.1396787648
H   H67       1.0  0.17900  0.37300  0.29060  1.0000 0.1396787648
H   H68       1.0  0.82100  0.62700  0.29060  1.0000 0.1396787648
H   H69       1.0  0.87300  0.67900  0.79060  1.0000 0.1396787648
H   H70       1.0  0.12700  0.32100  0.79060  1.0000 0.1396787648
H   H71       1.0  0.32100  0.12700  0.20940  1.0000 0.1396787648
H   H72       1.0  0.67900  0.87300  0.20940  1.0000 0.1396787648
H   H73       1.0  0.15990  0.27410  0.62900  1.0000 0.13252245
H   H74       1.0  0.84010  0.72590  0.62900  1.0000 0.13252245
H   H75       1.0  0.72590  0.84010  0.37100  1.0000 0.13252245
H   H76       1.0  0.27410  0.15990  0.37100  1.0000 0.13252245
H   H77       1.0  0.34010  0.22590  0.87100  1.0000 0.13252245
H   H78       1.0  0.65990  0.77410  0.87100  1.0000 0.13252245
H   H79       1.0  0.77410  0.65990  0.12900  1.0000 0.13252245
H   H80       1.0  0.22590  0.34010  0.12900  1.0000 0.13252245
H   H81       1.0  0.38960  0.42000  0.60010  1.0000 0.13252245
H   H82       1.0  0.61040  0.58000  0.60010  1.0000 0.13252245
H   H83       1.0  0.58000  0.61040  0.39990  1.0000 0.13252245
H   H84       1.0  0.42000  0.38960  0.39990  1.0000 0.13252245
H   H85       1.0  0.11040  0.08000  0.89990  1.0000 0.1396787648
H   H86       1.0  0.88960  0.92000  0.89990  1.0000 0.13252245
H   H87       1.0  0.92000  0.88960  0.10010  1.0000 0.13252245
H   H88       1.0  0.08000  0.11040  0.10010  1.0000 0.13252245
H   H89       1.0  0.31950  0.51430  0.63420  1.0000 0.1396787648
H   H90       1.0  0.68050  0.48570  0.63420  1.0000 0.1396787648
H   H91       1.0  0.48570  0.68050  0.36580  1.0000 0.1396787648
H   H92       1.0  0.51430  0.31950  0.36580  1.0000 0.1396787648
H   H93       1.0  0.18050  0.98570  0.86580  1.0000 0.1396787648
H   H94       1.0  0.81950  0.01430  0.86580  1.0000 0.1396787648
H   H95       1.0  0.01430  0.81950  0.13420  1.0000 0.1396787648
H   H96       1.0  0.98570  0.18050  0.13420  1.0000 0.1396787648
C   C1        1.0  0.92368  0.32972  0.63355  1.0000 0.0055681806
C   C2        1.0  0.07632  0.67028  0.63355  1.0000 0.0055681806
C   C3        1.0  0.67028  0.07632  0.36645  1.0000 0.0055681806
C   C4        1.0  0.32972  0.92368  0.36645  1.0000 0.0055681806
C   C5        1.0  0.57632  0.17028  0.86645  1.0000 0.0055681806
C   C6        1.0  0.42368  0.82972  0.86645  1.0000 0.0055681806
C   C7        1.0  0.82972  0.42368  0.13355  1.0000 0.0055681806
C   C8        1.0  0.17028  0.57632  0.13355  1.0000 0.0055681806
C   C9        1.0  0.88437  0.29423  0.60262  1.0000 -0.0892933855
C   C10       1.0  0.11563  0.70577  0.60262  1.0000 -0.0892933855
C   C11       1.0  0.70577  0.11563  0.39738  1.0000 -0.0892933855
C   C12       1.0  0.29423  0.88437  0.39738  1.0000 -0.0892933855
C   C13       1.0  0.61563  0.20577  0.89738  1.0000 -0.0892933855
C   C14       1.0  0.38437  0.79423  0.89738  1.0000 -0.0892933855
C   C15       1.0  0.79423  0.38437  0.10262  1.0000 -0.0892933855
C   C16       1.0  0.20577  0.61563  0.10262  1.0000 -0.0892933855
C   C17       1.0  0.84969  0.31311  0.58665  1.0000 0.0038363566
C   C18       1.0  0.15031  0.68689  0.58665  1.0000 0.0038363566
C   C19       1.0  0.68689  0.15031  0.41335  1.0000 0.0038363566
C   C20       1.0  0.31311  0.84969  0.41335  1.0000 0.0038363566
C   C21       1.0  0.65031  0.18689  0.91335  1.0000 0.0038363566
C   C22       1.0  0.34969  0.81311  0.91335  1.0000 0.0038363566
C   C23       1.0  0.81311  0.34969  0.08665  1.0000 0.0038363566
C   C24       1.0  0.18689  0.65031  0.08665  1.0000 0.0038363566
C   C25       1.0  0.85137  0.36563  0.60190  1.0000 -0.1028108328
C   C26       1.0  0.14863  0.63437  0.60190  1.0000 -0.1028108328
C   C27       1.0  0.63437  0.14863  0.39810  1.0000 -0.1028108328
C   C28       1.0  0.36563  0.85137  0.39810  1.0000 -0.1028108328
C   C29       1.0  0.64863  0.13437  0.89810  1.0000 -0.1028108328
C   C30       1.0  0.35137  0.86563  0.89810  1.0000 -0.1028108328
C   C31       1.0  0.86563  0.35137  0.10190  1.0000 -0.1028108328
C   C32       1.0  0.13437  0.64863  0.10190  1.0000 -0.1028108328
C   C33       1.0  0.88809  0.39871  0.63339  1.0000 -0.0032276553
C   C34       1.0  0.11191  0.60129  0.63339  1.0000 -0.0032276553
C   C35       1.0  0.60129  0.11191  0.36661  1.0000 -0.0032276553
C   C36       1.0  0.39871  0.88809  0.36661  1.0000 -0.0032276553
C   C37       1.0  0.61191  0.10129  0.86661  1.0000 -0.0032276553
C   C38       1.0  0.38809  0.89871  0.86661  1.0000 -0.0032276553
C   C39       1.0  0.89871  0.38809  0.13339  1.0000 -0.0032276553
C   C40       1.0  0.10129  0.61191  0.13339  1.0000 -0.0032276553
C   C41       1.0  0.92412  0.38088  0.64931  1.0000 -0.1028108328
C   C42       1.0  0.07588  0.61912  0.64931  1.0000 -0.1028108328
C   C43       1.0  0.61912  0.07588  0.35069  1.0000 -0.1028108328
C   C44       1.0  0.38088  0.92412  0.35069  1.0000 -0.1028108328
C   C45       1.0  0.57588  0.11912  0.85069  1.0000 -0.1028108328
C   C46       1.0  0.42412  0.88088  0.85069  1.0000 -0.1028108328
C   C47       1.0  0.88088  0.42412  0.14931  1.0000 -0.1028108328
C   C48       1.0  0.11912  0.57588  0.14931  1.0000 -0.1028108328
C   C49       1.0  0.95980  0.30860  0.65134  1.0000 0.5673044597
C   C50       1.0  0.04020  0.69140  0.65134  1.0000 0.5673044597
C   C51       1.0  0.69140  0.04020  0.34866  1.0000 0.5673044597
C   C52       1.0  0.30860  0.95980  0.34866  1.0000 0.5673044597
C   C53       1.0  0.54020  0.19140  0.84866  1.0000 0.5673044597
C   C54       1.0  0.45980  0.80860  0.84866  1.0000 0.5673044597
C   C55       1.0  0.80860  0.45980  0.15134  1.0000 0.5673044597
C   C56       1.0  0.19140  0.54020  0.15134  1.0000 0.5673044597
C   C57       1.0  0.80700  0.27540  0.55270  1.0000 0.6012094277
C   C58       1.0  0.19300  0.72460  0.55270  1.0000 0.6012094277
C   C59       1.0  0.72460  0.19300  0.44730  1.0000 0.6012094277
C   C60       1.0  0.27540  0.80700  0.44730  1.0000 0.6012094277
C   C61       1.0  0.69300  0.22460  0.94730  1.0000 0.6012094277
C   C62       1.0  0.30700  0.77540  0.94730  1.0000 0.6012094277
C   C63       1.0  0.77540  0.30700  0.05270  1.0000 0.6012094277
C   C64       1.0  0.22460  0.69300  0.05270  1.0000 0.6012094277
C   C65       1.0  0.88522  0.45098  0.65069  1.0000 0.5420842295
C   C66       1.0  0.11478  0.54902  0.65069  1.0000 0.5420842295
C   C67       1.0  0.54902  0.11478  0.34931  1.0000 0.5420842295
C   C68       1.0  0.45098  0.88522  0.34931  1.0000 0.5420842295
C   C69       1.0  0.61478  0.04902  0.84931  1.0000 0.5420842295
C   C70       1.0  0.38522  0.95098  0.84931  1.0000 0.5420842295
C   C71       1.0  0.95098  0.38522  0.15069  1.0000 0.5420842295
C   C72       1.0  0.04902  0.61478  0.15069  1.0000 0.5420842295
C   C73       1.0  0.04626  0.36154  0.47500  1.0000 -0.0032276553
C   C74       1.0  0.95374  0.63846  0.47500  1.0000 -0.0032276553
C   C75       1.0  0.63846  0.95374  0.52500  1.0000 -0.0032276553
C   C76       1.0  0.36154  0.04626  0.52500  1.0000 -0.0032276553
C   C77       1.0  0.45374  0.13846  0.02500  1.0000 -0.0032276553
C   C78       1.0  0.54626  0.86154  0.02500  1.0000 -0.0032276553
C   C79       1.0  0.86154  0.54626  0.97500  1.0000 -0.0032276553
C   C80       1.0  0.13846  0.45374  0.97500  1.0000 -0.0032276553
C   C81       1.0  0.07359  0.33481  0.45850  1.0000 -0.0892933855
C   C82       1.0  0.92641  0.66519  0.45850  1.0000 -0.0892933855
C   C83       1.0  0.66519  0.92641  0.54150  1.0000 -0.0892933855
C   C84       1.0  0.33481  0.07359  0.54150  1.0000 -0.0892933855
C   C85       1.0  0.42641  0.16519  0.04150  1.0000 -0.0892933855
C   C86       1.0  0.57359  0.83481  0.04150  1.0000 -0.0892933855
C   C87       1.0  0.83481  0.57359  0.95850  1.0000 -0.0892933855
C   C88       1.0  0.16519  0.42641  0.95850  1.0000 -0.0892933855
C   C89       1.0  0.15172  0.39028  0.44550  1.0000 -0.0205507191
C   C90       1.0  0.84828  0.60972  0.44550  1.0000 -0.0205507191
C   C91       1.0  0.60972  0.84828  0.55450  1.0000 -0.0205507191
C   C92       1.0  0.39028  0.15172  0.55450  1.0000 -0.0205507191
C   C93       1.0  0.34828  0.10972  0.05450  1.0000 -0.0205507191
C   C94       1.0  0.65172  0.89028  0.05450  1.0000 -0.0251109886
C   C95       1.0  0.89028  0.65172  0.94550  1.0000 -0.0205507191
C   C96       1.0  0.10972  0.34828  0.94550  1.0000 -0.0205507191
C   C97       1.0  0.20283  0.47237  0.44930  1.0000 -0.0800772899
C   C98       1.0  0.79717  0.52763  0.44930  1.0000 -0.0800772899
C   C99       1.0  0.52763  0.79717  0.55070  1.0000 -0.0800772899
C   C100      1.0  0.47237  0.20283  0.55070  1.0000 -0.0800772899
C   C101      1.0  0.29717  0.02763  0.05070  1.0000 -0.0800772899
C   C102      1.0  0.70283  0.97237  0.05070  1.0000 -0.0800772899
C   C103      1.0  0.97237  0.70283  0.94930  1.0000 -0.0800772899
C   C104      1.0  0.02763  0.29717  0.94930  1.0000 -0.0800772899
C   C105      1.0  0.17680  0.49980  0.46630  1.0000 -0.0070082571
C   C106      1.0  0.82320  0.50020  0.46630  1.0000 -0.0070082571
C   C107      1.0  0.50020  0.82320  0.53370  1.0000 -0.0070082571
C   C108      1.0  0.49980  0.17680  0.53370  1.0000 -0.0070082571
C   C109      1.0  0.32320  0.00020  0.03370  1.0000 -0.0070082571
C   C110      1.0  0.67680  0.99980  0.03370  1.0000 -0.0070082571
C   C111      1.0  0.99980  0.67680  0.96630  1.0000 -0.0070082571
C   C112      1.0  0.00020  0.32320  0.96630  1.0000 -0.0070082571
C   C113      1.0  0.09947  0.44393  0.47960  1.0000 -0.0800772899
C   C114      1.0  0.90053  0.55607  0.47960  1.0000 -0.0800772899
C   C115      1.0  0.55607  0.90053  0.52040  1.0000 -0.0800772899
C   C116      1.0  0.44393  0.09947  0.52040  1.0000 -0.0800772899
C   C117      1.0  0.40053  0.05607  0.02040  1.0000 -0.0800772899
C   C118      1.0  0.59947  0.94393  0.02040  1.0000 -0.0800772899
C   C119      1.0  0.94393  0.59947  0.97960  1.0000 -0.0800772899
C   C120      1.0  0.05607  0.40053  0.97960  1.0000 -0.0800772899
C   C121      1.0  0.96020  0.30240  0.48680  1.0000 0.5309704592
C   C122      1.0  0.03980  0.69760  0.48680  1.0000 0.5309704592
C   C123      1.0  0.69760  0.03980  0.51320  1.0000 0.5309704592
C   C124      1.0  0.30240  0.96020  0.51320  1.0000 0.5309704592
C   C125      1.0  0.53980  0.19760  0.01320  1.0000 0.5309704592
C   C126      1.0  0.46020  0.80240  0.01320  1.0000 0.5309704592
C   C127      1.0  0.80240  0.46020  0.98680  1.0000 0.5309704592
C   C128      1.0  0.19760  0.53980  0.98680  1.0000 0.5309704592
C   C129      1.0  0.17934  0.36026  0.42710  1.0000 0.6012094277
C   C130      1.0  0.82066  0.63974  0.42710  1.0000 0.6012094277
C   C131      1.0  0.63974  0.82066  0.57290  1.0000 0.6012094277
C   C132      1.0  0.36026  0.17934  0.57290  1.0000 0.6012094277
C   C133      1.0  0.32066  0.13974  0.07290  1.0000 0.6012094277
C   C134      1.0  0.67934  0.86026  0.07290  1.0000 0.6012094277
C   C135      1.0  0.86026  0.67934  0.92710  1.0000 0.6012094277
C   C136      1.0  0.13974  0.32066  0.92710  1.0000 0.6012094277
C   C137      1.0  0.23390  0.59010  0.47020  1.0000 0.5420842295
C   C138      1.0  0.76610  0.40990  0.47020  1.0000 0.5420842295
C   C139      1.0  0.40990  0.76610  0.52980  1.0000 0.5420842295
C   C140      1.0  0.59010  0.23390  0.52980  1.0000 0.5420842295
C   C141      1.0  0.26610  0.90990  0.02980  1.0000 0.5420842295
C   C142      1.0  0.73390  0.09010  0.02980  1.0000 0.5420842295
C   C143      1.0  0.09010  0.73390  0.97020  1.0000 0.5420842295
C   C144      1.0  0.90990  0.26610  0.97020  1.0000 0.5420842295
C   C145      1.0  0.73297  0.90843  0.68490  1.0000 -0.0205507191
C   C146      1.0  0.26703  0.09157  0.68490  1.0000 -0.0205507191
C   C147      1.0  0.09157  0.26703  0.31510  1.0000 -0.0205507191
C   C148      1.0  0.90843  0.73297  0.31510  1.0000 -0.0205507191
C   C149      1.0  0.76703  0.59157  0.81510  1.0000 -0.0205507191
C   C150      1.0  0.23297  0.40843  0.81510  1.0000 -0.0205507191
C   C151      1.0  0.40843  0.23297  0.18490  1.0000 -0.0205507191
C   C152      1.0  0.59157  0.76703  0.18490  1.0000 -0.0205507191
C   C153      1.0  0.80473  0.98947  0.68468  1.0000 -0.0800772899
C   C154      1.0  0.19527  0.01053  0.68468  1.0000 -0.0800772899
C   C155      1.0  0.01053  0.19527  0.31532  1.0000 -0.0800772899
C   C156      1.0  0.98947  0.80473  0.31532  1.0000 -0.0800772899
C   C157      1.0  0.69527  0.51053  0.81532  1.0000 -0.0800772899
C   C158      1.0  0.30473  0.48947  0.81532  1.0000 -0.0800772899
C   C159      1.0  0.48947  0.30473  0.18468  1.0000 -0.0800772899
C   C160      1.0  0.51053  0.69527  0.18468  1.0000 -0.0800772899
C   C161      1.0  0.81697  0.04203  0.70704  1.0000 -0.0205507191
C   C162      1.0  0.18303  0.95797  0.70704  1.0000 -0.0205507191
C   C163      1.0  0.95797  0.18303  0.29296  1.0000 -0.0205507191
C   C164      1.0  0.04203  0.81697  0.29296  1.0000 -0.0205507191
C   C165      1.0  0.68303  0.45797  0.79296  1.0000 -0.0205507191
C   C166      1.0  0.31697  0.54203  0.79296  1.0000 -0.0205507191
C   C167      1.0  0.54203  0.31697  0.20704  1.0000 -0.0205507191
C   C168      1.0  0.45797  0.68303  0.20704  1.0000 -0.0205507191
C   C169      1.0  0.75786  0.01114  0.73050  1.0000 -0.0800772899
C   C170      1.0  0.24214  0.98886  0.73050  1.0000 -0.0800772899
C   C171      1.0  0.98886  0.24214  0.26950  1.0000 -0.0800772899
C   C172      1.0  0.01114  0.75786  0.26950  1.0000 -0.0800772899
C   C173      1.0  0.74214  0.48886  0.76950  1.0000 -0.0800772899
C   C174      1.0  0.25786  0.51114  0.76950  1.0000 -0.0800772899
C   C175      1.0  0.51114  0.25786  0.23050  1.0000 -0.0800772899
C   C176      1.0  0.48886  0.74214  0.23050  1.0000 -0.0800772899
C   C177      1.0  0.68589  0.92691  0.73263  1.0000 -0.0363788033
C   C178      1.0  0.31411  0.07309  0.73263  1.0000 -0.0363788033
C   C179      1.0  0.07309  0.31411  0.26737  1.0000 -0.0363788033
C   C180      1.0  0.92691  0.68589  0.26737  1.0000 -0.0363788033
C   C181      1.0  0.81411  0.57309  0.76737  1.0000 -0.0363788033
C   C182      1.0  0.18589  0.42691  0.76737  1.0000 -0.0363788033
C   C183      1.0  0.42691  0.18589  0.23263  1.0000 -0.0363788033
C   C184      1.0  0.57309  0.81411  0.23263  1.0000 -0.0363788033
C   C185      1.0  0.67418  0.87622  0.70892  1.0000 -0.0743557016
C   C186      1.0  0.32582  0.12378  0.70892  1.0000 -0.0743557016
C   C187      1.0  0.12378  0.32582  0.29108  1.0000 -0.0743557016
C   C188      1.0  0.87622  0.67418  0.29108  1.0000 -0.0743557016
C   C189      1.0  0.82582  0.62378  0.79108  1.0000 -0.0743557016
C   C190      1.0  0.17418  0.37622  0.79108  1.0000 -0.0743557016
C   C191      1.0  0.37622  0.17418  0.20892  1.0000 -0.0743557016
C   C192      1.0  0.62378  0.82582  0.20892  1.0000 -0.0743557016
C   C193      1.0  0.71826  0.85434  0.65830  1.0000 0.6086740842
C   C194      1.0  0.28174  0.14566  0.65830  1.0000 0.6086740842
C   C195      1.0  0.14566  0.28174  0.34170  1.0000 0.6086740842
C   C196      1.0  0.85434  0.71826  0.34170  1.0000 0.6086740842
C   C197      1.0  0.78174  0.64566  0.84170  1.0000 0.6086740842
C   C198      1.0  0.21826  0.35434  0.84170  1.0000 0.6086740842
C   C199      1.0  0.35434  0.21826  0.15830  1.0000 0.6086740842
C   C200      1.0  0.64566  0.78174  0.15830  1.0000 0.6086740842
C   C201      1.0  0.89280  0.13040  0.70460  1.0000 0.5480422278
C   C202      1.0  0.10720  0.86960  0.70460  1.0000 0.5480422278
C   C203      1.0  0.86960  0.10720  0.29540  1.0000 0.5480422278
C   C204      1.0  0.13040  0.89280  0.29540  1.0000 0.5480422278
C   C205      1.0  0.60720  0.36960  0.79540  1.0000 0.5480422278
C   C206      1.0  0.39280  0.63040  0.79540  1.0000 0.5480422278
C   C207      1.0  0.63040  0.39280  0.20460  1.0000 0.5480422278
C   C208      1.0  0.36960  0.60720  0.20460  1.0000 0.5480422278
C   C209      1.0  0.62810  0.89610  0.76002  1.0000 0.6012094277
C   C210      1.0  0.37190  0.10390  0.76002  1.0000 0.5916940407
C   C211      1.0  0.10390  0.37190  0.23998  1.0000 0.5916940407
C   C212      1.0  0.89610  0.62810  0.23998  1.0000 0.5916940407
C   C213      1.0  0.87190  0.60390  0.73998  1.0000 0.5916940407
C   C214      1.0  0.12810  0.39610  0.73998  1.0000 0.6012094277
C   C215      1.0  0.39610  0.12810  0.26002  1.0000 0.5916940407
C   C216      1.0  0.60390  0.87190  0.26002  1.0000 0.5916940407
C   C217      1.0  0.22887  0.39213  0.63388  1.0000 -0.0205507191
C   C218      1.0  0.77113  0.60787  0.63388  1.0000 -0.0205507191
C   C219      1.0  0.60787  0.77113  0.36612  1.0000 -0.0205507191
C   C220      1.0  0.39213  0.22887  0.36612  1.0000 -0.0205507191
C   C221      1.0  0.27113  0.10787  0.86612  1.0000 -0.0205507191
C   C222      1.0  0.72887  0.89213  0.86612  1.0000 -0.0205507191
C   C223      1.0  0.89213  0.72887  0.13388  1.0000 -0.0205507191
C   C224      1.0  0.10787  0.27113  0.13388  1.0000 -0.0205507191
C   C225      1.0  0.21185  0.32575  0.62593  1.0000 -0.0800772899
C   C226      1.0  0.78815  0.67425  0.62593  1.0000 -0.0800772899
C   C227      1.0  0.67425  0.78815  0.37407  1.0000 -0.0800772899
C   C228      1.0  0.32575  0.21185  0.37407  1.0000 -0.0800772899
C   C229      1.0  0.28815  0.17425  0.87407  1.0000 -0.0800772899
C   C230      1.0  0.71185  0.82575  0.87407  1.0000 -0.0800772899
C   C231      1.0  0.82575  0.71185  0.12593  1.0000 -0.0800772899
C   C232      1.0  0.17425  0.28815  0.12593  1.0000 -0.0800772899
C   C233      1.0  0.27115  0.33545  0.61355  1.0000 -0.0205507191
C   C234      1.0  0.72885  0.66455  0.61355  1.0000 -0.0205507191
C   C235      1.0  0.66455  0.72885  0.38645  1.0000 -0.0205507191
C   C236      1.0  0.33545  0.27115  0.38645  1.0000 -0.0205507191
C   C237      1.0  0.22885  0.16455  0.88645  1.0000 -0.0205507191
C   C238      1.0  0.77115  0.83545  0.88645  1.0000 -0.0205507191
C   C239      1.0  0.83545  0.77115  0.11355  1.0000 -0.0205507191
C   C240      1.0  0.16455  0.22885  0.11355  1.0000 -0.0205507191
C   C241      1.0  0.34954  0.41326  0.60860  1.0000 -0.0892933855
C   C242      1.0  0.65046  0.58674  0.60860  1.0000 -0.0892933855
C   C243      1.0  0.58674  0.65046  0.39140  1.0000 -0.0892933855
C   C244      1.0  0.41326  0.34954  0.39140  1.0000 -0.0892933855
C   C245      1.0  0.15046  0.08674  0.89140  1.0000 -0.0892933855
C   C246      1.0  0.84954  0.91326  0.89140  1.0000 -0.0892933855
C   C247      1.0  0.91326  0.84954  0.10860  1.0000 -0.0892933855
C   C248      1.0  0.08674  0.15046  0.10860  1.0000 -0.0892933855
C   C249      1.0  0.36734  0.48006  0.61640  1.0000 -0.0205507191
C   C250      1.0  0.63266  0.51994  0.61640  1.0000 -0.0205507191
C   C251      1.0  0.51994  0.63266  0.38360  1.0000 -0.0205507191
C   C252      1.0  0.48006  0.36734  0.38360  1.0000 -0.0205507191
C   C253      1.0  0.13266  0.01994  0.88360  1.0000 -0.0205507191
C   C254      1.0  0.86734  0.98006  0.88360  1.0000 -0.0205507191
C   C255      1.0  0.98006  0.86734  0.11640  1.0000 -0.0205507191
C   C256      1.0  0.01994  0.13266  0.11640  1.0000 -0.0205507191
C   C257      1.0  0.30737  0.46943  0.62894  1.0000 -0.0800772899
C   C258      1.0  0.69263  0.53057  0.62894  1.0000 -0.0800772899
C   C259      1.0  0.53057  0.69263  0.37106  1.0000 -0.0800772899
C   C260      1.0  0.46943  0.30737  0.37106  1.0000 -0.0800772899
C   C261      1.0  0.19263  0.03057  0.87106  1.0000 -0.0800772899
C   C262      1.0  0.80737  0.96943  0.87106  1.0000 -0.0800772899
C   C263      1.0  0.96943  0.80737  0.12894  1.0000 -0.0800772899
C   C264      1.0  0.03057  0.19263  0.12894  1.0000 -0.0800772899
C   C265      1.0  0.16646  0.38214  0.64959  1.0000 0.6012094277
C   C266      1.0  0.83354  0.61786  0.64959  1.0000 0.6012094277
C   C267      1.0  0.61786  0.83354  0.35041  1.0000 0.6012094277
C   C268      1.0  0.38214  0.16646  0.35041  1.0000 0.6012094277
C   C269      1.0  0.33354  0.11786  0.85041  1.0000 0.6012094277
C   C270      1.0  0.66646  0.88214  0.85041  1.0000 0.6012094277
C   C271      1.0  0.88214  0.66646  0.14959  1.0000 0.6012094277
C   C272      1.0  0.11786  0.33354  0.14959  1.0000 0.6012094277
C   C273      1.0  0.25026  0.26194  0.60660  1.0000 0.5916940407
C   C274      1.0  0.74974  0.73806  0.60660  1.0000 0.5916940407
C   C275      1.0  0.73806  0.74974  0.39340  1.0000 0.5916940407
C   C276      1.0  0.26194  0.25026  0.39340  1.0000 0.5916940407
C   C277      1.0  0.24974  0.23806  0.89340  1.0000 0.5916940407
C   C278      1.0  0.75026  0.76194  0.89340  1.0000 0.5916940407
C   C279      1.0  0.76194  0.75026  0.10660  1.0000 0.5916940407
C   C280      1.0  0.23806  0.24974  0.10660  1.0000 0.5916940407
C   C281      1.0  0.45147  0.56273  0.61471  1.0000 0.5480422278
C   C282      1.0  0.54853  0.43727  0.61471  1.0000 0.5480422278
C   C283      1.0  0.43727  0.54853  0.38529  1.0000 0.5480422278
C   C284      1.0  0.56273  0.45147  0.38529  1.0000 0.5480422278
C   C285      1.0  0.04853  0.93727  0.88529  1.0000 0.5480422278
C   C286      1.0  0.95147  0.06273  0.88529  1.0000 0.5480422278
C   C287      1.0  0.06273  0.95147  0.11471  1.0000 0.5480422278
C   C288      1.0  0.93727  0.04853  0.11471  1.0000 0.5480422278
O   O1        1.0  0.01110  0.35490  0.67535  1.0000 -0.6105404074
O   O2        1.0  0.98890  0.64510  0.67535  1.0000 -0.6105404074
O   O3        1.0  0.64510  0.98890  0.32465  1.0000 -0.6105404074
O   O4        1.0  0.35490  0.01110  0.32465  1.0000 -0.6105404074
O   O5        1.0  0.48890  0.14510  0.82465  1.0000 -0.6105404074
O   O6        1.0  0.51110  0.85490  0.82465  1.0000 -0.6105404074
O   O7        1.0  0.85490  0.51110  0.17535  1.0000 -0.6105404074
O   O8        1.0  0.14510  0.48890  0.17535  1.0000 -0.6105404074
O   O9        1.0  0.93871  0.24629  0.64394  1.0000 -0.4700247223
O   O10       1.0  0.06129  0.75371  0.64394  1.0000 -0.4700247223
O   O11       1.0  0.75371  0.06129  0.35606  1.0000 -0.4700247223
O   O12       1.0  0.24629  0.93871  0.35606  1.0000 -0.4700247223
O   O13       1.0  0.56129  0.25371  0.85606  1.0000 -0.4700247223
O   O14       1.0  0.43871  0.74629  0.85606  1.0000 -0.4700247223
O   O15       1.0  0.74629  0.43871  0.14394  1.0000 -0.4700247223
O   O16       1.0  0.25371  0.56129  0.14394  1.0000 -0.4700247223
O   O17       1.0  0.78911  0.21409  0.54359  1.0000 -0.5513797403
O   O18       1.0  0.21089  0.78591  0.54359  1.0000 -0.5513797403
O   O19       1.0  0.78591  0.21089  0.45641  1.0000 -0.5513797403
O   O20       1.0  0.21409  0.78911  0.45641  1.0000 -0.5513797403
O   O21       1.0  0.71089  0.28591  0.95641  1.0000 -0.5513797403
O   O22       1.0  0.28911  0.71409  0.95641  1.0000 -0.5513797403
O   O23       1.0  0.71409  0.28911  0.04359  1.0000 -0.5513797403
O   O24       1.0  0.28591  0.71089  0.04359  1.0000 -0.5513797403
O   O25       1.0  0.79267  0.30693  0.53670  1.0000 -0.4990685104
O   O26       1.0  0.20733  0.69307  0.53670  1.0000 -0.4990685104
O   O27       1.0  0.69307  0.20733  0.46330  1.0000 -0.4990685104
O   O28       1.0  0.30693  0.79267  0.46330  1.0000 -0.4990685104
O   O29       1.0  0.70733  0.19307  0.96330  1.0000 -0.4990685104
O   O30       1.0  0.29267  0.80693  0.96330  1.0000 -0.4990685104
O   O31       1.0  0.80693  0.29267  0.03670  1.0000 -0.4990685104
O   O32       1.0  0.19307  0.70733  0.03670  1.0000 -0.4990685104
O   O33       1.0  0.86670  0.47890  0.63352  1.0000 -0.5217737293
O   O34       1.0  0.13330  0.52110  0.63352  1.0000 -0.514430051
O   O35       1.0  0.52110  0.13330  0.36648  1.0000 -0.514430051
O   O36       1.0  0.47890  0.86670  0.36648  1.0000 -0.514430051
O   O37       1.0  0.63330  0.02110  0.86648  1.0000 -0.514430051
O   O38       1.0  0.36670  0.97890  0.86648  1.0000 -0.514430051
O   O39       1.0  0.97890  0.36670  0.13352  1.0000 -0.514430051
O   O40       1.0  0.02110  0.63330  0.13352  1.0000 -0.514430051
O   O41       1.0  0.90001  0.46619  0.68222  1.0000 -0.5217737293
O   O42       1.0  0.09999  0.53381  0.68222  1.0000 -0.5217737293
O   O43       1.0  0.53381  0.09999  0.31778  1.0000 -0.5217737293
O   O44       1.0  0.46619  0.90001  0.31778  1.0000 -0.5217737293
O   O45       1.0  0.59999  0.03381  0.81778  1.0000 -0.5217737293
O   O46       1.0  0.40001  0.96619  0.81778  1.0000 -0.5217737293
O   O47       1.0  0.96619  0.40001  0.18222  1.0000 -0.5217737293
O   O48       1.0  0.03381  0.59999  0.18222  1.0000 -0.5217737293
O   O49       1.0  0.93658  0.32662  0.50120  1.0000 -0.4500935177
O   O50       1.0  0.06342  0.67338  0.50120  1.0000 -0.4500935177
O   O51       1.0  0.67338  0.06342  0.49880  1.0000 -0.4500935177
O   O52       1.0  0.32662  0.93658  0.49880  1.0000 -0.4500935177
O   O53       1.0  0.56342  0.17338  0.99880  1.0000 -0.4500935177
O   O54       1.0  0.43658  0.82662  0.99880  1.0000 -0.4500935177
O   O55       1.0  0.82662  0.43658  0.00120  1.0000 -0.4500935177
O   O56       1.0  0.17338  0.56342  0.00120  1.0000 -0.4500935177
O   O57       1.0  0.91380  0.23040  0.48190  1.0000 -0.4362023125
O   O58       1.0  0.08620  0.76960  0.48190  1.0000 -0.4362023125
O   O59       1.0  0.76960  0.08620  0.51810  1.0000 -0.4362023125
O   O60       1.0  0.23040  0.91380  0.51810  1.0000 -0.4362023125
O   O61       1.0  0.58620  0.26960  0.01810  1.0000 -0.4325346897
O   O62       1.0  0.41380  0.73040  0.01810  1.0000 -0.4362023125
O   O63       1.0  0.73040  0.41380  0.98190  1.0000 -0.4362023125
O   O64       1.0  0.26960  0.58620  0.98190  1.0000 -0.4362023125
O   O65       1.0  0.12581  0.28579  0.42061  1.0000 -0.57105049
O   O66       1.0  0.87419  0.71421  0.42061  1.0000 -0.57105049
O   O67       1.0  0.71421  0.87419  0.57939  1.0000 -0.57105049
O   O68       1.0  0.28579  0.12581  0.57939  1.0000 -0.57105049
O   O69       1.0  0.37419  0.21421  0.07939  1.0000 -0.57105049
O   O70       1.0  0.62581  0.78579  0.07939  1.0000 -0.57105049
O   O71       1.0  0.78579  0.62581  0.92061  1.0000 -0.57105049
O   O72       1.0  0.21421  0.37419  0.92061  1.0000 -0.57105049
O   O73       1.0  0.25219  0.41101  0.41882  1.0000 -0.5217737293
O   O74       1.0  0.74781  0.58899  0.41882  1.0000 -0.5271116318
O   O75       1.0  0.58899  0.74781  0.58118  1.0000 -0.5271116318
O   O76       1.0  0.41101  0.25219  0.58118  1.0000 -0.5217737293
O   O77       1.0  0.24781  0.08899  0.08118  1.0000 -0.5217737293
O   O78       1.0  0.75219  0.91101  0.08118  1.0000 -0.5217737293
O   O79       1.0  0.91101  0.75219  0.91882  1.0000 -0.5271116318
O   O80       1.0  0.08899  0.24781  0.91882  1.0000 -0.5217737293
O   O81       1.0  0.30050  0.63750  0.45850  1.0000 -0.4074040602
O   O82       1.0  0.69950  0.36250  0.45850  1.0000 -0.4074040602
O   O83       1.0  0.36250  0.69950  0.54150  1.0000 -0.4074040602
O   O84       1.0  0.63750  0.30050  0.54150  1.0000 -0.4074040602
O   O85       1.0  0.19950  0.86250  0.04150  1.0000 -0.4074040602
O   O86       1.0  0.80050  0.13750  0.04150  1.0000 -0.4074040602
O   O87       1.0  0.13750  0.80050  0.95850  1.0000 -0.4074040602
O   O88       1.0  0.86250  0.19950  0.95850  1.0000 -0.4074040602
O   O89       1.0  0.20349  0.60911  0.48527  1.0000 -0.4700247223
O   O90       1.0  0.79651  0.39089  0.48527  1.0000 -0.4700247223
O   O91       1.0  0.39089  0.79651  0.51473  1.0000 -0.4700247223
O   O92       1.0  0.60911  0.20349  0.51473  1.0000 -0.4700247223
O   O93       1.0  0.29651  0.89089  0.01473  1.0000 -0.4700247223
O   O94       1.0  0.70349  0.10911  0.01473  1.0000 -0.4700247223
O   O95       1.0  0.10911  0.70349  0.98527  1.0000 -0.4700247223
O   O96       1.0  0.89089  0.29651  0.98527  1.0000 -0.4700247223
O   O97       1.0  0.64630  0.78830  0.65217  1.0000 -0.55627917
O   O98       1.0  0.35370  0.21170  0.65217  1.0000 -0.55627917
O   O99       1.0  0.21170  0.35370  0.34783  1.0000 -0.55627917
O   O100      1.0  0.78830  0.64630  0.34783  1.0000 -0.55627917
O   O101      1.0  0.85370  0.71170  0.84783  1.0000 -0.55627917
O   O102      1.0  0.14630  0.28830  0.84783  1.0000 -0.55627917
O   O103      1.0  0.28830  0.14630  0.15217  1.0000 -0.55627917
O   O104      1.0  0.71170  0.85370  0.15217  1.0000 -0.55627917
O   O105      1.0  0.78038  0.88162  0.64316  1.0000 -0.5513797403
O   O106      1.0  0.21962  0.11838  0.64316  1.0000 -0.5513797403
O   O107      1.0  0.11838  0.21962  0.35684  1.0000 -0.5513797403
O   O108      1.0  0.88162  0.78038  0.35684  1.0000 -0.5513797403
O   O109      1.0  0.71962  0.61838  0.85684  1.0000 -0.5513797403
O   O110      1.0  0.28038  0.38162  0.85684  1.0000 -0.5513797403
O   O111      1.0  0.38162  0.28038  0.14316  1.0000 -0.5513797403
O   O112      1.0  0.61838  0.71962  0.14316  1.0000 -0.5513797403
O   O113      1.0  0.95220  0.15400  0.68933  1.0000 -0.486253264
O   O114      1.0  0.04780  0.84600  0.68933  1.0000 -0.486253264
O   O115      1.0  0.84600  0.04780  0.31067  1.0000 -0.486253264
O   O116      1.0  0.15400  0.95220  0.31067  1.0000 -0.486253264
O   O117      1.0  0.54780  0.34600  0.81067  1.0000 -0.486253264
O   O118      1.0  0.45220  0.65400  0.81067  1.0000 -0.486253264
O   O119      1.0  0.65400  0.45220  0.18933  1.0000 -0.486253264
O   O120      1.0  0.34600  0.54780  0.18933  1.0000 -0.486253264
O   O121      1.0  0.89477  0.17983  0.71669  1.0000 -0.4990685104
O   O122      1.0  0.10523  0.82017  0.71669  1.0000 -0.4990685104
O   O123      1.0  0.82017  0.10523  0.28331  1.0000 -0.4990685104
O   O124      1.0  0.17983  0.89477  0.28331  1.0000 -0.4990685104
O   O125      1.0  0.60523  0.32017  0.78331  1.0000 -0.4990685104
O   O126      1.0  0.39477  0.67983  0.78331  1.0000 -0.4990685104
O   O127      1.0  0.67983  0.39477  0.21669  1.0000 -0.4990685104
O   O128      1.0  0.32017  0.60523  0.21669  1.0000 -0.4990685104
O   O129      1.0  0.63156  0.94524  0.77377  1.0000 -0.55627917
O   O130      1.0  0.36844  0.05476  0.77377  1.0000 -0.55627917
O   O131      1.0  0.05476  0.36844  0.22623  1.0000 -0.55627917
O   O132      1.0  0.94524  0.63156  0.22623  1.0000 -0.55627917
O   O133      1.0  0.86844  0.55476  0.72623  1.0000 -0.55627917
O   O134      1.0  0.13156  0.44524  0.72623  1.0000 -0.55627917
O   O135      1.0  0.44524  0.13156  0.27377  1.0000 -0.55627917
O   O136      1.0  0.55476  0.86844  0.27377  1.0000 -0.55627917
O   O137      1.0  0.57866  0.82294  0.76802  1.0000 -0.5271116318
O   O138      1.0  0.42134  0.17706  0.76802  1.0000 -0.5271116318
O   O139      1.0  0.17706  0.42134  0.23198  1.0000 -0.5271116318
O   O140      1.0  0.82294  0.57866  0.23198  1.0000 -0.5271116318
O   O141      1.0  0.92134  0.67706  0.73198  1.0000 -0.5271116318
O   O142      1.0  0.07866  0.32294  0.73198  1.0000 -0.5271116318
O   O143      1.0  0.32294  0.07866  0.26802  1.0000 -0.5271116318
O   O144      1.0  0.67706  0.92134  0.26802  1.0000 -0.5271116318
O   O145      1.0  0.10073  0.31047  0.65733  1.0000 -0.5271116318
O   O146      1.0  0.89927  0.68953  0.65733  1.0000 -0.5271116318
O   O147      1.0  0.68953  0.89927  0.34267  1.0000 -0.5271116318
O   O148      1.0  0.31047  0.10073  0.34267  1.0000 -0.5271116318
O   O149      1.0  0.39927  0.18953  0.84267  1.0000 -0.5271116318
O   O150      1.0  0.60073  0.81047  0.84267  1.0000 -0.5271116318
O   O151      1.0  0.81047  0.60073  0.15733  1.0000 -0.5271116318
O   O152      1.0  0.18953  0.39927  0.15733  1.0000 -0.5271116318
O   O153      1.0  0.18283  0.44297  0.65475  1.0000 -0.5513797403
O   O154      1.0  0.81717  0.55703  0.65475  1.0000 -0.5513797403
O   O155      1.0  0.55703  0.81717  0.34525  1.0000 -0.5513797403
O   O156      1.0  0.44297  0.18283  0.34525  1.0000 -0.5513797403
O   O157      1.0  0.31717  0.05703  0.84525  1.0000 -0.5513797403
O   O158      1.0  0.68283  0.94297  0.84525  1.0000 -0.5513797403
O   O159      1.0  0.94297  0.68283  0.15475  1.0000 -0.5513797403
O   O160      1.0  0.05703  0.31717  0.15475  1.0000 -0.5513797403
O   O161      1.0  0.17843  0.19257  0.60820  1.0000 -0.5271116318
O   O162      1.0  0.82157  0.80743  0.60820  1.0000 -0.5271116318
O   O163      1.0  0.80743  0.82157  0.39180  1.0000 -0.5271116318
O   O164      1.0  0.19257  0.17843  0.39180  1.0000 -0.5271116318
O   O165      1.0  0.32157  0.30743  0.89180  1.0000 -0.5271116318
O   O166      1.0  0.67843  0.69257  0.89180  1.0000 -0.5271116318
O   O167      1.0  0.69257  0.67843  0.10820  1.0000 -0.5271116318
O   O168      1.0  0.30743  0.32157  0.10820  1.0000 -0.5271116318
O   O169      1.0  0.30594  0.26886  0.59826  1.0000 -0.6234156738
O   O170      1.0  0.69406  0.73114  0.59826  1.0000 -0.6234156738
O   O171      1.0  0.73114  0.69406  0.40174  1.0000 -0.6234156738
O   O172      1.0  0.26886  0.30594  0.40174  1.0000 -0.6234156738
O   O173      1.0  0.19406  0.23114  0.90174  1.0000 -0.6234156738
O   O174      1.0  0.80594  0.76886  0.90174  1.0000 -0.6234156738
O   O175      1.0  0.76886  0.80594  0.09826  1.0000 -0.6234156738
O   O176      1.0  0.23114  0.19406  0.09826  1.0000 -0.6234156738
O   O177      1.0  0.50400  0.57600  0.59694  1.0000 -0.5271116318
O   O178      1.0  0.49600  0.42400  0.59694  1.0000 -0.5271116318
O   O179      1.0  0.42400  0.49600  0.40306  1.0000 -0.5271116318
O   O180      1.0  0.57600  0.50400  0.40306  1.0000 -0.5271116318
O   O181      1.0  0.99600  0.92400  0.90306  1.0000 -0.5271116318
O   O182      1.0  0.00400  0.07600  0.90306  1.0000 -0.5271116318
O   O183      1.0  0.07600  0.00400  0.09694  1.0000 -0.5271116318
O   O184      1.0  0.92400  0.99600  0.09694  1.0000 -0.5271116318
O   O185      1.0  0.47076  0.61784  0.63201  1.0000 -0.514430051
O   O186      1.0  0.52924  0.38216  0.63201  1.0000 -0.514430051
O   O187      1.0  0.38216  0.52924  0.36799  1.0000 -0.514430051
O   O188      1.0  0.61784  0.47076  0.36799  1.0000 -0.514430051
O   O189      1.0  0.02924  0.88216  0.86799  1.0000 -0.514430051
O   O190      1.0  0.97076  0.11784  0.86799  1.0000 -0.514430051
O   O191      1.0  0.11784  0.97076  0.13201  1.0000 -0.514430051
O   O192      1.0  0.88216  0.02924  0.13201  1.0000 -0.514430051
