# DDEC6 charges by PACMAN v1.1 (https://github.com/mtap-research/PACMAN-charge/)
data_2010[Eu][nan]3[ASR]1
_chemical_formula_sum              "Eu8 H48 C96 O48"
_cell_length_a       8.007
_cell_length_b       15.88
_cell_length_c       29.445
_cell_angle_alpha    90
_cell_angle_beta     90
_cell_angle_gamma    90

_symmetry_space_group_name_H-M    "P 1"
_symmetry_Int_Tables_number       1

loop_
  _symmetry_equiv_pos_as_xyz
  'x, y, z'

loop_
  _atom_site_type_symbol
  _atom_site_label
  _atom_site_symmetry_multiplicity
  _atom_site_fract_x
  _atom_site_fract_y
  _atom_site_fract_z
  _atom_site_occupancy
  _atom_site_charge
Eu  Eu1       1.0  0.55005  0.29318  0.41104  1.0000 2.0697141738
Eu  Eu2       1.0  0.94995  0.79318  0.58896  1.0000 2.0697141738
Eu  Eu3       1.0  0.05005  0.20682  0.08896  1.0000 2.0697141738
Eu  Eu4       1.0  0.44995  0.70682  0.91104  1.0000 2.0697141738
Eu  Eu5       1.0  0.44995  0.70682  0.58896  1.0000 2.0697141738
Eu  Eu6       1.0  0.05005  0.20682  0.41104  1.0000 2.0697141738
Eu  Eu7       1.0  0.94995  0.79318  0.91104  1.0000 2.0697141738
Eu  Eu8       1.0  0.55005  0.29318  0.08896  1.0000 2.0697141738
H   H1        1.0  0.72320  0.48520  0.50740  1.0000 0.1397444272
H   H2        1.0  0.77680  0.98520  0.49260  1.0000 0.1397444272
H   H3        1.0  0.22320  0.01480  0.99260  1.0000 0.1397444272
H   H4        1.0  0.27680  0.51480  0.00740  1.0000 0.1397444272
H   H5        1.0  0.27680  0.51480  0.49260  1.0000 0.1397444272
H   H6        1.0  0.22320  0.01480  0.50740  1.0000 0.1397444272
H   H7        1.0  0.77680  0.98520  0.00740  1.0000 0.1397444272
H   H8        1.0  0.72320  0.48520  0.99260  1.0000 0.1397444272
H   H9        1.0  0.99510  0.55310  0.61590  1.0000 0.1206631727
H   H10       1.0  0.50490  0.05310  0.38410  1.0000 0.1206631727
H   H11       1.0  0.49510  0.94690  0.88410  1.0000 0.1206631727
H   H12       1.0  0.00490  0.44690  0.11590  1.0000 0.1206631727
H   H13       1.0  0.00490  0.44690  0.38410  1.0000 0.1206631727
H   H14       1.0  0.49510  0.94690  0.61590  1.0000 0.1206631727
H   H15       1.0  0.50490  0.05310  0.11590  1.0000 0.1206631727
H   H16       1.0  0.99510  0.55310  0.88410  1.0000 0.1206631727
H   H17       1.0  0.13860  0.42590  0.61200  1.0000 0.1108985334
H   H18       1.0  0.36140  0.92590  0.38800  1.0000 0.1108985334
H   H19       1.0  0.63860  0.07410  0.88800  1.0000 0.1108985334
H   H20       1.0  0.86140  0.57410  0.11200  1.0000 0.1108985334
H   H21       1.0  0.86140  0.57410  0.38800  1.0000 0.1108985334
H   H22       1.0  0.63860  0.07410  0.61200  1.0000 0.1108985334
H   H23       1.0  0.36140  0.92590  0.11200  1.0000 0.1108985334
H   H24       1.0  0.13860  0.42590  0.88800  1.0000 0.1108985334
H   H25       1.0  0.08890  0.33410  0.55240  1.0000 0.1298046138
H   H26       1.0  0.41110  0.83410  0.44760  1.0000 0.1298046138
H   H27       1.0  0.58890  0.16590  0.94760  1.0000 0.1298046138
H   H28       1.0  0.91110  0.66590  0.05240  1.0000 0.1298046138
H   H29       1.0  0.91110  0.66590  0.44760  1.0000 0.1298046138
H   H30       1.0  0.58890  0.16590  0.55240  1.0000 0.1298046138
H   H31       1.0  0.41110  0.83410  0.05240  1.0000 0.1298046138
H   H32       1.0  0.08890  0.33410  0.94760  1.0000 0.1298046138
H   H33       1.0  0.21650  0.06740  0.31820  1.0000 0.1206631727
H   H34       1.0  0.28350  0.56740  0.68180  1.0000 0.1206631727
H   H35       1.0  0.71650  0.43260  0.18180  1.0000 0.1206631727
H   H36       1.0  0.78350  0.93260  0.81820  1.0000 0.1206631727
H   H37       1.0  0.78350  0.93260  0.68180  1.0000 0.1206631727
H   H38       1.0  0.71650  0.43260  0.31820  1.0000 0.1206631727
H   H39       1.0  0.28350  0.56740  0.81820  1.0000 0.1206631727
H   H40       1.0  0.21650  0.06740  0.18180  1.0000 0.1206631727
H   H41       1.0  0.14480  0.00430  0.25000  1.0000 0.1108985334
H   H42       1.0  0.35520  0.50430  0.75000  1.0000 0.1108985334
H   H43       1.0  0.64480  0.49570  0.25000  1.0000 0.1108985334
H   H44       1.0  0.85520  0.99570  0.75000  1.0000 0.1108985334
H   H45       1.0  0.45060  0.25190  0.25000  1.0000 0.1298046138
H   H46       1.0  0.04940  0.75190  0.75000  1.0000 0.1298046138
H   H47       1.0  0.95060  0.24810  0.25000  1.0000 0.1298046138
H   H48       1.0  0.54940  0.74810  0.75000  1.0000 0.1298046138
C   C1        1.0  0.86890  0.34270  0.48413  1.0000 0.6476490424
C   C2        1.0  0.63110  0.84270  0.51587  1.0000 0.6476490424
C   C3        1.0  0.36890  0.15730  0.01587  1.0000 0.6476490424
C   C4        1.0  0.13110  0.65730  0.98413  1.0000 0.6476490424
C   C5        1.0  0.13110  0.65730  0.51587  1.0000 0.6476490424
C   C6        1.0  0.36890  0.15730  0.48413  1.0000 0.6476490424
C   C7        1.0  0.63110  0.84270  0.98413  1.0000 0.6476490424
C   C8        1.0  0.86890  0.34270  0.01587  1.0000 0.6476490424
C   C9        1.0  0.90190  0.40080  0.52349  1.0000 -0.0418022542
C   C10       1.0  0.59810  0.90080  0.47651  1.0000 -0.0418022542
C   C11       1.0  0.40190  0.09920  0.97651  1.0000 -0.0418022542
C   C12       1.0  0.09810  0.59920  0.02349  1.0000 -0.0418022542
C   C13       1.0  0.09810  0.59920  0.47651  1.0000 -0.0418022542
C   C14       1.0  0.40190  0.09920  0.52349  1.0000 -0.0418022542
C   C15       1.0  0.59810  0.90080  0.02349  1.0000 -0.0418022542
C   C16       1.0  0.90190  0.40080  0.97651  1.0000 -0.0418022542
C   C17       1.0  0.81020  0.47450  0.52756  1.0000 -0.0961860761
C   C18       1.0  0.68980  0.97450  0.47244  1.0000 -0.0961860761
C   C19       1.0  0.31020  0.02550  0.97244  1.0000 -0.0961860761
C   C20       1.0  0.18980  0.52550  0.02756  1.0000 -0.0961860761
C   C21       1.0  0.18980  0.52550  0.47244  1.0000 -0.0961860761
C   C22       1.0  0.31020  0.02550  0.52756  1.0000 -0.0961860761
C   C23       1.0  0.68980  0.97450  0.02756  1.0000 -0.0961860761
C   C24       1.0  0.81020  0.47450  0.97244  1.0000 -0.0961860761
C   C25       1.0  0.84670  0.53230  0.56130  1.0000 -0.0418022542
C   C26       1.0  0.65330  0.03230  0.43870  1.0000 -0.0323664755
C   C27       1.0  0.34670  0.96770  0.93870  1.0000 -0.0323664755
C   C28       1.0  0.15330  0.46770  0.06130  1.0000 -0.0323664755
C   C29       1.0  0.15330  0.46770  0.43870  1.0000 -0.0323664755
C   C30       1.0  0.34670  0.96770  0.56130  1.0000 -0.0323664755
C   C31       1.0  0.65330  0.03230  0.06130  1.0000 -0.0323664755
C   C32       1.0  0.84670  0.53230  0.93870  1.0000 -0.0418022542
C   C33       1.0  0.97090  0.51470  0.59303  1.0000 -0.0893877852
C   C34       1.0  0.52910  0.01470  0.40697  1.0000 -0.0893877852
C   C35       1.0  0.47090  0.98530  0.90697  1.0000 -0.0893877852
C   C36       1.0  0.02910  0.48530  0.09303  1.0000 -0.0893877852
C   C37       1.0  0.02910  0.48530  0.40697  1.0000 -0.0893877852
C   C38       1.0  0.47090  0.98530  0.59303  1.0000 -0.0893877852
C   C39       1.0  0.52910  0.01470  0.09303  1.0000 -0.0893877852
C   C40       1.0  0.97090  0.51470  0.90697  1.0000 -0.0893877852
C   C41       1.0  0.05860  0.43910  0.59023  1.0000 -0.1068833159
C   C42       1.0  0.44140  0.93910  0.40977  1.0000 -0.1068833159
C   C43       1.0  0.55860  0.06090  0.90977  1.0000 -0.1068833159
C   C44       1.0  0.94140  0.56090  0.09023  1.0000 -0.1068833159
C   C45       1.0  0.94140  0.56090  0.40977  1.0000 -0.1068833159
C   C46       1.0  0.55860  0.06090  0.59023  1.0000 -0.1068833159
C   C47       1.0  0.44140  0.93910  0.09023  1.0000 -0.1068833159
C   C48       1.0  0.05860  0.43910  0.90977  1.0000 -0.1068833159
C   C49       1.0  0.02670  0.38340  0.55498  1.0000 -0.0893877852
C   C50       1.0  0.47330  0.88340  0.44502  1.0000 -0.0893877852
C   C51       1.0  0.52670  0.11660  0.94502  1.0000 -0.0893877852
C   C52       1.0  0.97330  0.61660  0.05498  1.0000 -0.0893877852
C   C53       1.0  0.97330  0.61660  0.44502  1.0000 -0.0893877852
C   C54       1.0  0.52670  0.11660  0.55498  1.0000 -0.0893877852
C   C55       1.0  0.47330  0.88340  0.05498  1.0000 -0.0893877852
C   C56       1.0  0.02670  0.38340  0.94502  1.0000 -0.0893877852
C   C57       1.0  0.74510  0.61150  0.56345  1.0000 0.5972504468
C   C58       1.0  0.75490  0.11150  0.43655  1.0000 0.5972504468
C   C59       1.0  0.24510  0.88850  0.93655  1.0000 0.5972504468
C   C60       1.0  0.25490  0.38850  0.06345  1.0000 0.5972504468
C   C61       1.0  0.25490  0.38850  0.43655  1.0000 0.5972504468
C   C62       1.0  0.24510  0.88850  0.56345  1.0000 0.5972504468
C   C63       1.0  0.75490  0.11150  0.06345  1.0000 0.5972504468
C   C64       1.0  0.74510  0.61150  0.93655  1.0000 0.5972504468
C   C65       1.0  0.38920  0.20810  0.33436  1.0000 0.6157226489
C   C66       1.0  0.11080  0.70810  0.66564  1.0000 0.6157226489
C   C67       1.0  0.88920  0.29190  0.16564  1.0000 0.6157226489
C   C68       1.0  0.61080  0.79190  0.83436  1.0000 0.6157226489
C   C69       1.0  0.61080  0.79190  0.66564  1.0000 0.6157226489
C   C70       1.0  0.88920  0.29190  0.33436  1.0000 0.6157226489
C   C71       1.0  0.11080  0.70810  0.83436  1.0000 0.6157226489
C   C72       1.0  0.38920  0.20810  0.16564  1.0000 0.6157226489
C   C73       1.0  0.33770  0.16700  0.29096  1.0000 -0.0323664755
C   C74       1.0  0.16230  0.66700  0.70904  1.0000 -0.0323664755
C   C75       1.0  0.83770  0.33300  0.20904  1.0000 -0.0323664755
C   C76       1.0  0.66230  0.83300  0.79096  1.0000 -0.0323664755
C   C77       1.0  0.66230  0.83300  0.70904  1.0000 -0.0323664755
C   C78       1.0  0.83770  0.33300  0.29096  1.0000 -0.0323664755
C   C79       1.0  0.16230  0.66700  0.79096  1.0000 -0.0323664755
C   C80       1.0  0.33770  0.16700  0.20904  1.0000 -0.0323664755
C   C81       1.0  0.24750  0.09220  0.29092  1.0000 -0.0893877852
C   C82       1.0  0.25250  0.59220  0.70908  1.0000 -0.0893877852
C   C83       1.0  0.74750  0.40780  0.20908  1.0000 -0.0893877852
C   C84       1.0  0.75250  0.90780  0.79092  1.0000 -0.0893877852
C   C85       1.0  0.75250  0.90780  0.70908  1.0000 -0.0893877852
C   C86       1.0  0.74750  0.40780  0.29092  1.0000 -0.0893877852
C   C87       1.0  0.25250  0.59220  0.79092  1.0000 -0.0893877852
C   C88       1.0  0.24750  0.09220  0.20908  1.0000 -0.0893877852
C   C89       1.0  0.20370  0.05470  0.25000  1.0000 -0.1068833159
C   C90       1.0  0.29630  0.55470  0.75000  1.0000 -0.1068833159
C   C91       1.0  0.70370  0.44530  0.25000  1.0000 -0.1068833159
C   C92       1.0  0.79630  0.94530  0.75000  1.0000 -0.1068833159
C   C93       1.0  0.38590  0.20320  0.25000  1.0000 -0.0893877852
C   C94       1.0  0.11410  0.70320  0.75000  1.0000 -0.0893877852
C   C95       1.0  0.88590  0.29680  0.25000  1.0000 -0.0893877852
C   C96       1.0  0.61410  0.79680  0.75000  1.0000 -0.0893877852
O   O1        1.0  0.73000  0.35045  0.46456  1.0000 -0.6716949789
O   O2        1.0  0.77000  0.85045  0.53544  1.0000 -0.6716949789
O   O3        1.0  0.23000  0.14955  0.03544  1.0000 -0.6716949789
O   O4        1.0  0.27000  0.64955  0.96456  1.0000 -0.6716949789
O   O5        1.0  0.27000  0.64955  0.53544  1.0000 -0.6716949789
O   O6        1.0  0.23000  0.14955  0.46456  1.0000 -0.6716949789
O   O7        1.0  0.77000  0.85045  0.96456  1.0000 -0.6716949789
O   O8        1.0  0.73000  0.35045  0.03544  1.0000 -0.6716949789
O   O9        1.0  0.98160  0.29151  0.47335  1.0000 -0.6557893305
O   O10       1.0  0.51840  0.79151  0.52665  1.0000 -0.6557893305
O   O11       1.0  0.48160  0.20849  0.02665  1.0000 -0.6557893305
O   O12       1.0  0.01840  0.70849  0.97335  1.0000 -0.6557893305
O   O13       1.0  0.01840  0.70849  0.52665  1.0000 -0.6557893305
O   O14       1.0  0.48160  0.20849  0.47335  1.0000 -0.6557893305
O   O15       1.0  0.51840  0.79151  0.97335  1.0000 -0.6557893305
O   O16       1.0  0.98160  0.29151  0.02665  1.0000 -0.6557893305
O   O17       1.0  0.77600  0.66698  0.59375  1.0000 -0.7375410422
O   O18       1.0  0.72400  0.16698  0.40625  1.0000 -0.7375410422
O   O19       1.0  0.27600  0.83302  0.90625  1.0000 -0.7375410422
O   O20       1.0  0.22400  0.33302  0.09375  1.0000 -0.7375410422
O   O21       1.0  0.22400  0.33302  0.40625  1.0000 -0.7375410422
O   O22       1.0  0.27600  0.83302  0.59375  1.0000 -0.7375410422
O   O23       1.0  0.72400  0.16698  0.09375  1.0000 -0.7375410422
O   O24       1.0  0.77600  0.66698  0.90625  1.0000 -0.7375410422
O   O25       1.0  0.32760  0.18330  0.37204  1.0000 -0.73019509
O   O26       1.0  0.17240  0.68330  0.62796  1.0000 -0.73019509
O   O27       1.0  0.82760  0.31670  0.12796  1.0000 -0.73019509
O   O28       1.0  0.67240  0.81670  0.87204  1.0000 -0.73019509
O   O29       1.0  0.67240  0.81670  0.62796  1.0000 -0.73019509
O   O30       1.0  0.82760  0.31670  0.37204  1.0000 -0.73019509
O   O31       1.0  0.17240  0.68330  0.87204  1.0000 -0.73019509
O   O32       1.0  0.32760  0.18330  0.12796  1.0000 -0.73019509
O   O33       1.0  0.62380  0.61895  0.53714  1.0000 -0.5821107774
O   O34       1.0  0.87620  0.11895  0.46286  1.0000 -0.5821107774
O   O35       1.0  0.12380  0.88105  0.96286  1.0000 -0.5821107774
O   O36       1.0  0.37620  0.38105  0.03714  1.0000 -0.5821107774
O   O37       1.0  0.37620  0.38105  0.46286  1.0000 -0.5821107774
O   O38       1.0  0.12380  0.88105  0.53714  1.0000 -0.5821107774
O   O39       1.0  0.87620  0.11895  0.03714  1.0000 -0.5821107774
O   O40       1.0  0.62380  0.61895  0.96286  1.0000 -0.5821107774
O   O41       1.0  0.49700  0.26553  0.33292  1.0000 -0.6168681382
O   O42       1.0  0.00300  0.76553  0.66708  1.0000 -0.6168681382
O   O43       1.0  0.99700  0.23447  0.16708  1.0000 -0.6168681382
O   O44       1.0  0.50300  0.73447  0.83292  1.0000 -0.6168681382
O   O45       1.0  0.50300  0.73447  0.66708  1.0000 -0.6168681382
O   O46       1.0  0.99700  0.23447  0.33292  1.0000 -0.6168681382
O   O47       1.0  0.00300  0.76553  0.83292  1.0000 -0.6168681382
O   O48       1.0  0.49700  0.26553  0.16708  1.0000 -0.6168681382
