# DDEC6 charges by PACMAN v1.1 (https://github.com/mtap-research/PACMAN-charge/)
data_2010[Nd][nan]3[ASR]1
_chemical_formula_sum              "Nd4 H12 C36 O24"
_cell_length_a       10.4278
_cell_length_b       10.4278
_cell_length_c       14.2602
_cell_angle_alpha    90
_cell_angle_beta     90
_cell_angle_gamma    90

_symmetry_space_group_name_H-M    "P 1"
_symmetry_Int_Tables_number       1

loop_
  _symmetry_equiv_pos_as_xyz
  'x, y, z'

loop_
  _atom_site_type_symbol
  _atom_site_label
  _atom_site_symmetry_multiplicity
  _atom_site_fract_x
  _atom_site_fract_y
  _atom_site_fract_z
  _atom_site_occupancy
  _atom_site_charge
Nd  Nd1       1.0  0.13114  0.86595  0.37527  1.0000 2.1311633304
Nd  Nd2       1.0  0.86886  0.13405  0.87527  1.0000 2.1311633304
Nd  Nd3       1.0  0.13405  0.13114  0.12527  1.0000 2.1311633304
Nd  Nd4       1.0  0.86595  0.86886  0.62527  1.0000 2.1311633304
H   H1        1.0  0.00600  0.12220  0.49980  1.0000 0.1131439522
H   H2        1.0  0.99400  0.87780  0.99980  1.0000 0.1131439522
H   H3        1.0  0.87780  0.00600  0.24980  1.0000 0.1131439522
H   H4        1.0  0.12220  0.99400  0.74980  1.0000 0.1131439522
H   H5        1.0  0.91730  0.45260  0.62190  1.0000 0.1387015895
H   H6        1.0  0.08270  0.54740  0.12190  1.0000 0.1387015895
H   H7        1.0  0.54740  0.91730  0.37190  1.0000 0.1387015895
H   H8        1.0  0.45260  0.08270  0.87190  1.0000 0.1387015895
H   H9        1.0  0.03530  0.44870  0.35650  1.0000 0.1387015895
H   H10       1.0  0.96470  0.55130  0.85650  1.0000 0.1387015895
H   H11       1.0  0.55130  0.03530  0.10650  1.0000 0.1387015895
H   H12       1.0  0.44870  0.96470  0.60650  1.0000 0.1387015895
C   C1        1.0  0.05610  0.19990  0.32450  1.0000 0.6138909177
C   C2        1.0  0.94390  0.80010  0.82450  1.0000 0.6138909177
C   C3        1.0  0.80010  0.05610  0.07450  1.0000 0.6138909177
C   C4        1.0  0.19990  0.94390  0.57450  1.0000 0.6138909177
C   C5        1.0  0.02150  0.27080  0.41130  1.0000 -0.0334840717
C   C6        1.0  0.97850  0.72920  0.91130  1.0000 -0.0334840717
C   C7        1.0  0.72920  0.02150  0.16130  1.0000 -0.0334840717
C   C8        1.0  0.27080  0.97850  0.66130  1.0000 -0.0334840717
C   C9        1.0  0.99660  0.21070  0.49630  1.0000 -0.1122870635
C   C10       1.0  0.00340  0.78930  0.99630  1.0000 -0.1122870635
C   C11       1.0  0.78930  0.99660  0.24630  1.0000 -0.1122870635
C   C12       1.0  0.21070  0.00340  0.74630  1.0000 -0.1122870635
C   C13       1.0  0.95930  0.27450  0.57410  1.0000 -0.0334840717
C   C14       1.0  0.04070  0.72550  0.07410  1.0000 -0.0334840717
C   C15       1.0  0.72550  0.95930  0.32410  1.0000 -0.0334840717
C   C16       1.0  0.27450  0.04070  0.82410  1.0000 -0.0334840717
C   C17       1.0  0.94690  0.40740  0.57000  1.0000 -0.0928779099
C   C18       1.0  0.05310  0.59260  0.07000  1.0000 -0.0928779099
C   C19       1.0  0.59260  0.94690  0.32000  1.0000 -0.0928779099
C   C20       1.0  0.40740  0.05310  0.82000  1.0000 -0.0928779099
C   C21       1.0  0.97840  0.47150  0.48940  1.0000 -0.0334840717
C   C22       1.0  0.02160  0.52850  0.98940  1.0000 -0.0334840717
C   C23       1.0  0.52850  0.97840  0.23940  1.0000 -0.0334840717
C   C24       1.0  0.47150  0.02160  0.73940  1.0000 -0.0334840717
C   C25       1.0  0.01480  0.40420  0.41100  1.0000 -0.0928779099
C   C26       1.0  0.98520  0.59580  0.91100  1.0000 -0.0928779099
C   C27       1.0  0.59580  0.01480  0.16100  1.0000 -0.0928779099
C   C28       1.0  0.40420  0.98520  0.66100  1.0000 -0.0928779099
C   C29       1.0  0.92800  0.20420  0.66290  1.0000 0.6335794643
C   C30       1.0  0.07200  0.79580  0.16290  1.0000 0.6335794643
C   C31       1.0  0.79580  0.92800  0.41290  1.0000 0.6335794643
C   C32       1.0  0.20420  0.07200  0.91290  1.0000 0.6335794643
C   C33       1.0  0.97160  0.62090  0.48690  1.0000 0.6527168319
C   C34       1.0  0.02840  0.37910  0.98690  1.0000 0.6527168319
C   C35       1.0  0.37910  0.97160  0.23690  1.0000 0.6527168319
C   C36       1.0  0.62090  0.02840  0.73690  1.0000 0.6527168319
O   O1        1.0  0.10140  0.09060  0.32740  1.0000 -0.6976543053
O   O2        1.0  0.89860  0.90940  0.82740  1.0000 -0.6976543053
O   O3        1.0  0.90940  0.10140  0.07740  1.0000 -0.6976543053
O   O4        1.0  0.09060  0.89860  0.57740  1.0000 -0.6976543053
O   O5        1.0  0.04020  0.25850  0.24790  1.0000 -0.6335122272
O   O6        1.0  0.95980  0.74150  0.74790  1.0000 -0.6335122272
O   O7        1.0  0.74150  0.04020  0.99790  1.0000 -0.6335122272
O   O8        1.0  0.25850  0.95980  0.49790  1.0000 -0.6335122272
O   O9        1.0  0.92430  0.08250  0.66290  1.0000 -0.7474389359
O   O10       1.0  0.07570  0.91750  0.16290  1.0000 -0.7474389359
O   O11       1.0  0.91750  0.92430  0.41290  1.0000 -0.7474389359
O   O12       1.0  0.08250  0.07570  0.91290  1.0000 -0.7474389359
O   O13       1.0  0.90490  0.26800  0.73570  1.0000 -0.6201914235
O   O14       1.0  0.09510  0.73200  0.23570  1.0000 -0.6201914235
O   O15       1.0  0.73200  0.90490  0.48570  1.0000 -0.6201914235
O   O16       1.0  0.26800  0.09510  0.98570  1.0000 -0.6201914235
O   O17       1.0  0.91140  0.67320  0.55060  1.0000 -0.6582723989
O   O18       1.0  0.08860  0.32680  0.05060  1.0000 -0.6582723989
O   O19       1.0  0.32680  0.91140  0.30060  1.0000 -0.6582723989
O   O20       1.0  0.67320  0.08860  0.80060  1.0000 -0.6582723989
O   O21       1.0  0.02800  0.67300  0.42080  1.0000 -0.6663332864
O   O22       1.0  0.97200  0.32700  0.92080  1.0000 -0.6663332864
O   O23       1.0  0.32700  0.02800  0.17080  1.0000 -0.6663332864
O   O24       1.0  0.67300  0.97200  0.67080  1.0000 -0.6663332864
