# DDEC6 charges by PACMAN v1.1 (https://github.com/mtap-research/PACMAN-charge/)
data_2010[Cu][rtl]3[ASR]1
_chemical_formula_sum              "Cu4 H16 C36 N16 O16"
_cell_length_a       10.922
_cell_length_b       11.402
_cell_length_c       14.654
_cell_angle_alpha    90
_cell_angle_beta     109.3
_cell_angle_gamma    90

_symmetry_space_group_name_H-M    "P 1"
_symmetry_Int_Tables_number       1

loop_
  _symmetry_equiv_pos_as_xyz
  'x, y, z'

loop_
  _atom_site_type_symbol
  _atom_site_label
  _atom_site_symmetry_multiplicity
  _atom_site_fract_x
  _atom_site_fract_y
  _atom_site_fract_z
  _atom_site_occupancy
  _atom_site_charge
Cu  Cu1       1.0  0.40685  0.41843  0.97658  1.0000 0.7773862636
Cu  Cu2       1.0  0.59315  0.91843  0.52342  1.0000 0.7773862636
Cu  Cu3       1.0  0.59315  0.58157  0.02342  1.0000 0.7773862636
Cu  Cu4       1.0  0.40685  0.08157  0.47658  1.0000 0.7773862636
H   H1        1.0  0.87840  0.37290  0.94160  1.0000 0.1314682519
H   H2        1.0  0.12160  0.87290  0.55840  1.0000 0.1314682519
H   H3        1.0  0.12160  0.62710  0.05840  1.0000 0.1314682519
H   H4        1.0  0.87840  0.12710  0.44160  1.0000 0.1314682519
H   H5        1.0  0.88040  0.13400  0.73730  1.0000 0.1373072701
H   H6        1.0  0.11960  0.63400  0.76270  1.0000 0.1373072701
H   H7        1.0  0.11960  0.86600  0.26270  1.0000 0.1373072701
H   H8        1.0  0.88040  0.36600  0.23730  1.0000 0.1373072701
H   H9        1.0  0.54150  0.25340  0.75890  1.0000 0.1500995016
H   H10       1.0  0.45850  0.75340  0.74110  1.0000 0.1500995016
H   H11       1.0  0.45850  0.74660  0.24110  1.0000 0.1500995016
H   H12       1.0  0.54150  0.24660  0.25890  1.0000 0.1500995016
H   H13       1.0  0.09320  0.42210  0.90680  1.0000 0.1373072701
H   H14       1.0  0.90680  0.92210  0.59320  1.0000 0.1373072701
H   H15       1.0  0.90680  0.57790  0.09320  1.0000 0.1373072701
H   H16       1.0  0.09320  0.07790  0.40680  1.0000 0.1373072701
C   C1        1.0  0.62540  0.39170  0.90930  1.0000 0.5730273878
C   C2        1.0  0.37460  0.89170  0.59070  1.0000 0.5730273878
C   C3        1.0  0.37460  0.60830  0.09070  1.0000 0.5730273878
C   C4        1.0  0.62540  0.10830  0.40930  1.0000 0.5730273878
C   C5        1.0  0.69950  0.32470  0.85900  1.0000 -0.0093875909
C   C6        1.0  0.30050  0.82470  0.64100  1.0000 -0.0093875909
C   C7        1.0  0.30050  0.67530  0.14100  1.0000 -0.0093875909
C   C8        1.0  0.69950  0.17530  0.35900  1.0000 -0.0093875909
C   C9        1.0  0.83220  0.32440  0.89090  1.0000 -0.1837353402
C   C10       1.0  0.16780  0.82440  0.60910  1.0000 -0.1837353402
C   C11       1.0  0.16780  0.67560  0.10910  1.0000 -0.1837353402
C   C12       1.0  0.83220  0.17560  0.39090  1.0000 -0.1837353402
C   C13       1.0  0.89730  0.25080  0.84690  1.0000 0.1500995016
C   C14       1.0  0.10270  0.75080  0.65310  1.0000 0.1500995016
C   C15       1.0  0.10270  0.74920  0.15310  1.0000 0.1500995016
C   C16       1.0  0.89730  0.24920  0.34690  1.0000 0.1500995016
C   C17       1.0  0.83470  0.18000  0.76740  1.0000 -0.1745532298
C   C18       1.0  0.16530  0.68000  0.73260  1.0000 -0.1745532298
C   C19       1.0  0.16530  0.82000  0.23260  1.0000 -0.1745532298
C   C20       1.0  0.83470  0.32000  0.26740  1.0000 -0.1745532298
C   C21       1.0  0.69930  0.18250  0.73580  1.0000 0.0022515404
C   C22       1.0  0.30070  0.68250  0.76420  1.0000 0.0022515404
C   C23       1.0  0.30070  0.81750  0.26420  1.0000 0.0022515404
C   C24       1.0  0.69930  0.31750  0.23580  1.0000 0.0022515404
C   C25       1.0  0.63170  0.25350  0.78090  1.0000 -0.0961302811
C   C26       1.0  0.36830  0.75350  0.71910  1.0000 -0.0961302811
C   C27       1.0  0.36830  0.74650  0.21910  1.0000 -0.0961302811
C   C28       1.0  0.63170  0.24650  0.28090  1.0000 -0.0961302811
C   C29       1.0  0.62690  0.11220  0.64910  1.0000 0.5730273878
C   C30       1.0  0.37310  0.61220  0.85090  1.0000 0.5730273878
C   C31       1.0  0.37310  0.88780  0.35090  1.0000 0.5730273878
C   C32       1.0  0.62690  0.38780  0.14910  1.0000 0.5730273878
C   C33       1.0  0.11760  0.34390  0.90740  1.0000 0.0559487237
C   C34       1.0  0.88240  0.84390  0.59260  1.0000 0.054680276
C   C35       1.0  0.88240  0.65610  0.09260  1.0000 0.054680276
C   C36       1.0  0.11760  0.15610  0.40740  1.0000 0.054680276
N   N1        1.0  0.03760  0.25190  0.88120  1.0000 0.1192490613
N   N2        1.0  0.96240  0.75190  0.61880  1.0000 0.1192490613
N   N3        1.0  0.96240  0.74810  0.11880  1.0000 0.1192490613
N   N4        1.0  0.03760  0.24810  0.38120  1.0000 0.1192490613
N   N5        1.0  0.10930  0.15410  0.89230  1.0000 -0.1132559081
N   N6        1.0  0.89070  0.65410  0.60770  1.0000 -0.1132559081
N   N7        1.0  0.89070  0.84590  0.10770  1.0000 -0.1132559081
N   N8        1.0  0.10930  0.34590  0.39230  1.0000 -0.1132559081
N   N9        1.0  0.22970  0.18760  0.92380  1.0000 -0.0236938198
N   N10       1.0  0.77030  0.68760  0.57620  1.0000 -0.0236938198
N   N11       1.0  0.77030  0.81240  0.07620  1.0000 -0.0236938198
N   N12       1.0  0.22970  0.31240  0.42380  1.0000 -0.0236938198
N   N13       1.0  0.23930  0.30260  0.93470  1.0000 -0.1895265685
N   N14       1.0  0.76070  0.80260  0.56530  1.0000 -0.1895265685
N   N15       1.0  0.76070  0.69740  0.06530  1.0000 -0.1895265685
N   N16       1.0  0.23930  0.19740  0.43470  1.0000 -0.1895265685
O   O1        1.0  0.51750  0.35290  0.90740  1.0000 -0.4983599577
O   O2        1.0  0.48250  0.85290  0.59260  1.0000 -0.4983599577
O   O3        1.0  0.48250  0.64710  0.09260  1.0000 -0.4983599577
O   O4        1.0  0.51750  0.14710  0.40740  1.0000 -0.4983599577
O   O5        1.0  0.67760  0.48370  0.94950  1.0000 -0.4983599577
O   O6        1.0  0.32240  0.98370  0.55050  1.0000 -0.4983599577
O   O7        1.0  0.32240  0.51630  0.05050  1.0000 -0.4983599577
O   O8        1.0  0.67760  0.01630  0.44950  1.0000 -0.4983599577
O   O9        1.0  0.51610  0.15250  0.59760  1.0000 -0.5208582127
O   O10       1.0  0.48390  0.65250  0.90240  1.0000 -0.5208582127
O   O11       1.0  0.48390  0.84750  0.40240  1.0000 -0.5208582127
O   O12       1.0  0.51610  0.34750  0.09760  1.0000 -0.5208582127
O   O13       1.0  0.67840  0.02020  0.63560  1.0000 -0.4983599577
O   O14       1.0  0.32160  0.52020  0.86440  1.0000 -0.4983599577
O   O15       1.0  0.32160  0.97980  0.36440  1.0000 -0.4983599577
O   O16       1.0  0.67840  0.47980  0.13560  1.0000 -0.4983599577
