# DDEC6 charges by PACMAN v1.1 (https://github.com/mtap-research/PACMAN-charge/)
data_2010[Zn][ins]3[ASR]1
_chemical_formula_sum              "Zn8 H60 C72 N12 O32"
_cell_length_a       10.0245
_cell_length_b       10.8912
_cell_length_c       20.7145
_cell_angle_alpha    90
_cell_angle_beta     90
_cell_angle_gamma    90

_symmetry_space_group_name_H-M    "P 1"
_symmetry_Int_Tables_number       1

loop_
  _symmetry_equiv_pos_as_xyz
  'x, y, z'

loop_
  _atom_site_type_symbol
  _atom_site_label
  _atom_site_symmetry_multiplicity
  _atom_site_fract_x
  _atom_site_fract_y
  _atom_site_fract_z
  _atom_site_occupancy
  _atom_site_charge
Zn  Zn1       1.0  0.11395  0.89363  0.17202  1.0000 0.7812572794
Zn  Zn2       1.0  0.38605  0.10637  0.67202  1.0000 0.7812572794
Zn  Zn3       1.0  0.88605  0.39363  0.32798  1.0000 0.7812572794
Zn  Zn4       1.0  0.61395  0.60637  0.82798  1.0000 0.7812572794
Zn  Zn5       1.0  0.62250  0.87476  0.20859  1.0000 0.8497659342
Zn  Zn6       1.0  0.87750  0.12524  0.70859  1.0000 0.8497659342
Zn  Zn7       1.0  0.37750  0.37476  0.29141  1.0000 0.8497659342
Zn  Zn8       1.0  0.12250  0.62524  0.79141  1.0000 0.8497659342
H   H1        1.0  0.11949  0.06349  0.25794  1.0000 0.2554423886
H   H2        1.0  0.38051  0.93651  0.75794  1.0000 0.2554423886
H   H3        1.0  0.88051  0.56349  0.24206  1.0000 0.2554423886
H   H4        1.0  0.61949  0.43651  0.74206  1.0000 0.2554423886
H   H5        1.0  0.22303  0.84127  0.32054  1.0000 0.0913455792
H   H6        1.0  0.27697  0.15873  0.82054  1.0000 0.0913455792
H   H7        1.0  0.77697  0.34127  0.17946  1.0000 0.0913455792
H   H8        1.0  0.72303  0.65873  0.67946  1.0000 0.0913455792
H   H9        1.0  0.22409  0.03865  0.38827  1.0000 0.1193259273
H   H10       1.0  0.27591  0.96135  0.88827  1.0000 0.1193259273
H   H11       1.0  0.77591  0.53865  0.11173  1.0000 0.1193259273
H   H12       1.0  0.72409  0.46135  0.61173  1.0000 0.1193259273
H   H13       1.0  0.38759  0.99011  0.36978  1.0000 0.1193259273
H   H14       1.0  0.11241  0.00989  0.86978  1.0000 0.1193259273
H   H15       1.0  0.61241  0.49011  0.13022  1.0000 0.1193259273
H   H16       1.0  0.88759  0.50989  0.63022  1.0000 0.1193259273
H   H17       1.0  0.00516  0.84216  0.31661  1.0000 0.0913455792
H   H18       1.0  0.49484  0.15784  0.81661  1.0000 0.0913455792
H   H19       1.0  0.99484  0.34216  0.18339  1.0000 0.0913455792
H   H20       1.0  0.50516  0.65784  0.68339  1.0000 0.0913455792
H   H21       1.0  0.86098  0.99326  0.37602  1.0000 0.1193259273
H   H22       1.0  0.63902  0.00674  0.87602  1.0000 0.1193259273
H   H23       1.0  0.13902  0.49326  0.12398  1.0000 0.1193259273
H   H24       1.0  0.36098  0.50674  0.62398  1.0000 0.1193259273
H   H25       1.0  0.03032  0.03256  0.39003  1.0000 0.1080053344
H   H26       1.0  0.46968  0.96744  0.89003  1.0000 0.1080053344
H   H27       1.0  0.96968  0.53256  0.10997  1.0000 0.1080053344
H   H28       1.0  0.53032  0.46744  0.60997  1.0000 0.1080053344
H   H29       1.0  0.97008  0.94027  0.05091  1.0000 0.101637969
H   H30       1.0  0.52992  0.05973  0.55091  1.0000 0.101637969
H   H31       1.0  0.02992  0.44027  0.44909  1.0000 0.101637969
H   H32       1.0  0.47008  0.55973  0.94909  1.0000 0.101637969
H   H33       1.0  0.95472  0.10547  0.96715  1.0000 0.1080053344
H   H34       1.0  0.54528  0.89453  0.46715  1.0000 0.1080053344
H   H35       1.0  0.04528  0.60547  0.53285  1.0000 0.1080053344
H   H36       1.0  0.45472  0.39453  0.03285  1.0000 0.1080053344
H   H37       1.0  0.26825  0.29738  0.07037  1.0000 0.1080053344
H   H38       1.0  0.23175  0.70262  0.57037  1.0000 0.1080053344
H   H39       1.0  0.73175  0.79738  0.42963  1.0000 0.1080053344
H   H40       1.0  0.76825  0.20262  0.92963  1.0000 0.1080053344
H   H41       1.0  0.26406  0.12878  0.15189  1.0000 0.1080053344
H   H42       1.0  0.23594  0.87122  0.65189  1.0000 0.1080053344
H   H43       1.0  0.73594  0.62878  0.34811  1.0000 0.1080053344
H   H44       1.0  0.76406  0.37122  0.84811  1.0000 0.1080053344
H   H45       1.0  0.21064  0.60713  0.92512  1.0000 0.1080053344
H   H46       1.0  0.28936  0.39287  0.42512  1.0000 0.1080053344
H   H47       1.0  0.78936  0.10713  0.57488  1.0000 0.1080053344
H   H48       1.0  0.71064  0.89287  0.07488  1.0000 0.1080053344
H   H49       1.0  0.20877  0.45607  0.01623  1.0000 0.1193259273
H   H50       1.0  0.29123  0.54393  0.51623  1.0000 0.1193259273
H   H51       1.0  0.79123  0.95607  0.48377  1.0000 0.1193259273
H   H52       1.0  0.70877  0.04393  0.98377  1.0000 0.1193259273
H   H53       1.0  0.01917  0.19860  0.88416  1.0000 0.1193259273
H   H54       1.0  0.48083  0.80140  0.38416  1.0000 0.1193259273
H   H55       1.0  0.98083  0.69860  0.61584  1.0000 0.1193259273
H   H56       1.0  0.51917  0.30140  0.11584  1.0000 0.1193259273
H   H57       1.0  0.02004  0.36062  0.80192  1.0000 0.1080053344
H   H58       1.0  0.47996  0.63938  0.30192  1.0000 0.1080053344
H   H59       1.0  0.97996  0.86062  0.69808  1.0000 0.1080053344
H   H60       1.0  0.52004  0.13938  0.19808  1.0000 0.1080053344
C   C1        1.0  0.35219  0.90662  0.24672  1.0000 0.5832998829
C   C2        1.0  0.14781  0.09338  0.74672  1.0000 0.5832998829
C   C3        1.0  0.64781  0.40662  0.25328  1.0000 0.5832998829
C   C4        1.0  0.85219  0.59338  0.75328  1.0000 0.5832998829
C   C5        1.0  0.24291  0.93166  0.29785  1.0000 0.0288211407
C   C6        1.0  0.25709  0.06834  0.79785  1.0000 0.0288211407
C   C7        1.0  0.75709  0.43166  0.20215  1.0000 0.0288211407
C   C8        1.0  0.74291  0.56834  0.70215  1.0000 0.0288211407
C   C9        1.0  0.29402  0.02367  0.34781  1.0000 -0.3210507145
C   C10       1.0  0.20598  0.97633  0.84781  1.0000 -0.3210507145
C   C11       1.0  0.70598  0.52367  0.15219  1.0000 -0.3210507145
C   C12       1.0  0.79402  0.47633  0.65219  1.0000 -0.3210507145
C   C13       1.0  0.32512  0.14745  0.31707  1.0000 0.6284489112
C   C14       1.0  0.17488  0.85255  0.81707  1.0000 0.6284489112
C   C15       1.0  0.67488  0.64745  0.18293  1.0000 0.6284489112
C   C16       1.0  0.82512  0.35255  0.68293  1.0000 0.6284489112
C   C17       1.0  0.87931  0.92759  0.24822  1.0000 0.587846704
C   C18       1.0  0.62069  0.07241  0.74822  1.0000 0.587846704
C   C19       1.0  0.12069  0.42759  0.25178  1.0000 0.587846704
C   C20       1.0  0.37931  0.57241  0.75178  1.0000 0.587846704
C   C21       1.0  0.99225  0.93718  0.29830  1.0000 0.0288211407
C   C22       1.0  0.50775  0.06282  0.79830  1.0000 0.0288211407
C   C23       1.0  0.00775  0.43718  0.20170  1.0000 0.0288211407
C   C24       1.0  0.49225  0.56282  0.70170  1.0000 0.0288211407
C   C25       1.0  0.95311  0.02554  0.35222  1.0000 -0.3210507145
C   C26       1.0  0.54689  0.97446  0.85222  1.0000 -0.3210507145
C   C27       1.0  0.04689  0.52554  0.14778  1.0000 -0.3210507145
C   C28       1.0  0.45311  0.47446  0.64778  1.0000 -0.3210507145
C   C29       1.0  0.92623  0.15570  0.32794  1.0000 0.6284489112
C   C30       1.0  0.57377  0.84430  0.82794  1.0000 0.6284489112
C   C31       1.0  0.07377  0.65570  0.17206  1.0000 0.6284489112
C   C32       1.0  0.42623  0.34430  0.67206  1.0000 0.6284489112
C   C33       1.0  0.03467  0.02155  0.05245  1.0000 0.101637969
C   C34       1.0  0.46533  0.97845  0.55245  1.0000 0.101637969
C   C35       1.0  0.96533  0.52155  0.44755  1.0000 0.101637969
C   C36       1.0  0.53467  0.47845  0.94755  1.0000 0.101637969
C   C37       1.0  0.02812  0.11313  0.00581  1.0000 -0.1782058066
C   C38       1.0  0.47188  0.88687  0.50581  1.0000 -0.1782058066
C   C39       1.0  0.97188  0.61313  0.49419  1.0000 -0.1782058066
C   C40       1.0  0.52812  0.38687  0.99419  1.0000 -0.1782058066
C   C41       1.0  0.11407  0.21548  0.00962  1.0000 0.101637969
C   C42       1.0  0.38593  0.78452  0.50962  1.0000 0.101637969
C   C43       1.0  0.88593  0.71548  0.49038  1.0000 0.101637969
C   C44       1.0  0.61407  0.28452  0.99038  1.0000 0.101637969
C   C45       1.0  0.20006  0.22040  0.06321  1.0000 -0.1679325903
C   C46       1.0  0.29994  0.77960  0.56321  1.0000 -0.1679325903
C   C47       1.0  0.79994  0.72040  0.43679  1.0000 -0.1679325903
C   C48       1.0  0.70006  0.27960  0.93679  1.0000 -0.1679325903
C   C49       1.0  0.20035  0.12625  0.10879  1.0000 0.1080053344
C   C50       1.0  0.29965  0.87375  0.60879  1.0000 0.1080053344
C   C51       1.0  0.79965  0.62625  0.39121  1.0000 0.1080053344
C   C52       1.0  0.70035  0.37375  0.89121  1.0000 0.1080053344
C   C53       1.0  0.16840  0.51499  0.91939  1.0000 0.101637969
C   C54       1.0  0.33160  0.48501  0.41939  1.0000 0.101637969
C   C55       1.0  0.83160  0.01499  0.58061  1.0000 0.101637969
C   C56       1.0  0.66840  0.98501  0.08061  1.0000 0.101637969
C   C57       1.0  0.16737  0.42941  0.96944  1.0000 -0.1782058066
C   C58       1.0  0.33263  0.57059  0.46944  1.0000 -0.1782058066
C   C59       1.0  0.83263  0.92941  0.53056  1.0000 -0.1782058066
C   C60       1.0  0.66737  0.07059  0.03056  1.0000 -0.1782058066
C   C61       1.0  0.11287  0.31186  0.95927  1.0000 0.0913455792
C   C62       1.0  0.38713  0.68814  0.45927  1.0000 0.0913455792
C   C63       1.0  0.88713  0.81186  0.54073  1.0000 0.0913455792
C   C64       1.0  0.61287  0.18814  0.04073  1.0000 0.0913455792
C   C65       1.0  0.06014  0.28787  0.89751  1.0000 -0.1679325903
C   C66       1.0  0.43986  0.71213  0.39751  1.0000 -0.1679325903
C   C67       1.0  0.93986  0.78787  0.60249  1.0000 -0.1679325903
C   C68       1.0  0.56014  0.21213  0.10249  1.0000 -0.1679325903
C   C69       1.0  0.06320  0.37803  0.84981  1.0000 0.1193259273
C   C70       1.0  0.43680  0.62197  0.34981  1.0000 0.1193259273
C   C71       1.0  0.93680  0.87803  0.65019  1.0000 0.1193259273
C   C72       1.0  0.56320  0.12197  0.15019  1.0000 0.1193259273
N   N1        1.0  0.11820  0.96933  0.26532  1.0000 -0.3623197151
N   N2        1.0  0.38180  0.03067  0.76532  1.0000 -0.3623197151
N   N3        1.0  0.88180  0.46933  0.23468  1.0000 -0.3623197151
N   N4        1.0  0.61820  0.53067  0.73468  1.0000 -0.3623197151
N   N5        1.0  0.12028  0.02649  0.10279  1.0000 -0.2111481501
N   N6        1.0  0.37972  0.97351  0.60279  1.0000 -0.2111481501
N   N7        1.0  0.87972  0.52649  0.39721  1.0000 -0.2111481501
N   N8        1.0  0.62028  0.47351  0.89721  1.0000 -0.2111481501
N   N9        1.0  0.11655  0.49027  0.86023  1.0000 -0.220392443
N   N10       1.0  0.38345  0.50973  0.36023  1.0000 -0.220392443
N   N11       1.0  0.88345  0.99027  0.63977  1.0000 -0.220392443
N   N12       1.0  0.61655  0.00973  0.13977  1.0000 -0.220392443
O   O1        1.0  0.32200  0.89661  0.18774  1.0000 -0.5268990321
O   O2        1.0  0.17800  0.10339  0.68774  1.0000 -0.5268990321
O   O3        1.0  0.67800  0.39661  0.31226  1.0000 -0.5268990321
O   O4        1.0  0.82200  0.60339  0.81226  1.0000 -0.5268990321
O   O5        1.0  0.47109  0.89347  0.26925  1.0000 -0.542615108
O   O6        1.0  0.02891  0.10653  0.76925  1.0000 -0.542615108
O   O7        1.0  0.52891  0.39347  0.23075  1.0000 -0.542615108
O   O8        1.0  0.97109  0.60653  0.73075  1.0000 -0.542615108
O   O9        1.0  0.31728  0.16052  0.25619  1.0000 -0.5511036141
O   O10       1.0  0.18272  0.83948  0.75619  1.0000 -0.5511036141
O   O11       1.0  0.68272  0.66052  0.24381  1.0000 -0.5511036141
O   O12       1.0  0.81728  0.33948  0.74381  1.0000 -0.5511036141
O   O13       1.0  0.35782  0.23614  0.35521  1.0000 -0.5604530496
O   O14       1.0  0.14218  0.76386  0.85521  1.0000 -0.5604530496
O   O15       1.0  0.64218  0.73614  0.14479  1.0000 -0.5604530496
O   O16       1.0  0.85782  0.26386  0.64479  1.0000 -0.5604530496
O   O17       1.0  0.90585  0.91602  0.18857  1.0000 -0.5511036141
O   O18       1.0  0.59415  0.08398  0.68857  1.0000 -0.5511036141
O   O19       1.0  0.09415  0.41602  0.31143  1.0000 -0.5511036141
O   O20       1.0  0.40585  0.58398  0.81143  1.0000 -0.5511036141
O   O21       1.0  0.76111  0.92521  0.27186  1.0000 -0.5268990321
O   O22       1.0  0.73889  0.07479  0.77186  1.0000 -0.5268990321
O   O23       1.0  0.23889  0.42521  0.22814  1.0000 -0.5268990321
O   O24       1.0  0.26111  0.57479  0.72814  1.0000 -0.5268990321
O   O25       1.0  0.92837  0.18055  0.26837  1.0000 -0.5687109156
O   O26       1.0  0.57163  0.81945  0.76837  1.0000 -0.5687109156
O   O27       1.0  0.07163  0.68055  0.23163  1.0000 -0.5687109156
O   O28       1.0  0.42837  0.31945  0.73163  1.0000 -0.5687109156
O   O29       1.0  0.90341  0.23536  0.37347  1.0000 -0.5687109156
O   O30       1.0  0.59659  0.76464  0.87347  1.0000 -0.5687109156
O   O31       1.0  0.09659  0.73536  0.12653  1.0000 -0.5687109156
O   O32       1.0  0.40341  0.26464  0.62653  1.0000 -0.5687109156
