# DDEC6 charges by PACMAN v1.1 (https://github.com/mtap-research/PACMAN-charge/)
data_2010[U][nan]3[ASR]1
_chemical_formula_sum              "U12 H28 C72 O60"
_cell_length_a       8.6591
_cell_length_b       32.508
_cell_length_c       9.979
_cell_angle_alpha    90
_cell_angle_beta     97.77
_cell_angle_gamma    90

_symmetry_space_group_name_H-M    "P 1"
_symmetry_Int_Tables_number       1

loop_
  _symmetry_equiv_pos_as_xyz
  'x, y, z'

loop_
  _atom_site_type_symbol
  _atom_site_label
  _atom_site_symmetry_multiplicity
  _atom_site_fract_x
  _atom_site_fract_y
  _atom_site_fract_z
  _atom_site_occupancy
  _atom_site_charge
U   U1        1.0  0.69107  0.80875  0.72889  1.0000 2.0086804564
U   U2        1.0  0.30893  0.30875  0.27111  1.0000 2.0086804564
U   U3        1.0  0.30893  0.19125  0.27111  1.0000 2.0086804564
U   U4        1.0  0.69107  0.69125  0.72889  1.0000 2.0086804564
U   U5        1.0  0.44097  0.75000  0.44500  1.0000 1.9375398095
U   U6        1.0  0.55903  0.25000  0.55500  1.0000 1.9375398095
U   U7        1.0  0.07395  0.75000  0.99582  1.0000 2.1392555769
U   U8        1.0  0.92605  0.25000  0.00418  1.0000 2.1516993578
U   U9        1.0  0.83402  0.04055  0.23024  1.0000 1.8589234884
U   U10       1.0  0.16598  0.54055  0.76976  1.0000 1.8538501795
U   U11       1.0  0.16598  0.95945  0.76976  1.0000 1.8538501795
U   U12       1.0  0.83402  0.45945  0.23024  1.0000 1.8589234884
H   H1        1.0  0.35510  0.85830  0.60180  1.0000 0.2925074036
H   H2        1.0  0.64490  0.35830  0.39820  1.0000 0.2925074036
H   H3        1.0  0.64490  0.14170  0.39820  1.0000 0.2925074036
H   H4        1.0  0.35510  0.64170  0.60180  1.0000 0.2925074036
H   H5        1.0  0.58930  0.91930  0.41060  1.0000 0.1078449337
H   H6        1.0  0.41070  0.41930  0.58940  1.0000 0.1078449337
H   H7        1.0  0.41070  0.08070  0.58940  1.0000 0.1078449337
H   H8        1.0  0.58930  0.58070  0.41060  1.0000 0.1078449337
H   H9        1.0  0.56230  0.91720  0.00660  1.0000 0.1078449337
H   H10       1.0  0.43770  0.41720  0.99340  1.0000 0.1078449337
H   H11       1.0  0.43770  0.08280  0.99340  1.0000 0.1078449337
H   H12       1.0  0.56230  0.58280  0.00660  1.0000 0.1078449337
H   H13       1.0  0.42320  0.85530  0.00240  1.0000 0.1078449337
H   H14       1.0  0.57680  0.35530  0.99760  1.0000 0.1078449337
H   H15       1.0  0.57680  0.14470  0.99760  1.0000 0.1078449337
H   H16       1.0  0.42320  0.64470  0.00240  1.0000 0.1078449337
H   H17       1.0  0.13910  0.94380  0.26630  1.0000 0.1161289151
H   H18       1.0  0.86090  0.44380  0.73370  1.0000 0.1161289151
H   H19       1.0  0.86090  0.05620  0.73370  1.0000 0.1161289151
H   H20       1.0  0.13910  0.55620  0.26630  1.0000 0.1161289151
H   H21       1.0  0.90880  0.85620  0.43880  1.0000 0.1001737129
H   H22       1.0  0.09120  0.35620  0.56120  1.0000 0.1001737129
H   H23       1.0  0.09120  0.14380  0.56120  1.0000 0.1001737129
H   H24       1.0  0.90880  0.64380  0.43880  1.0000 0.1001737129
H   H25       1.0  0.84370  0.82510  0.23240  1.0000 0.1001737129
H   H26       1.0  0.15630  0.32510  0.76760  1.0000 0.1001737129
H   H27       1.0  0.15630  0.17490  0.76760  1.0000 0.1001737129
H   H28       1.0  0.84370  0.67490  0.23240  1.0000 0.1001737129
C   C1        1.0  0.42150  0.85000  0.20330  1.0000 -0.0695877182
C   C2        1.0  0.57850  0.35000  0.79670  1.0000 -0.0695877182
C   C3        1.0  0.57850  0.15000  0.79670  1.0000 -0.0695877182
C   C4        1.0  0.42150  0.65000  0.20330  1.0000 -0.0695877182
C   C5        1.0  0.47180  0.86930  0.33070  1.0000 -0.0695877182
C   C6        1.0  0.52820  0.36930  0.66930  1.0000 -0.0695877182
C   C7        1.0  0.52820  0.13070  0.66930  1.0000 -0.0695877182
C   C8        1.0  0.47180  0.63070  0.33070  1.0000 -0.0695877182
C   C9        1.0  0.55500  0.90620  0.32920  1.0000 -0.1410268473
C   C10       1.0  0.44500  0.40620  0.67080  1.0000 -0.1410268473
C   C11       1.0  0.44500  0.09380  0.67080  1.0000 -0.1410268473
C   C12       1.0  0.55500  0.59380  0.32920  1.0000 -0.1410268473
C   C13       1.0  0.58680  0.92320  0.21140  1.0000 -0.0223364079
C   C14       1.0  0.41320  0.42320  0.78860  1.0000 -0.0223364079
C   C15       1.0  0.41320  0.07680  0.78860  1.0000 -0.0223364079
C   C16       1.0  0.58680  0.57680  0.21140  1.0000 -0.0223364079
C   C17       1.0  0.53950  0.90510  0.08620  1.0000 -0.1317025839
C   C18       1.0  0.46050  0.40510  0.91380  1.0000 -0.1317025839
C   C19       1.0  0.46050  0.09490  0.91380  1.0000 -0.1317025839
C   C20       1.0  0.53950  0.59490  0.08620  1.0000 -0.1317025839
C   C21       1.0  0.45610  0.86810  0.08470  1.0000 -0.1317025839
C   C22       1.0  0.54390  0.36810  0.91530  1.0000 -0.1317025839
C   C23       1.0  0.54390  0.13190  0.91530  1.0000 -0.1317025839
C   C24       1.0  0.45610  0.63190  0.08470  1.0000 -0.1317025839
C   C25       1.0  0.32560  0.81100  0.19800  1.0000 0.5777708228
C   C26       1.0  0.67440  0.31100  0.80200  1.0000 0.5777708228
C   C27       1.0  0.67440  0.18900  0.80200  1.0000 0.5777708228
C   C28       1.0  0.32560  0.68900  0.19800  1.0000 0.5777708228
C   C29       1.0  0.44420  0.85290  0.46500  1.0000 0.5285710703
C   C30       1.0  0.55580  0.35290  0.53500  1.0000 0.5285710703
C   C31       1.0  0.55580  0.14710  0.53500  1.0000 0.5285710703
C   C32       1.0  0.44420  0.64710  0.46500  1.0000 0.5285710703
C   C33       1.0  0.67000  0.96360  0.21440  1.0000 0.5285710703
C   C34       1.0  0.33000  0.46360  0.78560  1.0000 0.5285710703
C   C35       1.0  0.33000  0.03640  0.78560  1.0000 0.5285710703
C   C36       1.0  0.67000  0.53640  0.21440  1.0000 0.5285710703
C   C37       1.0  0.95320  0.86500  0.12260  1.0000 -0.0695877182
C   C38       1.0  0.04680  0.36500  0.87740  1.0000 -0.0695877182
C   C39       1.0  0.04680  0.13500  0.87740  1.0000 -0.0695877182
C   C40       1.0  0.95320  0.63500  0.12260  1.0000 -0.0695877182
C   C41       1.0  0.04330  0.90170  0.13440  1.0000 -0.0593595062
C   C42       1.0  0.95670  0.40170  0.86560  1.0000 -0.0593595062
C   C43       1.0  0.95670  0.09830  0.86560  1.0000 -0.0593595062
C   C44       1.0  0.04330  0.59830  0.13440  1.0000 -0.0593595062
C   C45       1.0  0.08010  0.91980  0.25880  1.0000 -0.148366264
C   C46       1.0  0.91990  0.41980  0.74120  1.0000 -0.148366264
C   C47       1.0  0.91990  0.08020  0.74120  1.0000 -0.148366264
C   C48       1.0  0.08010  0.58020  0.25880  1.0000 -0.148366264
C   C49       1.0  0.03120  0.90310  0.37350  1.0000 -0.0327250801
C   C50       1.0  0.96880  0.40310  0.62650  1.0000 -0.0327250801
C   C51       1.0  0.96880  0.09690  0.62650  1.0000 -0.0327250801
C   C52       1.0  0.03120  0.59690  0.37350  1.0000 -0.0327250801
C   C53       1.0  0.94250  0.86760  0.36220  1.0000 -0.1317025839
C   C54       1.0  0.05750  0.36760  0.63780  1.0000 -0.1317025839
C   C55       1.0  0.05750  0.13240  0.63780  1.0000 -0.1317025839
C   C56       1.0  0.94250  0.63240  0.36220  1.0000 -0.1317025839
C   C57       1.0  0.90390  0.84890  0.23850  1.0000 -0.148366264
C   C58       1.0  0.09610  0.34890  0.76150  1.0000 -0.148366264
C   C59       1.0  0.09610  0.15110  0.76150  1.0000 -0.148366264
C   C60       1.0  0.90390  0.65110  0.23850  1.0000 -0.148366264
C   C61       1.0  0.90490  0.84270  0.99440  1.0000 0.6160395379
C   C62       1.0  0.09510  0.34270  0.00560  1.0000 0.6148589785
C   C63       1.0  0.09510  0.15730  0.00560  1.0000 0.6148589785
C   C64       1.0  0.90490  0.65730  0.99440  1.0000 0.6160395379
C   C65       1.0  0.09240  0.92030  0.00940  1.0000 0.5285710703
C   C66       1.0  0.90760  0.42030  0.99060  1.0000 0.5285710703
C   C67       1.0  0.90760  0.07970  0.99060  1.0000 0.5285710703
C   C68       1.0  0.09240  0.57970  0.00940  1.0000 0.5285710703
C   C69       1.0  0.07420  0.92310  0.50990  1.0000 0.5285710703
C   C70       1.0  0.92580  0.42310  0.49010  1.0000 0.5285710703
C   C71       1.0  0.92580  0.07690  0.49010  1.0000 0.5285710703
C   C72       1.0  0.07420  0.57690  0.50990  1.0000 0.5285710703
O   O1        1.0  0.63600  0.88670  0.70400  1.0000 -0.1410268473
O   O2        1.0  0.36400  0.38670  0.29600  1.0000 -0.1317025839
O   O3        1.0  0.36400  0.11330  0.29600  1.0000 -0.1317025839
O   O4        1.0  0.63600  0.61330  0.70400  1.0000 -0.1410268473
O   O5        1.0  0.77170  0.84780  0.93310  1.0000 -0.6203291592
O   O6        1.0  0.22830  0.34780  0.06690  1.0000 -0.6203291592
O   O7        1.0  0.22830  0.15220  0.06690  1.0000 -0.6203291592
O   O8        1.0  0.77170  0.65220  0.93310  1.0000 -0.6203291592
O   O9        1.0  0.52890  0.82025  0.50750  1.0000 -0.8369354074
O   O10       1.0  0.47110  0.32025  0.49250  1.0000 -0.8369354074
O   O11       1.0  0.47110  0.17975  0.49250  1.0000 -0.8369354074
O   O12       1.0  0.52890  0.67975  0.50750  1.0000 -0.8369354074
O   O13       1.0  0.62940  0.75000  0.62330  1.0000 -1.270544595
O   O14       1.0  0.37060  0.25000  0.37670  1.0000 -1.270544595
O   O15       1.0  0.79800  0.75000  0.87070  1.0000 -1.2777038281
O   O16       1.0  0.20200  0.25000  0.12930  1.0000 -1.2777038281
O   O17       1.0  0.29000  0.79723  0.30760  1.0000 -0.6833841269
O   O18       1.0  0.71000  0.29723  0.69240  1.0000 -0.6833841269
O   O19       1.0  0.71000  0.20277  0.69240  1.0000 -0.6833841269
O   O20       1.0  0.29000  0.70277  0.30760  1.0000 -0.6833841269
O   O21       1.0  0.35930  0.87080  0.53100  1.0000 -0.39557851
O   O22       1.0  0.64070  0.37080  0.46900  1.0000 -0.39557851
O   O23       1.0  0.64070  0.12920  0.46900  1.0000 -0.39557851
O   O24       1.0  0.35930  0.62920  0.53100  1.0000 -0.39557851
O   O25       1.0  0.28720  0.79510  0.08360  1.0000 -0.6344718401
O   O26       1.0  0.71280  0.29510  0.91640  1.0000 -0.6344718401
O   O27       1.0  0.71280  0.20490  0.91640  1.0000 -0.6344718401
O   O28       1.0  0.28720  0.70490  0.08360  1.0000 -0.6344718401
O   O29       1.0  0.00150  0.81785  0.95250  1.0000 -0.6920791332
O   O30       1.0  0.99850  0.31785  0.04750  1.0000 -0.6920791332
O   O31       1.0  0.99850  0.18215  0.04750  1.0000 -0.6920791332
O   O32       1.0  0.00150  0.68215  0.95250  1.0000 -0.6920791332
O   O33       1.0  0.69880  0.98160  0.10830  1.0000 -0.5917698209
O   O34       1.0  0.30120  0.48160  0.89170  1.0000 -0.5917698209
O   O35       1.0  0.30120  0.01840  0.89170  1.0000 -0.5917698209
O   O36       1.0  0.69880  0.51840  0.10830  1.0000 -0.5917698209
O   O37       1.0  0.71650  0.98060  0.32870  1.0000 -0.6203291592
O   O38       1.0  0.28350  0.48060  0.67130  1.0000 -0.6203291592
O   O39       1.0  0.28350  0.01940  0.67130  1.0000 -0.6203291592
O   O40       1.0  0.71650  0.51940  0.32870  1.0000 -0.6203291592
O   O41       1.0  0.03500  0.90669  0.61450  1.0000 -0.6203291592
O   O42       1.0  0.96500  0.40669  0.38550  1.0000 -0.6203291592
O   O43       1.0  0.96500  0.09331  0.38550  1.0000 -0.6203291592
O   O44       1.0  0.03500  0.59331  0.61450  1.0000 -0.6203291592
O   O45       1.0  0.15100  0.95656  0.51920  1.0000 -0.5987462466
O   O46       1.0  0.84900  0.45656  0.48080  1.0000 -0.5987462466
O   O47       1.0  0.84900  0.04344  0.48080  1.0000 -0.5987462466
O   O48       1.0  0.15100  0.54344  0.51920  1.0000 -0.5987462466
O   O49       1.0  0.05720  0.90350  0.89530  1.0000 -0.5987462466
O   O50       1.0  0.94280  0.40350  0.10470  1.0000 -0.5987462466
O   O51       1.0  0.94280  0.09650  0.10470  1.0000 -0.5987462466
O   O52       1.0  0.05720  0.59650  0.89530  1.0000 -0.5987462466
O   O53       1.0  0.16630  0.95440  0.01830  1.0000 -0.6203291592
O   O54       1.0  0.83370  0.45440  0.98170  1.0000 -0.6203291592
O   O55       1.0  0.83370  0.04560  0.98170  1.0000 -0.6203291592
O   O56       1.0  0.16630  0.54560  0.01830  1.0000 -0.6203291592
O   O57       1.0  0.27450  0.11600  0.33100  1.0000 -0.0593595062
O   O58       1.0  0.72550  0.61600  0.66900  1.0000 -0.0695877182
O   O59       1.0  0.72550  0.88400  0.66900  1.0000 -0.0695877182
O   O60       1.0  0.27450  0.38400  0.33100  1.0000 -0.0695877182
