# DDEC6 charges by PACMAN v1.1 (https://github.com/mtap-research/PACMAN-charge/)
data_2010[Zn][nan]3[ASR]3
_chemical_formula_sum              "Zn6 B4 H64 C80 N32 O16"
_cell_length_a       12.4895
_cell_length_b       12.4895
_cell_length_c       18.254
_cell_angle_alpha    98.7567
_cell_angle_beta     98.7567
_cell_angle_gamma    116.378

_symmetry_space_group_name_H-M    "P 1"
_symmetry_Int_Tables_number       1

loop_
  _symmetry_equiv_pos_as_xyz
  'x, y, z'

loop_
  _atom_site_type_symbol
  _atom_site_label
  _atom_site_symmetry_multiplicity
  _atom_site_fract_x
  _atom_site_fract_y
  _atom_site_fract_z
  _atom_site_occupancy
  _atom_site_charge
Zn  Zn1       1.0  0.80218  0.65906  0.04091  1.0000 0.7925360987
Zn  Zn2       1.0  0.34094  0.19782  0.45909  1.0000 0.7925360987
Zn  Zn3       1.0  0.19782  0.34094  0.95909  1.0000 0.7925360987
Zn  Zn4       1.0  0.65906  0.80218  0.54091  1.0000 0.7925360987
Zn  Zn5       1.0  0.24855  0.75145  0.75000  1.0000 0.6332304665
Zn  Zn6       1.0  0.75145  0.24855  0.25000  1.0000 0.6332304665
B   B1        1.0  0.71590  0.02950  0.95000  1.0000 0.5119250902
B   B2        1.0  0.97050  0.28410  0.55000  1.0000 0.5119250902
B   B3        1.0  0.28410  0.97050  0.05000  1.0000 0.5119250902
B   B4        1.0  0.02950  0.71590  0.45000  1.0000 0.5119250902
H   H1        1.0  0.79900  0.96900  0.82000  1.0000 0.1428346697
H   H2        1.0  0.03600  0.11600  0.83100  1.0000 0.1428346697
H   H3        1.0  0.95400  0.23800  0.00900  1.0000 0.1203903346
H   H4        1.0  0.58100  0.70500  0.07200  1.0000 0.1295213124
H   H5        1.0  0.53600  0.88000  0.03900  1.0000 0.0882357025
H   H6        1.0  0.83800  0.89600  0.96400  1.0000 0.1203903346
H   H7        1.0  0.78700  0.06700  0.11800  1.0000 0.0628165399
H   H8        1.0  0.75300  0.35500  0.11000  1.0000 0.1596713552
H   H9        1.0  0.70800  0.26800  0.96300  1.0000 0.1295213124
H   H10       1.0  0.66250  0.12490  0.82160  1.0000 0.1295213124
H   H11       1.0  0.48200  0.97600  0.72600  1.0000 0.1428346697
H   H12       1.0  0.51300  0.81700  0.88900  1.0000 0.0628165399
H   H13       1.0  0.79300  0.53500  0.74000  1.0000 0.1295213124
H   H14       1.0  0.58300  0.35500  0.87000  1.0000 0.1203903346
H   H15       1.0  0.73500  0.63900  0.31500  1.0000 0.1118448117
H   H16       1.0  0.03100  0.20100  0.68000  1.0000 0.1428346697
H   H17       1.0  0.88400  0.96400  0.66900  1.0000 0.1428346697
H   H18       1.0  0.76200  0.04600  0.49100  1.0000 0.1203903346
H   H19       1.0  0.29500  0.41900  0.42800  1.0000 0.1295213124
H   H20       1.0  0.12000  0.46400  0.46100  1.0000 0.0882357025
H   H21       1.0  0.10400  0.16200  0.53600  1.0000 0.1203903346
H   H22       1.0  0.93300  0.21300  0.38200  1.0000 0.0628165399
H   H23       1.0  0.64500  0.24700  0.39000  1.0000 0.1596713552
H   H24       1.0  0.73200  0.29200  0.53700  1.0000 0.1295213124
H   H25       1.0  0.87510  0.33750  0.67840  1.0000 0.1295213124
H   H26       1.0  0.02400  0.51800  0.77400  1.0000 0.1428346697
H   H27       1.0  0.18300  0.48700  0.61100  1.0000 0.0628165399
H   H28       1.0  0.46500  0.20700  0.76000  1.0000 0.1295213124
H   H29       1.0  0.64500  0.41700  0.63000  1.0000 0.1203903346
H   H30       1.0  0.36100  0.26500  0.18500  1.0000 0.1118448117
H   H31       1.0  0.20100  0.03100  0.18000  1.0000 0.1428346697
H   H32       1.0  0.96400  0.88400  0.16900  1.0000 0.1428346697
H   H33       1.0  0.04600  0.76200  0.99100  1.0000 0.1203903346
H   H34       1.0  0.41900  0.29500  0.92800  1.0000 0.1295213124
H   H35       1.0  0.46400  0.12000  0.96100  1.0000 0.0882357025
H   H36       1.0  0.16200  0.10400  0.03600  1.0000 0.1203903346
H   H37       1.0  0.21300  0.93300  0.88200  1.0000 0.0628165399
H   H38       1.0  0.24700  0.64500  0.89000  1.0000 0.1596713552
H   H39       1.0  0.29200  0.73200  0.03700  1.0000 0.1295213124
H   H40       1.0  0.33750  0.87510  0.17840  1.0000 0.1295213124
H   H41       1.0  0.51800  0.02400  0.27400  1.0000 0.1428346697
H   H42       1.0  0.48700  0.18300  0.11100  1.0000 0.0628165399
H   H43       1.0  0.20700  0.46500  0.26000  1.0000 0.1295213124
H   H44       1.0  0.41700  0.64500  0.13000  1.0000 0.1203903346
H   H45       1.0  0.26500  0.36100  0.68500  1.0000 0.1118448117
H   H46       1.0  0.96900  0.79900  0.32000  1.0000 0.1428346697
H   H47       1.0  0.11600  0.03600  0.33100  1.0000 0.1428346697
H   H48       1.0  0.23800  0.95400  0.50900  1.0000 0.1203903346
H   H49       1.0  0.70500  0.58100  0.57200  1.0000 0.1295213124
H   H50       1.0  0.88000  0.53600  0.53900  1.0000 0.0882357025
H   H51       1.0  0.89600  0.83800  0.46400  1.0000 0.1203903346
H   H52       1.0  0.06700  0.78700  0.61800  1.0000 0.0628165399
H   H53       1.0  0.35500  0.75300  0.61000  1.0000 0.1596713552
H   H54       1.0  0.26800  0.70800  0.46300  1.0000 0.1295213124
H   H55       1.0  0.12490  0.66250  0.32160  1.0000 0.1295213124
H   H56       1.0  0.97600  0.48200  0.22600  1.0000 0.1428346697
H   H57       1.0  0.81700  0.51300  0.38900  1.0000 0.0628165399
H   H58       1.0  0.53500  0.79300  0.24000  1.0000 0.1295213124
H   H59       1.0  0.35500  0.58300  0.37000  1.0000 0.1203903346
H   H60       1.0  0.63900  0.73500  0.81500  1.0000 0.1118448117
H   H61       1.0  0.49931  0.40406  0.10415  1.0000 0.0882357025
H   H62       1.0  0.59594  0.50069  0.39585  1.0000 0.0882357025
H   H63       1.0  0.50069  0.59594  0.89585  1.0000 0.0882357025
H   H64       1.0  0.40406  0.49931  0.60415  1.0000 0.0882357025
C   C1        1.0  0.85810  0.03410  0.85540  1.0000 -0.0701636323
C   C2        1.0  0.97370  0.11450  0.85480  1.0000 -0.0392307408
C   C3        1.0  0.93910  0.18770  0.96040  1.0000 0.1295213124
C   C4        1.0  0.62260  0.76120  0.03820  1.0000 -0.0392307408
C   C5        1.0  0.60450  0.85230  0.01930  1.0000 -0.0701636323
C   C6        1.0  0.76370  0.85610  0.98080  1.0000 0.1295213124
C   C7        1.0  0.75730  0.13310  0.09230  1.0000 0.1456950495
C   C8        1.0  0.75600  0.30260  0.08700  1.0000 -0.0392307408
C   C9        1.0  0.72130  0.23610  0.01310  1.0000 -0.0506708723
C   C10       1.0  0.60140  0.04780  0.82240  1.0000 -0.0701636323
C   C11       1.0  0.49630  0.97810  0.76920  1.0000 -0.0506708723
C   C12       1.0  0.49730  0.88150  0.85550  1.0000 0.1596713552
C   C13       1.0  0.79340  0.55160  0.89080  1.0000 0.5566827545
C   C14       1.0  0.73040  0.47460  0.74660  1.0000 -0.0961344725
C   C15       1.0  0.70830  0.45530  0.81660  1.0000 -0.0050896947
C   C16       1.0  0.60720  0.35180  0.81950  1.0000 -0.1303854248
C   C17       1.0  0.71830  0.61330  0.17250  1.0000 0.5506655166
C   C18       1.0  0.62890  0.52890  0.21220  1.0000 -0.026164282
C   C19       1.0  0.65140  0.55980  0.29220  1.0000 -0.1303854248
C   C20       1.0  0.52130  0.42570  0.16930  1.0000 -0.0925962737
C   C21       1.0  0.96590  0.14190  0.64460  1.0000 -0.0701636323
C   C22       1.0  0.88550  0.02630  0.64520  1.0000 -0.0392307408
C   C23       1.0  0.81230  0.06090  0.53960  1.0000 0.1295213124
C   C24       1.0  0.23880  0.37740  0.46180  1.0000 -0.0392307408
C   C25       1.0  0.14770  0.39550  0.48070  1.0000 -0.0701636323
C   C26       1.0  0.14390  0.23630  0.51920  1.0000 0.1295213124
C   C27       1.0  0.86690  0.24270  0.40770  1.0000 0.1456950495
C   C28       1.0  0.69740  0.24400  0.41300  1.0000 -0.0392307408
C   C29       1.0  0.76390  0.27870  0.48690  1.0000 -0.0506708723
C   C30       1.0  0.95220  0.39860  0.67760  1.0000 -0.0701636323
C   C31       1.0  0.02190  0.50370  0.73080  1.0000 -0.0506708723
C   C32       1.0  0.11850  0.50270  0.64450  1.0000 0.1596713552
C   C33       1.0  0.44840  0.20660  0.60920  1.0000 0.5566827545
C   C34       1.0  0.52540  0.26960  0.75340  1.0000 -0.0961344725
C   C35       1.0  0.54470  0.29170  0.68340  1.0000 -0.0050896947
C   C36       1.0  0.64820  0.39280  0.68050  1.0000 -0.1303854248
C   C37       1.0  0.38670  0.28170  0.32750  1.0000 0.5506655166
C   C38       1.0  0.47110  0.37110  0.28780  1.0000 -0.026164282
C   C39       1.0  0.44020  0.34860  0.20780  1.0000 -0.1303854248
C   C40       1.0  0.57430  0.47870  0.33070  1.0000 -0.0925962737
C   C41       1.0  0.14190  0.96590  0.14460  1.0000 -0.0701636323
C   C42       1.0  0.02630  0.88550  0.14520  1.0000 -0.0392307408
C   C43       1.0  0.06090  0.81230  0.03960  1.0000 0.1295213124
C   C44       1.0  0.37740  0.23880  0.96180  1.0000 -0.0392307408
C   C45       1.0  0.39550  0.14770  0.98070  1.0000 -0.0701636323
C   C46       1.0  0.23630  0.14390  0.01920  1.0000 0.1295213124
C   C47       1.0  0.24270  0.86690  0.90770  1.0000 0.1456950495
C   C48       1.0  0.24400  0.69740  0.91300  1.0000 -0.0392307408
C   C49       1.0  0.27870  0.76390  0.98690  1.0000 -0.0506708723
C   C50       1.0  0.39860  0.95220  0.17760  1.0000 -0.0701636323
C   C51       1.0  0.50370  0.02190  0.23080  1.0000 -0.0506708723
C   C52       1.0  0.50270  0.11850  0.14450  1.0000 0.1596713552
C   C53       1.0  0.20660  0.44840  0.10920  1.0000 0.5566827545
C   C54       1.0  0.26960  0.52540  0.25340  1.0000 -0.0961344725
C   C55       1.0  0.29170  0.54470  0.18340  1.0000 -0.0050896947
C   C56       1.0  0.39280  0.64820  0.18050  1.0000 -0.1303854248
C   C57       1.0  0.28170  0.38670  0.82750  1.0000 0.5506655166
C   C58       1.0  0.37110  0.47110  0.78780  1.0000 -0.026164282
C   C59       1.0  0.34860  0.44020  0.70780  1.0000 -0.1303854248
C   C60       1.0  0.47870  0.57430  0.83070  1.0000 -0.0925962737
C   C61       1.0  0.03410  0.85810  0.35540  1.0000 -0.0701636323
C   C62       1.0  0.11450  0.97370  0.35480  1.0000 -0.0392307408
C   C63       1.0  0.18770  0.93910  0.46040  1.0000 0.1295213124
C   C64       1.0  0.76120  0.62260  0.53820  1.0000 -0.0392307408
C   C65       1.0  0.85230  0.60450  0.51930  1.0000 -0.0701636323
C   C66       1.0  0.85610  0.76370  0.48080  1.0000 0.1295213124
C   C67       1.0  0.13310  0.75730  0.59230  1.0000 0.1456950495
C   C68       1.0  0.30260  0.75600  0.58700  1.0000 -0.0392307408
C   C69       1.0  0.23610  0.72130  0.51310  1.0000 -0.0506708723
C   C70       1.0  0.04780  0.60140  0.32240  1.0000 -0.0701636323
C   C71       1.0  0.97810  0.49630  0.26920  1.0000 -0.0506708723
C   C72       1.0  0.88150  0.49730  0.35550  1.0000 0.1596713552
C   C73       1.0  0.55160  0.79340  0.39080  1.0000 0.5566827545
C   C74       1.0  0.47460  0.73040  0.24660  1.0000 -0.0961344725
C   C75       1.0  0.45530  0.70830  0.31660  1.0000 -0.0050896947
C   C76       1.0  0.35180  0.60720  0.31950  1.0000 -0.1303854248
C   C77       1.0  0.61330  0.71830  0.67250  1.0000 0.5506655166
C   C78       1.0  0.52890  0.62890  0.71220  1.0000 -0.026164282
C   C79       1.0  0.55980  0.65140  0.79220  1.0000 -0.1303854248
C   C80       1.0  0.42570  0.52130  0.66930  1.0000 -0.0925962737
N   N1        1.0  0.02440  0.21200  0.92060  1.0000 -0.2885926178
N   N2        1.0  0.83450  0.08110  0.92260  1.0000 -0.2217820794
N   N3        1.0  0.72220  0.76200  0.01430  1.0000 -0.2827074042
N   N4        1.0  0.69540  0.91460  0.98220  1.0000 -0.2217820794
N   N5        1.0  0.77340  0.23800  0.13720  1.0000 -0.2827074042
N   N6        1.0  0.72270  0.12870  0.01670  1.0000 -0.2217820794
N   N7        1.0  0.60540  0.98720  0.87920  1.0000 -0.2140299565
N   N8        1.0  0.42860  0.87200  0.78980  1.0000 -0.2827074042
N   N9        1.0  0.78800  0.97560  0.57940  1.0000 -0.2885926178
N   N10       1.0  0.91890  0.16550  0.57740  1.0000 -0.2217820794
N   N11       1.0  0.23800  0.27780  0.48570  1.0000 -0.2827074042
N   N12       1.0  0.08540  0.30460  0.51780  1.0000 -0.2217820794
N   N13       1.0  0.76200  0.22660  0.36280  1.0000 -0.2827074042
N   N14       1.0  0.87130  0.27730  0.48330  1.0000 -0.2217820794
N   N15       1.0  0.01280  0.39460  0.62080  1.0000 -0.2140299565
N   N16       1.0  0.12800  0.57140  0.71020  1.0000 -0.2827074042
N   N17       1.0  0.97560  0.78800  0.07940  1.0000 -0.2885926178
N   N18       1.0  0.16550  0.91890  0.07740  1.0000 -0.2217820794
N   N19       1.0  0.27780  0.23800  0.98570  1.0000 -0.2827074042
N   N20       1.0  0.30460  0.08540  0.01780  1.0000 -0.2217820794
N   N21       1.0  0.22660  0.76200  0.86280  1.0000 -0.2827074042
N   N22       1.0  0.27730  0.87130  0.98330  1.0000 -0.2217820794
N   N23       1.0  0.39460  0.01280  0.12080  1.0000 -0.2140299565
N   N24       1.0  0.57140  0.12800  0.21020  1.0000 -0.2827074042
N   N25       1.0  0.21200  0.02440  0.42060  1.0000 -0.2885926178
N   N26       1.0  0.08110  0.83450  0.42260  1.0000 -0.2217820794
N   N27       1.0  0.76200  0.72220  0.51430  1.0000 -0.2827074042
N   N28       1.0  0.91460  0.69540  0.48220  1.0000 -0.2217820794
N   N29       1.0  0.23800  0.77340  0.63720  1.0000 -0.2827074042
N   N30       1.0  0.12870  0.72270  0.51670  1.0000 -0.2217820794
N   N31       1.0  0.98720  0.60540  0.37920  1.0000 -0.2140299565
N   N32       1.0  0.87200  0.42860  0.28980  1.0000 -0.2827074042
O   O1        1.0  0.87580  0.65040  0.88770  1.0000 -0.5525018832
O   O2        1.0  0.76330  0.52590  0.95370  1.0000 -0.5764199308
O   O3        1.0  0.79390  0.72070  0.20720  1.0000 -0.5594606808
O   O4        1.0  0.70590  0.56210  0.10270  1.0000 -0.5594606808
O   O5        1.0  0.34960  0.12420  0.61230  1.0000 -0.5525018832
O   O6        1.0  0.47410  0.23670  0.54630  1.0000 -0.5764199308
O   O7        1.0  0.27930  0.20610  0.29280  1.0000 -0.5594606808
O   O8        1.0  0.43790  0.29410  0.39730  1.0000 -0.5594606808
O   O9        1.0  0.12420  0.34960  0.11230  1.0000 -0.5525018832
O   O10       1.0  0.23670  0.47410  0.04630  1.0000 -0.5764199308
O   O11       1.0  0.20610  0.27930  0.79280  1.0000 -0.5594606808
O   O12       1.0  0.29410  0.43790  0.89730  1.0000 -0.5594606808
O   O13       1.0  0.65040  0.87580  0.38770  1.0000 -0.5525018832
O   O14       1.0  0.52590  0.76330  0.45370  1.0000 -0.5764199308
O   O15       1.0  0.72070  0.79390  0.70720  1.0000 -0.5594606808
O   O16       1.0  0.56210  0.70590  0.60270  1.0000 -0.5594606808
