# DDEC6 charges by PACMAN v1.1 (https://github.com/mtap-research/PACMAN-charge/)
data_2011[Ce][flu]3[ASR]2
_chemical_formula_sum              "Ce2 H16 C30 N2 O14"
_cell_length_a       9.6047
_cell_length_b       10.0427
_cell_length_c       11.4589
_cell_angle_alpha    96.126
_cell_angle_beta     97.2065
_cell_angle_gamma    111.859

_symmetry_space_group_name_H-M    "P 1"
_symmetry_Int_Tables_number       1

loop_
  _symmetry_equiv_pos_as_xyz
  'x, y, z'

loop_
  _atom_site_type_symbol
  _atom_site_label
  _atom_site_symmetry_multiplicity
  _atom_site_fract_x
  _atom_site_fract_y
  _atom_site_fract_z
  _atom_site_occupancy
  _atom_site_charge
Ce  Ce1       1.0  0.28676  0.04508  0.99178  1.0000 1.950370518
Ce  Ce2       1.0  0.71324  0.95492  0.00822  1.0000 1.950370518
H   H1        1.0  0.31770  0.49490  0.02630  1.0000 0.1409250971
H   H2        1.0  0.68230  0.50510  0.97370  1.0000 0.1409250971
H   H3        1.0  0.19600  0.78960  0.21190  1.0000 0.1409250971
H   H4        1.0  0.80400  0.21040  0.78810  1.0000 0.1409250971
H   H5        1.0  0.92230  0.36160  0.15540  1.0000 0.1409250971
H   H6        1.0  0.07770  0.63840  0.84460  1.0000 0.1409250971
H   H7        1.0  0.17100  0.59040  0.41860  1.0000 0.1297426052
H   H8        1.0  0.82900  0.40960  0.58140  1.0000 0.1297426052
H   H9        1.0  0.25420  0.70320  0.61780  1.0000 0.1234186715
H   H10       1.0  0.74580  0.29680  0.38220  1.0000 0.1234186715
H   H11       1.0  0.94980  0.89280  0.58170  1.0000 0.1297426052
H   H12       1.0  0.05020  0.10720  0.41830  1.0000 0.1297426052
H   H13       1.0  0.83220  0.84730  0.31850  1.0000 0.3031477011
H   H14       1.0  0.16780  0.15270  0.68150  1.0000 0.3031477011
H   H15       1.0  0.73790  0.69620  0.31540  1.0000 0.3070516712
H   H16       1.0  0.26210  0.30380  0.68460  1.0000 0.3070516712
C   C1        1.0  0.07820  0.25300  0.02260  1.0000 0.6261201776
C   C2        1.0  0.92180  0.74700  0.97740  1.0000 0.6261201776
C   C3        1.0  0.11310  0.40680  0.07950  1.0000 -0.0112274637
C   C4        1.0  0.88690  0.59320  0.92050  1.0000 -0.0112274637
C   C5        1.0  0.24750  0.51700  0.06800  1.0000 -0.1283911639
C   C6        1.0  0.75250  0.48300  0.93200  1.0000 -0.1283911639
C   C7        1.0  0.27950  0.66030  0.11740  1.0000 -0.0112274637
C   C8        1.0  0.72050  0.33970  0.88260  1.0000 -0.0112274637
C   C9        1.0  0.57800  0.22110  0.89880  1.0000 0.6058410979
C   C10       1.0  0.42200  0.77890  0.10120  1.0000 0.6058410979
C   C11       1.0  0.17770  0.69180  0.18090  1.0000 -0.2235739999
C   C12       1.0  0.82230  0.30820  0.81910  1.0000 -0.2235739999
C   C13       1.0  0.05020  0.57890  0.19800  1.0000 0.2334240205
C   C14       1.0  0.94980  0.42110  0.80200  1.0000 0.2334240205
C   C15       1.0  0.01370  0.43710  0.14600  1.0000 -0.1963470825
C   C16       1.0  0.98630  0.56290  0.85400  1.0000 -0.1963470825
C   C17       1.0  0.00900  0.67370  0.38260  1.0000 0.1608107923
C   C18       1.0  0.99100  0.32630  0.61740  1.0000 0.1608107923
C   C19       1.0  0.12570  0.65150  0.45200  1.0000 -0.2235739999
C   C20       1.0  0.87430  0.34850  0.54800  1.0000 -0.2235739999
C   C21       1.0  0.17540  0.71890  0.56990  1.0000 -0.1028080755
C   C22       1.0  0.82460  0.28110  0.43010  1.0000 -0.1028080755
C   C23       1.0  0.11040  0.80920  0.61820  1.0000 -0.0330056963
C   C24       1.0  0.88960  0.19080  0.38180  1.0000 -0.0330056963
C   C25       1.0  0.17040  0.89050  0.74270  1.0000 0.550571946
C   C26       1.0  0.82960  0.10950  0.25730  1.0000 0.550571946
C   C27       1.0  0.99370  0.83050  0.54830  1.0000 -0.2082512328
C   C28       1.0  0.00630  0.16950  0.45170  1.0000 -0.2082512328
C   C29       1.0  0.94070  0.76190  0.43070  1.0000 0.1608107923
C   C30       1.0  0.05930  0.23810  0.56930  1.0000 0.1608107923
N   N1        1.0  0.81790  0.77490  0.35970  1.0000 -0.5776551091
N   N2        1.0  0.18210  0.22510  0.64030  1.0000 -0.5776551091
O   O1        1.0  0.45630  0.24270  0.89010  1.0000 -0.5872003459
O   O2        1.0  0.54370  0.75730  0.10990  1.0000 -0.5872003459
O   O3        1.0  0.11820  0.98240  0.78230  1.0000 -0.6082656705
O   O4        1.0  0.88180  0.01760  0.21770  1.0000 -0.6082656705
O   O5        1.0  0.18300  0.22650  0.98310  1.0000 -0.6207220876
O   O6        1.0  0.81700  0.77350  0.01690  1.0000 -0.6207220876
O   O7        1.0  0.05390  0.84060  0.98390  1.0000 -0.644195708
O   O8        1.0  0.94610  0.15940  0.01610  1.0000 -0.644195708
O   O9        1.0  0.58080  0.10030  0.92230  1.0000 -0.6984094703
O   O10       1.0  0.41920  0.89970  0.07770  1.0000 -0.6984094703
O   O11       1.0  0.94940  0.60780  0.26540  1.0000 -0.2082512328
O   O12       1.0  0.05060  0.39220  0.73460  1.0000 -0.2082512328
O   O13       1.0  0.27560  0.87030  0.80790  1.0000 -0.6207220876
O   O14       1.0  0.72440  0.12970  0.19210  1.0000 -0.6207220876
