# DDEC6 charges by PACMAN v1.1 (https://github.com/mtap-research/PACMAN-charge/)
data_2011[Sc][nan]3[ASR]5
_chemical_formula_sum              "Sc4 H24 C48 O24"
_cell_length_a       8.7529
_cell_length_b       11.2626
_cell_length_c       17.7276
_cell_angle_alpha    84.4951
_cell_angle_beta     75.7076
_cell_angle_gamma    67.134

_symmetry_space_group_name_H-M    "P 1"
_symmetry_Int_Tables_number       1

loop_
  _symmetry_equiv_pos_as_xyz
  'x, y, z'

loop_
  _atom_site_type_symbol
  _atom_site_label
  _atom_site_symmetry_multiplicity
  _atom_site_fract_x
  _atom_site_fract_y
  _atom_site_fract_z
  _atom_site_occupancy
  _atom_site_charge
Sc  Sc1       1.0  0.63578  0.25000  0.72844  1.0000 1.8438645259
Sc  Sc2       1.0  0.11422  0.25000  0.77156  1.0000 1.8438645259
Sc  Sc3       1.0  0.36422  0.75000  0.27156  1.0000 1.8438645259
Sc  Sc4       1.0  0.88578  0.75000  0.22844  1.0000 1.8438645259
H   H1        1.0  0.93680  0.62820  0.74731  1.0000 0.1084417731
H   H2        1.0  0.74937  0.43337  0.51291  1.0000 0.1084417731
H   H3        1.0  0.17984  0.42391  0.60032  1.0000 0.0995038304
H   H4        1.0  0.31589  0.87180  0.74731  1.0000 0.1084417731
H   H5        1.0  0.73772  0.06663  0.51291  1.0000 0.1084417731
H   H6        1.0  0.21983  0.07609  0.60032  1.0000 0.0995038304
H   H7        1.0  0.43500  0.62821  0.75269  1.0000 0.1084417731
H   H8        1.0  0.81726  0.43337  0.98709  1.0000 0.1084417731
H   H9        1.0  0.39625  0.42391  0.89968  1.0000 0.0995038304
H   H10       1.0  0.81231  0.87179  0.75269  1.0000 0.1084417731
H   H11       1.0  0.19565  0.06663  0.98709  1.0000 0.1084417731
H   H12       1.0  0.70407  0.07609  0.89968  1.0000 0.0995038304
H   H13       1.0  0.06320  0.37180  0.25269  1.0000 0.1084417731
H   H14       1.0  0.25063  0.56663  0.48709  1.0000 0.1084417731
H   H15       1.0  0.81898  0.57547  0.40013  1.0000 0.0995038304
H   H16       1.0  0.68411  0.12820  0.25269  1.0000 0.1084417731
H   H17       1.0  0.26090  0.93422  0.48806  1.0000 0.1084417731
H   H18       1.0  0.78090  0.92453  0.40013  1.0000 0.0995038304
H   H19       1.0  0.56500  0.37179  0.24731  1.0000 0.1084417731
H   H20       1.0  0.18274  0.56663  0.01291  1.0000 0.1084417731
H   H21       1.0  0.60556  0.57547  0.09987  1.0000 0.0995038304
H   H22       1.0  0.18769  0.12821  0.24731  1.0000 0.1084417731
H   H23       1.0  0.80435  0.93337  0.01291  1.0000 0.1084417731
H   H24       1.0  0.29457  0.92453  0.09987  1.0000 0.0995038304
C   C1        1.0  0.02117  0.68308  0.74922  1.0000 -0.0692061565
C   C2        1.0  0.90562  0.35908  0.63028  1.0000 0.6520562028
C   C3        1.0  0.95265  0.43380  0.56450  1.0000 -0.0692061565
C   C4        1.0  0.85941  0.46634  0.50738  1.0000 -0.0643893935
C   C5        1.0  0.09764  0.46110  0.55578  1.0000 -0.0692061565
C   C6        1.0  0.22961  0.81692  0.74922  1.0000 -0.0692061565
C   C7        1.0  0.46410  0.14092  0.63028  1.0000 0.6520562028
C   C8        1.0  0.48285  0.06620  0.56450  1.0000 -0.0692061565
C   C9        1.0  0.63321  0.03366  0.50738  1.0000 -0.0643893935
C   C10       1.0  0.34658  0.03890  0.55578  1.0000 -0.0692061565
C   C11       1.0  0.29575  0.68308  0.75078  1.0000 -0.0692061565
C   C12       1.0  0.73530  0.35908  0.86972  1.0000 0.6520562028
C   C13       1.0  0.61355  0.43380  0.93550  1.0000 -0.0692061565
C   C14       1.0  0.67425  0.46634  0.99262  1.0000 -0.0643893935
C   C15       1.0  0.44126  0.46110  0.94422  1.0000 -0.0692061565
C   C16       1.0  0.95347  0.81692  0.75078  1.0000 -0.0692061565
C   C17       1.0  0.39498  0.14092  0.86972  1.0000 0.6520562028
C   C18       1.0  0.45095  0.06620  0.93550  1.0000 -0.0692061565
C   C19       1.0  0.33313  0.03366  0.99262  1.0000 -0.0643893935
C   C20       1.0  0.61452  0.03890  0.94422  1.0000 -0.0692061565
C   C21       1.0  0.97883  0.31692  0.25078  1.0000 -0.0692061565
C   C22       1.0  0.09438  0.64092  0.36972  1.0000 0.6520562028
C   C23       1.0  0.04735  0.56620  0.43550  1.0000 -0.0692061565
C   C24       1.0  0.14059  0.53366  0.49262  1.0000 -0.0643893935
C   C25       1.0  0.90236  0.53890  0.44422  1.0000 -0.0692061565
C   C26       1.0  0.77039  0.18308  0.25078  1.0000 -0.0692061565
C   C27       1.0  0.53590  0.85908  0.36972  1.0000 0.6520562028
C   C28       1.0  0.51715  0.93380  0.43550  1.0000 -0.0692061565
C   C29       1.0  0.36679  0.96634  0.49262  1.0000 -0.0643893935
C   C30       1.0  0.65342  0.96110  0.44422  1.0000 -0.0692061565
C   C31       1.0  0.70425  0.31692  0.24922  1.0000 -0.0692061565
C   C32       1.0  0.26470  0.64092  0.13028  1.0000 0.6520562028
C   C33       1.0  0.38645  0.56620  0.06450  1.0000 -0.0692061565
C   C34       1.0  0.32575  0.53366  0.00738  1.0000 -0.0643893935
C   C35       1.0  0.55874  0.53890  0.05578  1.0000 -0.0692061565
C   C36       1.0  0.04653  0.18308  0.24922  1.0000 -0.0692061565
C   C37       1.0  0.60502  0.85908  0.13028  1.0000 0.6520562028
C   C38       1.0  0.54905  0.93380  0.06450  1.0000 -0.0692061565
C   C39       1.0  0.66687  0.96634  0.00738  1.0000 -0.0643893935
C   C40       1.0  0.38548  0.96110  0.05578  1.0000 -0.0692061565
C   C41       1.0  0.26101  0.47798  0.75000  1.0000 0.6520562028
C   C42       1.0  0.19162  0.61676  0.75000  1.0000 -0.0692061565
C   C43       1.0  0.98899  0.02202  0.75000  1.0000 0.6520562028
C   C44       1.0  0.05838  0.88324  0.75000  1.0000 -0.0692061565
C   C45       1.0  0.73899  0.52202  0.25000  1.0000 0.6520562028
C   C46       1.0  0.80838  0.38324  0.25000  1.0000 -0.0692061565
C   C47       1.0  0.01101  0.97798  0.25000  1.0000 0.6520562028
C   C48       1.0  0.94162  0.11676  0.25000  1.0000 -0.0692061565
O   O1        1.0  0.42046  0.41640  0.72908  1.0000 -0.6385317191
O   O2        1.0  0.77582  0.33038  0.63998  1.0000 -0.613554944
O   O3        1.0  0.98543  0.33256  0.68438  1.0000 -0.6577063396
O   O4        1.0  0.85046  0.08360  0.72908  1.0000 -0.6385317191
O   O5        1.0  0.58420  0.16962  0.63998  1.0000 -0.613554944
O   O6        1.0  0.33019  0.16744  0.68438  1.0000 -0.6577063396
O   O7        1.0  0.16314  0.41640  0.77092  1.0000 -0.6385317191
O   O8        1.0  0.89380  0.33038  0.86002  1.0000 -0.613554944
O   O9        1.0  0.68201  0.33256  0.81562  1.0000 -0.6577063396
O   O10       1.0  0.06594  0.08360  0.77092  1.0000 -0.6385317191
O   O11       1.0  0.24618  0.16962  0.86002  1.0000 -0.613554944
O   O12       1.0  0.50237  0.16744  0.81562  1.0000 -0.6577063396
O   O13       1.0  0.57954  0.58360  0.27092  1.0000 -0.6385317191
O   O14       1.0  0.22418  0.66962  0.36002  1.0000 -0.613554944
O   O15       1.0  0.01457  0.66744  0.31562  1.0000 -0.6577063396
O   O16       1.0  0.14954  0.91640  0.27092  1.0000 -0.6385317191
O   O17       1.0  0.41580  0.83038  0.36002  1.0000 -0.613554944
O   O18       1.0  0.66981  0.83256  0.31562  1.0000 -0.6577063396
O   O19       1.0  0.83686  0.58360  0.22908  1.0000 -0.6385317191
O   O20       1.0  0.10620  0.66962  0.13998  1.0000 -0.613554944
O   O21       1.0  0.31799  0.66744  0.18438  1.0000 -0.6577063396
O   O22       1.0  0.93406  0.91640  0.22908  1.0000 -0.6385317191
O   O23       1.0  0.75382  0.83038  0.13998  1.0000 -0.613554944
O   O24       1.0  0.49763  0.83256  0.18438  1.0000 -0.6577063396
