# DDEC6 charges by PACMAN v1.1 (https://github.com/mtap-research/PACMAN-charge/)
data_2011[Mg][nan]3[ASR]3
_chemical_formula_sum              "Mg8 H40 C64 O40"
_cell_length_a       15.2927
_cell_length_b       15.2927
_cell_length_c       12.301
_cell_angle_alpha    90
_cell_angle_beta     90
_cell_angle_gamma    90

_symmetry_space_group_name_H-M    "P 1"
_symmetry_Int_Tables_number       1

loop_
  _symmetry_equiv_pos_as_xyz
  'x, y, z'

loop_
  _atom_site_type_symbol
  _atom_site_label
  _atom_site_symmetry_multiplicity
  _atom_site_fract_x
  _atom_site_fract_y
  _atom_site_fract_z
  _atom_site_occupancy
  _atom_site_charge
Mg  Mg1       1.0  0.18480  0.18480  0.50000  1.0000 1.3578892643
Mg  Mg2       1.0  0.31520  0.31520  0.00000  1.0000 1.3578892643
Mg  Mg3       1.0  0.81520  0.68480  0.75000  1.0000 1.3578892643
Mg  Mg4       1.0  0.68480  0.81520  0.25000  1.0000 1.3578892643
Mg  Mg5       1.0  0.31520  0.18480  0.25000  1.0000 1.3578892643
Mg  Mg6       1.0  0.18480  0.31520  0.75000  1.0000 1.3578892643
Mg  Mg7       1.0  0.68480  0.68480  0.00000  1.0000 1.3578892643
Mg  Mg8       1.0  0.81520  0.81520  0.50000  1.0000 1.3578892643
H   H1        1.0  0.61700  0.55920  0.58160  1.0000 0.1117035221
H   H2        1.0  0.29732  0.28839  0.40903  1.0000 0.4083475335
H   H3        1.0  0.11700  0.05920  0.08160  1.0000 0.1117035221
H   H4        1.0  0.79732  0.78839  0.90903  1.0000 0.4083475335
H   H5        1.0  0.88300  0.94080  0.08160  1.0000 0.1117035221
H   H6        1.0  0.20268  0.21161  0.90903  1.0000 0.4083475335
H   H7        1.0  0.38300  0.44080  0.58160  1.0000 0.1117035221
H   H8        1.0  0.70268  0.71161  0.40903  1.0000 0.4083475335
H   H9        1.0  0.44080  0.11700  0.83160  1.0000 0.1117035221
H   H10       1.0  0.71161  0.79732  0.65903  1.0000 0.4083475335
H   H11       1.0  0.94080  0.61700  0.33160  1.0000 0.1117035221
H   H12       1.0  0.21161  0.29732  0.15903  1.0000 0.4083475335
H   H13       1.0  0.05920  0.38300  0.33160  1.0000 0.1117035221
H   H14       1.0  0.78839  0.70268  0.15903  1.0000 0.4083475335
H   H15       1.0  0.55920  0.88300  0.83160  1.0000 0.1117035221
H   H16       1.0  0.28839  0.20268  0.65903  1.0000 0.4083475335
H   H17       1.0  0.88300  0.55920  0.16840  1.0000 0.1117035221
H   H18       1.0  0.20268  0.28839  0.34097  1.0000 0.4083475335
H   H19       1.0  0.38300  0.05920  0.66840  1.0000 0.1117035221
H   H20       1.0  0.70268  0.78839  0.84097  1.0000 0.4083475335
H   H21       1.0  0.61700  0.94080  0.66840  1.0000 0.1117035221
H   H22       1.0  0.29732  0.21161  0.84097  1.0000 0.4083475335
H   H23       1.0  0.11700  0.44080  0.16840  1.0000 0.1117035221
H   H24       1.0  0.79732  0.71161  0.34097  1.0000 0.4083475335
H   H25       1.0  0.05920  0.11700  0.91840  1.0000 0.1117035221
H   H26       1.0  0.78839  0.79732  0.09097  1.0000 0.4083475335
H   H27       1.0  0.55920  0.61700  0.41840  1.0000 0.1117035221
H   H28       1.0  0.28839  0.29732  0.59097  1.0000 0.4083475335
H   H29       1.0  0.44080  0.38300  0.41840  1.0000 0.1117035221
H   H30       1.0  0.71161  0.70268  0.59097  1.0000 0.4083475335
H   H31       1.0  0.94080  0.88300  0.91840  1.0000 0.1117035221
H   H32       1.0  0.21161  0.20268  0.09097  1.0000 0.4083475335
H   H33       1.0  0.00000  0.00000  0.36390  1.0000 0.1357216979
H   H34       1.0  0.50000  0.50000  0.86390  1.0000 0.1357216979
H   H35       1.0  0.00000  0.50000  0.61390  1.0000 0.1357216979
H   H36       1.0  0.50000  0.00000  0.11390  1.0000 0.1357216979
H   H37       1.0  0.50000  0.00000  0.38610  1.0000 0.1357216979
H   H38       1.0  0.00000  0.50000  0.88610  1.0000 0.1357216979
H   H39       1.0  0.50000  0.50000  0.13610  1.0000 0.1357216979
H   H40       1.0  0.00000  0.00000  0.63610  1.0000 0.1357216979
C   C1        1.0  0.56920  0.53670  0.61920  1.0000 -0.1521903895
C   C2        1.0  0.56840  0.54040  0.73220  1.0000 -0.016989868
C   C3        1.0  0.63980  0.58770  0.79180  1.0000 0.6187053914
C   C4        1.0  0.06920  0.03670  0.11920  1.0000 -0.1521903895
C   C5        1.0  0.06840  0.04040  0.23220  1.0000 -0.016989868
C   C6        1.0  0.13980  0.08770  0.29180  1.0000 0.6187053914
C   C7        1.0  0.93080  0.96330  0.11920  1.0000 -0.1521903895
C   C8        1.0  0.93160  0.95960  0.23220  1.0000 -0.016989868
C   C9        1.0  0.86020  0.91230  0.29180  1.0000 0.6187053914
C   C10       1.0  0.43080  0.46330  0.61920  1.0000 -0.1521903895
C   C11       1.0  0.43160  0.45960  0.73220  1.0000 -0.016989868
C   C12       1.0  0.36020  0.41230  0.79180  1.0000 0.6187053914
C   C13       1.0  0.46330  0.06920  0.86920  1.0000 -0.1521903895
C   C14       1.0  0.45960  0.06840  0.98220  1.0000 -0.016989868
C   C15       1.0  0.41230  0.13980  0.04180  1.0000 0.6187053914
C   C16       1.0  0.96330  0.56920  0.36920  1.0000 -0.1521903895
C   C17       1.0  0.95960  0.56840  0.48220  1.0000 -0.016989868
C   C18       1.0  0.91230  0.63980  0.54180  1.0000 0.6187053914
C   C19       1.0  0.03670  0.43080  0.36920  1.0000 -0.1521903895
C   C20       1.0  0.04040  0.43160  0.48220  1.0000 -0.016989868
C   C21       1.0  0.08770  0.36020  0.54180  1.0000 0.6187053914
C   C22       1.0  0.53670  0.93080  0.86920  1.0000 -0.1521903895
C   C23       1.0  0.54040  0.93160  0.98220  1.0000 -0.016989868
C   C24       1.0  0.58770  0.86020  0.04180  1.0000 0.6187053914
C   C25       1.0  0.93080  0.53670  0.13080  1.0000 -0.1521903895
C   C26       1.0  0.93160  0.54040  0.01780  1.0000 -0.016989868
C   C27       1.0  0.86020  0.58770  0.95820  1.0000 0.6187053914
C   C28       1.0  0.43080  0.03670  0.63080  1.0000 -0.1521903895
C   C29       1.0  0.43160  0.04040  0.51780  1.0000 -0.016989868
C   C30       1.0  0.36020  0.08770  0.45820  1.0000 0.6187053914
C   C31       1.0  0.56920  0.96330  0.63080  1.0000 -0.1521903895
C   C32       1.0  0.56840  0.95960  0.51780  1.0000 -0.016989868
C   C33       1.0  0.63980  0.91230  0.45820  1.0000 0.6187053914
C   C34       1.0  0.06920  0.46330  0.13080  1.0000 -0.1521903895
C   C35       1.0  0.06840  0.45960  0.01780  1.0000 -0.016989868
C   C36       1.0  0.13980  0.41230  0.95820  1.0000 0.6187053914
C   C37       1.0  0.03670  0.06920  0.88080  1.0000 -0.1521903895
C   C38       1.0  0.04040  0.06840  0.76780  1.0000 -0.016989868
C   C39       1.0  0.08770  0.13980  0.70820  1.0000 0.6187053914
C   C40       1.0  0.53670  0.56920  0.38080  1.0000 -0.1521903895
C   C41       1.0  0.54040  0.56840  0.26780  1.0000 -0.016989868
C   C42       1.0  0.58770  0.63980  0.20820  1.0000 0.6187053914
C   C43       1.0  0.46330  0.43080  0.38080  1.0000 -0.1521903895
C   C44       1.0  0.45960  0.43160  0.26780  1.0000 -0.016989868
C   C45       1.0  0.41230  0.36020  0.20820  1.0000 0.6187053914
C   C46       1.0  0.96330  0.93080  0.88080  1.0000 -0.1521903895
C   C47       1.0  0.95960  0.93160  0.76780  1.0000 -0.016989868
C   C48       1.0  0.91230  0.86020  0.70820  1.0000 0.6187053914
C   C49       1.0  0.00000  0.00000  0.06100  1.0000 0.05740538
C   C50       1.0  0.00000  0.00000  0.28830  1.0000 -0.1081016646
C   C51       1.0  0.50000  0.50000  0.56100  1.0000 0.05740538
C   C52       1.0  0.50000  0.50000  0.78830  1.0000 -0.1081016646
C   C53       1.0  0.00000  0.50000  0.31100  1.0000 0.05740538
C   C54       1.0  0.00000  0.50000  0.53830  1.0000 -0.1081016646
C   C55       1.0  0.50000  0.00000  0.81100  1.0000 0.05740538
C   C56       1.0  0.50000  0.00000  0.03830  1.0000 -0.1081016646
C   C57       1.0  0.50000  0.00000  0.68900  1.0000 0.05740538
C   C58       1.0  0.50000  0.00000  0.46170  1.0000 -0.1081016646
C   C59       1.0  0.00000  0.50000  0.18900  1.0000 0.05740538
C   C60       1.0  0.00000  0.50000  0.96170  1.0000 -0.1081016646
C   C61       1.0  0.50000  0.50000  0.43900  1.0000 0.05740538
C   C62       1.0  0.50000  0.50000  0.21170  1.0000 -0.1081016646
C   C63       1.0  0.00000  0.00000  0.93900  1.0000 0.05740538
C   C64       1.0  0.00000  0.00000  0.71170  1.0000 -0.1081016646
O   O1        1.0  0.62030  0.61550  0.88540  1.0000 -0.6285099838
O   O2        1.0  0.71117  0.59694  0.74560  1.0000 -0.6285099838
O   O3        1.0  0.12030  0.11550  0.38540  1.0000 -0.6285099838
O   O4        1.0  0.21117  0.09694  0.24560  1.0000 -0.6285099838
O   O5        1.0  0.87970  0.88450  0.38540  1.0000 -0.6285099838
O   O6        1.0  0.78883  0.90306  0.24560  1.0000 -0.6285099838
O   O7        1.0  0.37970  0.38450  0.88540  1.0000 -0.6285099838
O   O8        1.0  0.28883  0.40306  0.74560  1.0000 -0.6285099838
O   O9        1.0  0.38450  0.12030  0.13540  1.0000 -0.6285099838
O   O10       1.0  0.40306  0.21117  0.99560  1.0000 -0.6285099838
O   O11       1.0  0.88450  0.62030  0.63540  1.0000 -0.6285099838
O   O12       1.0  0.90306  0.71117  0.49560  1.0000 -0.6285099838
O   O13       1.0  0.11550  0.37970  0.63540  1.0000 -0.6285099838
O   O14       1.0  0.09694  0.28883  0.49560  1.0000 -0.6285099838
O   O15       1.0  0.61550  0.87970  0.13540  1.0000 -0.6285099838
O   O16       1.0  0.59694  0.78883  0.99560  1.0000 -0.6285099838
O   O17       1.0  0.87970  0.61550  0.86460  1.0000 -0.6285099838
O   O18       1.0  0.78883  0.59694  0.00440  1.0000 -0.6285099838
O   O19       1.0  0.37970  0.11550  0.36460  1.0000 -0.6285099838
O   O20       1.0  0.28883  0.09694  0.50440  1.0000 -0.6285099838
O   O21       1.0  0.62030  0.88450  0.36460  1.0000 -0.6285099838
O   O22       1.0  0.71117  0.90306  0.50440  1.0000 -0.6285099838
O   O23       1.0  0.12030  0.38450  0.86460  1.0000 -0.6285099838
O   O24       1.0  0.21117  0.40306  0.00440  1.0000 -0.6285099838
O   O25       1.0  0.11550  0.12030  0.61460  1.0000 -0.6285099838
O   O26       1.0  0.09694  0.21117  0.75440  1.0000 -0.6285099838
O   O27       1.0  0.61550  0.62030  0.11460  1.0000 -0.6285099838
O   O28       1.0  0.59694  0.71117  0.25440  1.0000 -0.6285099838
O   O29       1.0  0.38450  0.37970  0.11460  1.0000 -0.6285099838
O   O30       1.0  0.40306  0.28883  0.25440  1.0000 -0.6285099838
O   O31       1.0  0.88450  0.87970  0.61460  1.0000 -0.6285099838
O   O32       1.0  0.90306  0.78883  0.75440  1.0000 -0.6285099838
O   O33       1.0  0.75540  0.75000  0.12500  1.0000 -0.8680271213
O   O34       1.0  0.25540  0.25000  0.62500  1.0000 -0.8680271213
O   O35       1.0  0.74460  0.75000  0.62500  1.0000 -0.8680271213
O   O36       1.0  0.24460  0.25000  0.12500  1.0000 -0.8680271213
O   O37       1.0  0.25000  0.25540  0.37500  1.0000 -0.8680271213
O   O38       1.0  0.75000  0.75540  0.87500  1.0000 -0.8680271213
O   O39       1.0  0.25000  0.24460  0.87500  1.0000 -0.8680271213
O   O40       1.0  0.75000  0.74460  0.37500  1.0000 -0.8680271213
