# DDEC6 charges by PACMAN v1.1 (https://github.com/mtap-research/PACMAN-charge/)
data_2011[Gd][nan]3[ASR]5
_chemical_formula_sum              "Gd4 H12 C36 O24"
_cell_length_a       10.471
_cell_length_b       10.471
_cell_length_c       14.645
_cell_angle_alpha    90
_cell_angle_beta     90
_cell_angle_gamma    90

_symmetry_space_group_name_H-M    "P 1"
_symmetry_Int_Tables_number       1

loop_
  _symmetry_equiv_pos_as_xyz
  'x, y, z'

loop_
  _atom_site_type_symbol
  _atom_site_label
  _atom_site_symmetry_multiplicity
  _atom_site_fract_x
  _atom_site_fract_y
  _atom_site_fract_z
  _atom_site_occupancy
  _atom_site_charge
Gd  Gd1       1.0  0.85727  0.14273  0.12500  1.0000 2.0904339632
Gd  Gd2       1.0  0.14273  0.85727  0.62500  1.0000 2.0847572169
Gd  Gd3       1.0  0.85727  0.85727  0.37500  1.0000 2.0904339632
Gd  Gd4       1.0  0.14273  0.14273  0.87500  1.0000 2.0904339632
H   H1        1.0  0.93570  0.55600  0.13080  1.0000 0.1343800338
H   H2        1.0  0.06430  0.44400  0.63080  1.0000 0.1343800338
H   H3        1.0  0.44400  0.93570  0.38080  1.0000 0.1343800338
H   H4        1.0  0.55600  0.06430  0.88080  1.0000 0.1343800338
H   H5        1.0  0.06430  0.55600  0.86920  1.0000 0.1343800338
H   H6        1.0  0.93570  0.44400  0.36920  1.0000 0.1343800338
H   H7        1.0  0.55600  0.93570  0.61920  1.0000 0.1343800338
H   H8        1.0  0.44400  0.06430  0.11920  1.0000 0.1343800338
H   H9        1.0  0.00000  0.89050  0.00000  1.0000 0.1083338788
H   H10       1.0  0.00000  0.10950  0.50000  1.0000 0.1083338788
H   H11       1.0  0.10950  0.00000  0.25000  1.0000 0.1083338788
H   H12       1.0  0.89050  0.00000  0.75000  1.0000 0.1083338788
C   C1        1.0  0.00000  0.38730  0.00000  1.0000 0.6708907565
C   C2        1.0  0.00000  0.61270  0.50000  1.0000 0.6708907565
C   C3        1.0  0.61270  0.00000  0.25000  1.0000 0.6708907565
C   C4        1.0  0.38730  0.00000  0.75000  1.0000 0.6708907565
C   C5        1.0  0.92450  0.81030  0.16330  1.0000 0.6310015252
C   C6        1.0  0.07550  0.18970  0.66330  1.0000 0.6310015252
C   C7        1.0  0.18970  0.92450  0.41330  1.0000 0.6310015252
C   C8        1.0  0.81030  0.07550  0.91330  1.0000 0.6310015252
C   C9        1.0  0.07550  0.81030  0.83670  1.0000 0.6310015252
C   C10       1.0  0.92450  0.18970  0.33670  1.0000 0.6310015252
C   C11       1.0  0.81030  0.92450  0.58670  1.0000 0.6310015252
C   C12       1.0  0.18970  0.07550  0.08670  1.0000 0.6310015252
C   C13       1.0  0.00000  0.53310  0.00000  1.0000 -0.029811269
C   C14       1.0  0.00000  0.46690  0.50000  1.0000 -0.029811269
C   C15       1.0  0.46690  0.00000  0.25000  1.0000 -0.029811269
C   C16       1.0  0.53310  0.00000  0.75000  1.0000 -0.029811269
C   C17       1.0  0.96160  0.60050  0.07910  1.0000 -0.1108625352
C   C18       1.0  0.03840  0.39950  0.57910  1.0000 -0.1108625352
C   C19       1.0  0.39950  0.96160  0.32910  1.0000 -0.1108625352
C   C20       1.0  0.60050  0.03840  0.82910  1.0000 -0.1108625352
C   C21       1.0  0.03840  0.60050  0.92090  1.0000 -0.1108625352
C   C22       1.0  0.96160  0.39950  0.42090  1.0000 -0.1108625352
C   C23       1.0  0.60050  0.96160  0.67090  1.0000 -0.1108625352
C   C24       1.0  0.39950  0.03840  0.17090  1.0000 -0.1108625352
C   C25       1.0  0.96240  0.73510  0.07940  1.0000 -0.0186355038
C   C26       1.0  0.03760  0.26490  0.57940  1.0000 -0.0186355038
C   C27       1.0  0.26490  0.96240  0.32940  1.0000 -0.0186355038
C   C28       1.0  0.73510  0.03760  0.82940  1.0000 -0.0186355038
C   C29       1.0  0.03760  0.73510  0.92060  1.0000 -0.0186355038
C   C30       1.0  0.96240  0.26490  0.42060  1.0000 -0.0186355038
C   C31       1.0  0.73510  0.96240  0.67060  1.0000 -0.0186355038
C   C32       1.0  0.26490  0.03760  0.17060  1.0000 -0.0186355038
C   C33       1.0  0.00000  0.80170  0.00000  1.0000 -0.1108625352
C   C34       1.0  0.00000  0.19830  0.50000  1.0000 -0.1108625352
C   C35       1.0  0.19830  0.00000  0.25000  1.0000 -0.1108625352
C   C36       1.0  0.80170  0.00000  0.75000  1.0000 -0.1108625352
O   O1        1.0  0.93140  0.33180  0.05920  1.0000 -0.68714223
O   O2        1.0  0.06860  0.66820  0.55920  1.0000 -0.68714223
O   O3        1.0  0.66820  0.93140  0.30920  1.0000 -0.68714223
O   O4        1.0  0.33180  0.06860  0.80920  1.0000 -0.68714223
O   O5        1.0  0.06860  0.33180  0.94080  1.0000 -0.68714223
O   O6        1.0  0.93140  0.66820  0.44080  1.0000 -0.68714223
O   O7        1.0  0.33180  0.93140  0.69080  1.0000 -0.68714223
O   O8        1.0  0.66820  0.06860  0.19080  1.0000 -0.68714223
O   O9        1.0  0.92430  0.75250  0.23930  1.0000 -0.65776184
O   O10       1.0  0.07570  0.24750  0.73930  1.0000 -0.65776184
O   O11       1.0  0.24750  0.92430  0.48930  1.0000 -0.65776184
O   O12       1.0  0.75250  0.07570  0.98930  1.0000 -0.65776184
O   O13       1.0  0.07570  0.75250  0.76070  1.0000 -0.65776184
O   O14       1.0  0.92430  0.24750  0.26070  1.0000 -0.65776184
O   O15       1.0  0.75250  0.92430  0.51070  1.0000 -0.65776184
O   O16       1.0  0.24750  0.07570  0.01070  1.0000 -0.65776184
O   O17       1.0  0.89720  0.92380  0.15700  1.0000 -0.65776184
O   O18       1.0  0.10280  0.07620  0.65700  1.0000 -0.6537623921
O   O19       1.0  0.07620  0.89720  0.40700  1.0000 -0.6537623921
O   O20       1.0  0.92380  0.10280  0.90700  1.0000 -0.65776184
O   O21       1.0  0.10280  0.92380  0.84300  1.0000 -0.6537623921
O   O22       1.0  0.89720  0.07620  0.34300  1.0000 -0.6537623921
O   O23       1.0  0.92380  0.89720  0.59300  1.0000 -0.6537623921
O   O24       1.0  0.07620  0.10280  0.09300  1.0000 -0.6537623921
