# DDEC6 charges by PACMAN v1.1 (https://github.com/mtap-research/PACMAN-charge/)
data_2011[Cu][pts]3[ASR]1
_chemical_formula_sum              "Cu8 H64 C58 N8 O20"
_cell_length_a       10.0124
_cell_length_b       14.1908
_cell_length_c       21.6482
_cell_angle_alpha    90
_cell_angle_beta     102.265
_cell_angle_gamma    90

_symmetry_space_group_name_H-M    "P 1"
_symmetry_Int_Tables_number       1

loop_
  _symmetry_equiv_pos_as_xyz
  'x, y, z'

loop_
  _atom_site_type_symbol
  _atom_site_label
  _atom_site_symmetry_multiplicity
  _atom_site_fract_x
  _atom_site_fract_y
  _atom_site_fract_z
  _atom_site_occupancy
  _atom_site_charge
Cu  Cu1       1.0  0.06252  0.66638  0.94015  1.0000 0.3323005307
Cu  Cu2       1.0  0.93748  0.66638  0.55985  1.0000 0.3323005307
Cu  Cu3       1.0  0.93748  0.33362  0.05985  1.0000 0.3323005307
Cu  Cu4       1.0  0.06252  0.33362  0.44015  1.0000 0.3323005307
Cu  Cu5       1.0  0.87468  0.49449  0.94807  1.0000 0.7521831561
Cu  Cu6       1.0  0.12532  0.49449  0.55193  1.0000 0.7521831561
Cu  Cu7       1.0  0.12532  0.50551  0.05193  1.0000 0.7521831561
Cu  Cu8       1.0  0.87468  0.50551  0.44807  1.0000 0.7521831561
H   H1        1.0  0.93660  0.62600  0.02500  1.0000 0.3788623382
H   H2        1.0  0.06340  0.62600  0.47500  1.0000 0.3788623382
H   H3        1.0  0.06340  0.37400  0.97500  1.0000 0.3788623382
H   H4        1.0  0.93660  0.37400  0.52500  1.0000 0.3788623382
H   H5        1.0  0.90840  0.35740  0.84580  1.0000 0.0989850063
H   H6        1.0  0.09160  0.35740  0.65420  1.0000 0.0989850063
H   H7        1.0  0.09160  0.64260  0.15420  1.0000 0.0989850063
H   H8        1.0  0.90840  0.64260  0.34580  1.0000 0.0989850063
H   H9        1.0  0.43400  0.00630  0.83330  1.0000 0.0830074404
H   H10       1.0  0.56600  0.00630  0.66667  1.0000 0.0830074404
H   H11       1.0  0.56600  0.99370  0.16670  1.0000 0.0830074404
H   H12       1.0  0.43400  0.99370  0.33333  1.0000 0.0830074404
H   H13       1.0  0.54480  0.93190  0.82420  1.0000 0.0989850063
H   H14       1.0  0.45520  0.93190  0.67580  1.0000 0.0989850063
H   H15       1.0  0.45520  0.06810  0.17580  1.0000 0.0989850063
H   H16       1.0  0.54480  0.06810  0.32420  1.0000 0.0989850063
H   H17       1.0  0.41020  0.89110  0.89970  1.0000 0.1296732258
H   H18       1.0  0.58980  0.89110  0.60030  1.0000 0.1296732258
H   H19       1.0  0.58980  0.10890  0.10030  1.0000 0.1296732258
H   H20       1.0  0.41020  0.10890  0.39970  1.0000 0.1296732258
H   H21       1.0  0.64920  0.12690  0.74560  1.0000 0.0906919285
H   H22       1.0  0.35080  0.12690  0.75440  1.0000 0.0906919285
H   H23       1.0  0.35080  0.87310  0.25440  1.0000 0.0906919285
H   H24       1.0  0.64920  0.87310  0.24560  1.0000 0.0906919285
H   H25       1.0  0.69990  0.05080  0.79840  1.0000 0.0989850063
H   H26       1.0  0.30010  0.05080  0.70160  1.0000 0.0989850063
H   H27       1.0  0.30010  0.94920  0.20160  1.0000 0.0989850063
H   H28       1.0  0.69990  0.94920  0.29840  1.0000 0.0989850063
H   H29       1.0  0.80690  0.22260  0.80070  1.0000 0.1296732258
H   H30       1.0  0.19310  0.22260  0.69930  1.0000 0.1296732258
H   H31       1.0  0.19310  0.77740  0.19930  1.0000 0.1296732258
H   H32       1.0  0.80690  0.77740  0.30070  1.0000 0.1296732258
H   H33       1.0  0.06890  0.69170  0.80600  1.0000 0.0989850063
H   H34       1.0  0.93110  0.69170  0.69400  1.0000 0.0989850063
H   H35       1.0  0.93110  0.30830  0.19400  1.0000 0.0989850063
H   H36       1.0  0.06890  0.30830  0.30600  1.0000 0.0989850063
H   H37       1.0  0.17470  0.78210  0.74290  1.0000 0.1405547317
H   H38       1.0  0.82530  0.78210  0.75710  1.0000 0.1405547317
H   H39       1.0  0.82530  0.21790  0.25710  1.0000 0.1405547317
H   H40       1.0  0.17470  0.21790  0.24290  1.0000 0.1405547317
H   H41       1.0  0.29330  0.80150  0.95780  1.0000 0.0906919285
H   H42       1.0  0.70670  0.80150  0.54220  1.0000 0.0906919285
H   H43       1.0  0.70670  0.19850  0.04220  1.0000 0.0906919285
H   H44       1.0  0.29330  0.19850  0.45780  1.0000 0.0906919285
H   H45       1.0  0.51330  0.26140  0.89880  1.0000 0.1405547317
H   H46       1.0  0.48670  0.26140  0.60120  1.0000 0.1405547317
H   H47       1.0  0.48670  0.73860  0.10120  1.0000 0.1405547317
H   H48       1.0  0.51330  0.73860  0.39880  1.0000 0.1405547317
H   H49       1.0  0.62370  0.39520  0.93980  1.0000 0.0989850063
H   H50       1.0  0.37630  0.39520  0.56020  1.0000 0.0989850063
H   H51       1.0  0.37630  0.60480  0.06020  1.0000 0.0989850063
H   H52       1.0  0.62370  0.60480  0.43980  1.0000 0.0989850063
H   H53       1.0  0.64430  0.75890  0.82290  1.0000 0.1405547317
H   H54       1.0  0.35570  0.75890  0.67710  1.0000 0.1405547317
H   H55       1.0  0.35570  0.24110  0.17710  1.0000 0.1405547317
H   H56       1.0  0.64430  0.24110  0.32290  1.0000 0.1405547317
H   H57       1.0  0.57340  0.66010  0.81130  1.0000 0.1487579663
H   H58       1.0  0.42660  0.66010  0.68870  1.0000 0.1487579663
H   H59       1.0  0.42660  0.33990  0.18870  1.0000 0.1487579663
H   H60       1.0  0.57340  0.33990  0.31130  1.0000 0.1487579663
H   H61       1.0  0.56590  0.71770  0.87220  1.0000 0.1405547317
H   H62       1.0  0.43410  0.71770  0.62780  1.0000 0.1405547317
H   H63       1.0  0.43410  0.28230  0.12780  1.0000 0.1405547317
H   H64       1.0  0.56590  0.28230  0.37220  1.0000 0.1405547317
C   C1        1.0  0.82860  0.33680  0.85710  1.0000 0.0830074404
C   C2        1.0  0.17140  0.33680  0.64290  1.0000 0.0830074404
C   C3        1.0  0.17140  0.66320  0.14290  1.0000 0.0830074404
C   C4        1.0  0.82860  0.66320  0.35710  1.0000 0.0830074404
C   C5        1.0  0.30270  0.84900  0.81473  1.0000 0.2692869026
C   C6        1.0  0.69730  0.84900  0.68527  1.0000 0.2692869026
C   C7        1.0  0.69730  0.15100  0.18527  1.0000 0.2692869026
C   C8        1.0  0.30270  0.15100  0.31473  1.0000 0.2692869026
C   C9        1.0  0.46480  0.96650  0.80271  1.0000 -0.1041380893
C   C10       1.0  0.53520  0.96650  0.69729  1.0000 -0.1041380893
C   C11       1.0  0.53520  0.03350  0.19729  1.0000 -0.1041380893
C   C12       1.0  0.46480  0.03350  0.30271  1.0000 -0.1041380893
C   C13       1.0  0.50000  0.02650  0.75000  1.0000 0.0830074404
C   C14       1.0  0.50000  0.97350  0.25000  1.0000 0.0830074404
C   C15       1.0  0.33930  0.85230  0.87956  1.0000 -0.2697823178
C   C16       1.0  0.66070  0.85230  0.62044  1.0000 -0.2697823178
C   C17       1.0  0.66070  0.14770  0.12044  1.0000 -0.2697823178
C   C18       1.0  0.33930  0.14770  0.37956  1.0000 -0.2697823178
C   C19       1.0  0.62250  0.08910  0.77830  1.0000 -0.0912442859
C   C20       1.0  0.37750  0.08910  0.72170  1.0000 -0.0912442859
C   C21       1.0  0.37750  0.91090  0.22170  1.0000 -0.0912442859
C   C22       1.0  0.62250  0.91090  0.27830  1.0000 -0.0912442859
C   C23       1.0  0.76840  0.25610  0.82948  1.0000 -0.2838925849
C   C24       1.0  0.23160  0.25610  0.67052  1.0000 -0.2838925849
C   C25       1.0  0.23160  0.74390  0.17052  1.0000 -0.2838925849
C   C26       1.0  0.76840  0.74390  0.32948  1.0000 -0.2838925849
C   C27       1.0  0.75110  0.65600  0.87735  1.0000 0.6801101733
C   C28       1.0  0.24890  0.65600  0.62265  1.0000 0.6801101733
C   C29       1.0  0.24890  0.34400  0.12265  1.0000 0.6801101733
C   C30       1.0  0.75110  0.34400  0.37735  1.0000 0.6801101733
C   C31       1.0  0.13700  0.73340  0.82492  1.0000 0.0906919285
C   C32       1.0  0.86300  0.73340  0.67508  1.0000 0.0906919285
C   C33       1.0  0.86300  0.26660  0.17508  1.0000 0.0906919285
C   C34       1.0  0.13700  0.26660  0.32492  1.0000 0.0906919285
C   C35       1.0  0.20010  0.78710  0.78671  1.0000 -0.2697823178
C   C36       1.0  0.79990  0.78710  0.71329  1.0000 -0.2697823178
C   C37       1.0  0.79990  0.21290  0.21329  1.0000 -0.2697823178
C   C38       1.0  0.20010  0.21290  0.28671  1.0000 -0.2697823178
C   C39       1.0  0.64990  0.22570  0.84537  1.0000 0.2767175604
C   C40       1.0  0.35010  0.22570  0.65463  1.0000 0.2767175604
C   C41       1.0  0.35010  0.77430  0.15463  1.0000 0.2767175604
C   C42       1.0  0.64990  0.77430  0.34537  1.0000 0.2767175604
C   C43       1.0  0.26960  0.79750  0.91391  1.0000 0.0591588821
C   C44       1.0  0.73040  0.79750  0.58609  1.0000 0.0591588821
C   C45       1.0  0.73040  0.20250  0.08609  1.0000 0.0591588821
C   C46       1.0  0.26960  0.20250  0.41391  1.0000 0.0591588821
C   C47       1.0  0.59440  0.27930  0.88760  1.0000 -0.2697823178
C   C48       1.0  0.40560  0.27930  0.61240  1.0000 -0.2697823178
C   C49       1.0  0.40560  0.72070  0.11240  1.0000 -0.2697823178
C   C50       1.0  0.59440  0.72070  0.38760  1.0000 -0.2697823178
C   C51       1.0  0.66180  0.35890  0.91230  1.0000 0.0688026268
C   C52       1.0  0.33820  0.35890  0.58770  1.0000 0.0688026268
C   C53       1.0  0.33820  0.64110  0.08770  1.0000 0.0688026268
C   C54       1.0  0.66180  0.64110  0.41230  1.0000 0.0688026268
C   C55       1.0  0.62210  0.70240  0.84280  1.0000 -0.6161329578
C   C56       1.0  0.37790  0.70240  0.65720  1.0000 -0.6161329578
C   C57       1.0  0.37790  0.29760  0.15720  1.0000 -0.6161329578
C   C58       1.0  0.62210  0.29760  0.34280  1.0000 -0.6161329578
N   N1        1.0  0.77960  0.38720  0.89887  1.0000 -0.2697823178
N   N2        1.0  0.22040  0.38720  0.60113  1.0000 -0.2697823178
N   N3        1.0  0.22040  0.61280  0.10113  1.0000 -0.2697823178
N   N4        1.0  0.77960  0.61280  0.39887  1.0000 -0.2697823178
N   N5        1.0  0.16880  0.73820  0.88793  1.0000 -0.2624107729
N   N6        1.0  0.83120  0.73820  0.61207  1.0000 -0.2624107729
N   N7        1.0  0.83120  0.26180  0.11207  1.0000 -0.2624107729
N   N8        1.0  0.16880  0.26180  0.38793  1.0000 -0.2624107729
O   O1        1.0  0.98770  0.58880  0.99965  1.0000 -0.7801381182
O   O2        1.0  0.01230  0.58880  0.50035  1.0000 -0.7801381182
O   O3        1.0  0.01230  0.41120  0.00035  1.0000 -0.7801381182
O   O4        1.0  0.98770  0.41120  0.49965  1.0000 -0.7801381182
O   O5        1.0  0.35840  0.90219  0.77467  1.0000 -0.1955319774
O   O6        1.0  0.64160  0.90219  0.72533  1.0000 -0.1955319774
O   O7        1.0  0.64160  0.09781  0.22533  1.0000 -0.1955319774
O   O8        1.0  0.35840  0.09781  0.27467  1.0000 -0.1955319774
O   O9        1.0  0.57870  0.14794  0.82368  1.0000 -0.1955319774
O   O10       1.0  0.42130  0.14794  0.67632  1.0000 -0.1955319774
O   O11       1.0  0.42130  0.85206  0.17632  1.0000 -0.1955319774
O   O12       1.0  0.57870  0.85206  0.32368  1.0000 -0.1955319774
O   O13       1.0  0.73500  0.57967  0.90647  1.0000 -0.5823449921
O   O14       1.0  0.26500  0.57967  0.59353  1.0000 -0.5823449921
O   O15       1.0  0.26500  0.42033  0.09353  1.0000 -0.5823449921
O   O16       1.0  0.73500  0.42033  0.40647  1.0000 -0.5823449921
O   O17       1.0  0.86170  0.69290  0.87586  1.0000 -0.5717699062
O   O18       1.0  0.13830  0.69290  0.62414  1.0000 -0.5717699062
O   O19       1.0  0.13830  0.30710  0.12414  1.0000 -0.5717699062
O   O20       1.0  0.86170  0.30710  0.37586  1.0000 -0.5717699062
