# DDEC6 charges by PACMAN v1.1 (https://github.com/mtap-research/PACMAN-charge/)
data_2011[Zr][fcu]3[ASR]1
_chemical_formula_sum              "Zr12 H152 C288 O64"
_cell_length_a       28.1747
_cell_length_b       28.1747
_cell_length_c       28.1747
_cell_angle_alpha    60
_cell_angle_beta     60
_cell_angle_gamma    60

_symmetry_space_group_name_H-M    "P 1"
_symmetry_Int_Tables_number       1

loop_
  _symmetry_equiv_pos_as_xyz
  'x, y, z'

loop_
  _atom_site_type_symbol
  _atom_site_label
  _atom_site_symmetry_multiplicity
  _atom_site_fract_x
  _atom_site_fract_y
  _atom_site_fract_z
  _atom_site_occupancy
  _atom_site_charge
Zr  Zr1       1.0  0.18779  0.18779  0.31221  1.0000 2.3461887318
Zr  Zr2       1.0  0.31221  0.31221  0.18779  1.0000 2.3461887318
Zr  Zr3       1.0  0.31221  0.18779  0.18779  1.0000 2.3461887318
Zr  Zr4       1.0  0.18779  0.31221  0.31221  1.0000 2.3461887318
Zr  Zr5       1.0  0.18779  0.31221  0.18779  1.0000 2.3461887318
Zr  Zr6       1.0  0.31221  0.18779  0.31221  1.0000 2.3461887318
Zr  Zr7       1.0  0.56221  0.56221  0.43779  1.0000 2.3407845773
Zr  Zr8       1.0  0.43779  0.43779  0.56221  1.0000 2.3407845773
Zr  Zr9       1.0  0.43779  0.56221  0.56221  1.0000 2.3407845773
Zr  Zr10      1.0  0.56221  0.43779  0.43779  1.0000 2.3407845773
Zr  Zr11      1.0  0.56221  0.43779  0.56221  1.0000 2.3407845773
Zr  Zr12      1.0  0.43779  0.56221  0.43779  1.0000 2.3407845773
H   H1        1.0  0.18202  0.02714  0.33552  1.0000 0.0992151485
H   H2        1.0  0.19083  0.92891  0.34461  1.0000 0.0776113299
H   H3        1.0  0.36067  0.75973  0.21274  1.0000 0.0992151485
H   H4        1.0  0.72286  0.56798  0.41448  1.0000 0.0992151485
H   H5        1.0  0.82109  0.55917  0.40539  1.0000 0.0776113299
H   H6        1.0  0.99027  0.38933  0.53726  1.0000 0.0992151485
H   H7        1.0  0.02714  0.18202  0.45532  1.0000 0.0992151485
H   H8        1.0  0.92891  0.19083  0.53565  1.0000 0.0776113299
H   H9        1.0  0.75973  0.36067  0.66687  1.0000 0.0992151485
H   H10       1.0  0.56798  0.72286  0.29468  1.0000 0.0992151485
H   H11       1.0  0.55917  0.82109  0.21435  1.0000 0.0776113299
H   H12       1.0  0.38933  0.99027  0.08313  1.0000 0.0992151485
H   H13       1.0  0.33552  0.45532  0.18202  1.0000 0.0992151485
H   H14       1.0  0.34461  0.53565  0.19083  1.0000 0.0776113299
H   H15       1.0  0.21274  0.66687  0.36067  1.0000 0.0992151485
H   H16       1.0  0.41448  0.29468  0.72286  1.0000 0.0992151485
H   H17       1.0  0.40539  0.21435  0.82109  1.0000 0.0776113299
H   H18       1.0  0.53726  0.08313  0.99027  1.0000 0.0992151485
H   H19       1.0  0.45532  0.33552  0.02714  1.0000 0.0992151485
H   H20       1.0  0.53565  0.34461  0.92891  1.0000 0.0776113299
H   H21       1.0  0.66687  0.21274  0.75973  1.0000 0.0992151485
H   H22       1.0  0.29468  0.41448  0.56798  1.0000 0.0992151485
H   H23       1.0  0.21435  0.40539  0.55917  1.0000 0.0776113299
H   H24       1.0  0.08313  0.53726  0.38933  1.0000 0.0992151485
H   H25       1.0  0.33552  0.18202  0.02714  1.0000 0.0992151485
H   H26       1.0  0.34461  0.19083  0.92891  1.0000 0.0776113299
H   H27       1.0  0.21274  0.36067  0.75973  1.0000 0.0992151485
H   H28       1.0  0.41448  0.72286  0.56798  1.0000 0.0992151485
H   H29       1.0  0.40539  0.82109  0.55917  1.0000 0.0776113299
H   H30       1.0  0.53726  0.99027  0.38933  1.0000 0.0992151485
H   H31       1.0  0.45532  0.02714  0.18202  1.0000 0.0992151485
H   H32       1.0  0.53565  0.92891  0.19083  1.0000 0.0776113299
H   H33       1.0  0.66687  0.75973  0.36067  1.0000 0.0992151485
H   H34       1.0  0.29468  0.56798  0.72286  1.0000 0.0992151485
H   H35       1.0  0.21435  0.55917  0.82109  1.0000 0.0776113299
H   H36       1.0  0.08313  0.38933  0.99027  1.0000 0.0992151485
H   H37       1.0  0.18202  0.33552  0.45532  1.0000 0.0992151485
H   H38       1.0  0.19083  0.34461  0.53565  1.0000 0.0776113299
H   H39       1.0  0.36067  0.21274  0.66687  1.0000 0.0992151485
H   H40       1.0  0.72286  0.41448  0.29468  1.0000 0.0992151485
H   H41       1.0  0.82109  0.40539  0.21435  1.0000 0.0776113299
H   H42       1.0  0.99027  0.53726  0.08313  1.0000 0.0992151485
H   H43       1.0  0.02714  0.45532  0.33552  1.0000 0.0992151485
H   H44       1.0  0.92891  0.53565  0.34461  1.0000 0.0776113299
H   H45       1.0  0.75973  0.66687  0.21274  1.0000 0.0992151485
H   H46       1.0  0.56798  0.29468  0.41448  1.0000 0.0992151485
H   H47       1.0  0.55917  0.21435  0.40539  1.0000 0.0776113299
H   H48       1.0  0.38933  0.08313  0.53726  1.0000 0.0992151485
H   H49       1.0  0.02714  0.33552  0.18202  1.0000 0.0992151485
H   H50       1.0  0.92891  0.34461  0.19083  1.0000 0.0776113299
H   H51       1.0  0.75973  0.21274  0.36067  1.0000 0.0992151485
H   H52       1.0  0.56798  0.41448  0.72286  1.0000 0.0992151485
H   H53       1.0  0.55917  0.40539  0.82109  1.0000 0.0776113299
H   H54       1.0  0.38933  0.53726  0.99027  1.0000 0.0992151485
H   H55       1.0  0.18202  0.45532  0.02714  1.0000 0.0992151485
H   H56       1.0  0.19083  0.53565  0.92891  1.0000 0.0776113299
H   H57       1.0  0.36067  0.66687  0.75973  1.0000 0.0992151485
H   H58       1.0  0.72286  0.29468  0.56798  1.0000 0.0992151485
H   H59       1.0  0.82109  0.21435  0.55917  1.0000 0.0776113299
H   H60       1.0  0.99027  0.08313  0.38933  1.0000 0.0992151485
H   H61       1.0  0.45532  0.18202  0.33552  1.0000 0.0992151485
H   H62       1.0  0.53565  0.19083  0.34461  1.0000 0.0776113299
H   H63       1.0  0.66687  0.36067  0.21274  1.0000 0.0992151485
H   H64       1.0  0.29468  0.72286  0.41448  1.0000 0.0992151485
H   H65       1.0  0.21435  0.82109  0.40539  1.0000 0.0776113299
H   H66       1.0  0.08313  0.99027  0.53726  1.0000 0.0992151485
H   H67       1.0  0.33552  0.02714  0.45532  1.0000 0.0992151485
H   H68       1.0  0.34461  0.92891  0.53565  1.0000 0.0776113299
H   H69       1.0  0.21274  0.75973  0.66687  1.0000 0.0992151485
H   H70       1.0  0.41448  0.56798  0.29468  1.0000 0.0992151485
H   H71       1.0  0.40539  0.55917  0.21435  1.0000 0.0776113299
H   H72       1.0  0.53726  0.38933  0.08313  1.0000 0.0992151485
H   H73       1.0  0.02714  0.18202  0.33552  1.0000 0.0992151485
H   H74       1.0  0.92891  0.19083  0.34461  1.0000 0.0776113299
H   H75       1.0  0.75973  0.36067  0.21274  1.0000 0.0992151485
H   H76       1.0  0.56798  0.72286  0.41448  1.0000 0.0992151485
H   H77       1.0  0.55917  0.82109  0.40539  1.0000 0.0776113299
H   H78       1.0  0.38933  0.99027  0.53726  1.0000 0.0992151485
H   H79       1.0  0.18202  0.02714  0.45532  1.0000 0.0992151485
H   H80       1.0  0.19083  0.92891  0.53565  1.0000 0.0776113299
H   H81       1.0  0.36067  0.75973  0.66687  1.0000 0.0992151485
H   H82       1.0  0.72286  0.56798  0.29468  1.0000 0.0992151485
H   H83       1.0  0.82109  0.55917  0.21435  1.0000 0.0776113299
H   H84       1.0  0.99027  0.38933  0.08313  1.0000 0.0992151485
H   H85       1.0  0.45532  0.33552  0.18202  1.0000 0.0992151485
H   H86       1.0  0.53565  0.34461  0.19083  1.0000 0.0776113299
H   H87       1.0  0.66687  0.21274  0.36067  1.0000 0.0992151485
H   H88       1.0  0.29468  0.41448  0.72286  1.0000 0.0992151485
H   H89       1.0  0.21435  0.40539  0.82109  1.0000 0.0776113299
H   H90       1.0  0.08313  0.53726  0.99027  1.0000 0.0992151485
H   H91       1.0  0.33552  0.45532  0.02714  1.0000 0.0992151485
H   H92       1.0  0.34461  0.53565  0.92891  1.0000 0.0776113299
H   H93       1.0  0.21274  0.66687  0.75973  1.0000 0.0992151485
H   H94       1.0  0.41448  0.29468  0.56798  1.0000 0.0992151485
H   H95       1.0  0.40539  0.21435  0.55917  1.0000 0.0776113299
H   H96       1.0  0.53726  0.08313  0.38933  1.0000 0.0992151485
H   H97       1.0  0.18202  0.33552  0.02714  1.0000 0.0992151485
H   H98       1.0  0.19083  0.34461  0.92891  1.0000 0.0776113299
H   H99       1.0  0.36067  0.21274  0.75973  1.0000 0.0992151485
H   H100      1.0  0.72286  0.41448  0.56798  1.0000 0.0992151485
H   H101      1.0  0.82109  0.40539  0.55917  1.0000 0.0776113299
H   H102      1.0  0.99027  0.53726  0.38933  1.0000 0.0992151485
H   H103      1.0  0.02714  0.45532  0.18202  1.0000 0.0992151485
H   H104      1.0  0.92891  0.53565  0.19083  1.0000 0.0776113299
H   H105      1.0  0.75973  0.66687  0.36067  1.0000 0.0992151485
H   H106      1.0  0.56798  0.29468  0.72286  1.0000 0.0992151485
H   H107      1.0  0.55917  0.21435  0.82109  1.0000 0.0776113299
H   H108      1.0  0.38933  0.08313  0.99027  1.0000 0.0992151485
H   H109      1.0  0.33552  0.18202  0.45532  1.0000 0.0992151485
H   H110      1.0  0.34461  0.19083  0.53565  1.0000 0.0776113299
H   H111      1.0  0.21274  0.36067  0.66687  1.0000 0.0992151485
H   H112      1.0  0.41448  0.72286  0.29468  1.0000 0.0992151485
H   H113      1.0  0.40539  0.82109  0.21435  1.0000 0.0776113299
H   H114      1.0  0.53726  0.99027  0.08313  1.0000 0.0992151485
H   H115      1.0  0.45532  0.02714  0.33552  1.0000 0.0992151485
H   H116      1.0  0.53565  0.92891  0.34461  1.0000 0.0776113299
H   H117      1.0  0.66687  0.75973  0.21274  1.0000 0.0992151485
H   H118      1.0  0.29468  0.56798  0.41448  1.0000 0.0992151485
H   H119      1.0  0.21435  0.55917  0.40539  1.0000 0.0776113299
H   H120      1.0  0.08313  0.38933  0.53726  1.0000 0.0992151485
H   H121      1.0  0.33552  0.02714  0.18202  1.0000 0.0992151485
H   H122      1.0  0.34461  0.92891  0.19083  1.0000 0.0776113299
H   H123      1.0  0.21274  0.75973  0.36067  1.0000 0.0992151485
H   H124      1.0  0.41448  0.56798  0.72286  1.0000 0.0992151485
H   H125      1.0  0.40539  0.55917  0.82109  1.0000 0.0776113299
H   H126      1.0  0.53726  0.38933  0.99027  1.0000 0.0992151485
H   H127      1.0  0.45532  0.18202  0.02714  1.0000 0.0992151485
H   H128      1.0  0.53565  0.19083  0.92891  1.0000 0.0776113299
H   H129      1.0  0.66687  0.36067  0.75973  1.0000 0.0992151485
H   H130      1.0  0.29468  0.72286  0.56798  1.0000 0.0992151485
H   H131      1.0  0.21435  0.82109  0.55917  1.0000 0.0776113299
H   H132      1.0  0.08313  0.99027  0.38933  1.0000 0.0992151485
H   H133      1.0  0.18202  0.45532  0.33552  1.0000 0.0992151485
H   H134      1.0  0.19083  0.53565  0.34461  1.0000 0.0776113299
H   H135      1.0  0.36067  0.66687  0.21274  1.0000 0.0992151485
H   H136      1.0  0.72286  0.29468  0.41448  1.0000 0.0992151485
H   H137      1.0  0.82109  0.21435  0.40539  1.0000 0.0776113299
H   H138      1.0  0.99027  0.08313  0.53726  1.0000 0.0992151485
H   H139      1.0  0.02714  0.33552  0.45532  1.0000 0.0992151485
H   H140      1.0  0.92891  0.34461  0.53565  1.0000 0.0776113299
H   H141      1.0  0.75973  0.21274  0.66687  1.0000 0.0992151485
H   H142      1.0  0.56798  0.41448  0.29468  1.0000 0.0992151485
H   H143      1.0  0.55917  0.40539  0.21435  1.0000 0.0776113299
H   H144      1.0  0.38933  0.53726  0.08313  1.0000 0.0992151485
H   H145      1.0  0.20353  0.20353  0.38941  1.0000 0.4219363011
H   H146      1.0  0.20353  0.20353  0.20353  1.0000 0.4219363011
H   H147      1.0  0.38941  0.20353  0.20353  1.0000 0.4219363011
H   H148      1.0  0.20353  0.38941  0.20353  1.0000 0.4219363011
H   H149      1.0  0.54422  0.54422  0.54422  1.0000 0.409071324
H   H150      1.0  0.54422  0.54422  0.36734  1.0000 0.409071324
H   H151      1.0  0.54422  0.36734  0.54422  1.0000 0.409071324
H   H152      1.0  0.36734  0.54422  0.54422  1.0000 0.409071324
C   C1        1.0  0.21903  0.00505  0.30251  1.0000 -0.0641616636
C   C2        1.0  0.22408  0.95074  0.30772  1.0000 -0.110554748
C   C3        1.0  0.32280  0.74260  0.24440  1.0000 -0.110554748
C   C4        1.0  0.74495  0.53097  0.44749  1.0000 -0.0641616636
C   C5        1.0  0.79926  0.52592  0.44228  1.0000 -0.110554748
C   C6        1.0  0.00740  0.42720  0.50560  1.0000 -0.110554748
C   C7        1.0  0.00505  0.21903  0.47341  1.0000 -0.0641616636
C   C8        1.0  0.95074  0.22408  0.51746  1.0000 -0.110554748
C   C9        1.0  0.74260  0.32280  0.69020  1.0000 -0.110554748
C   C10       1.0  0.53097  0.74495  0.27659  1.0000 -0.0641616636
C   C11       1.0  0.52592  0.79926  0.23254  1.0000 -0.110554748
C   C12       1.0  0.42720  0.00740  0.05980  1.0000 -0.110554748
C   C13       1.0  0.30251  0.47341  0.21903  1.0000 -0.0641616636
C   C14       1.0  0.30772  0.51746  0.22408  1.0000 -0.110554748
C   C15       1.0  0.24440  0.69020  0.32280  1.0000 -0.110554748
C   C16       1.0  0.44749  0.27659  0.74495  1.0000 -0.0641616636
C   C17       1.0  0.44228  0.23254  0.79926  1.0000 -0.110554748
C   C18       1.0  0.50560  0.05980  0.00740  1.0000 -0.110554748
C   C19       1.0  0.47341  0.30251  0.00505  1.0000 -0.0641616636
C   C20       1.0  0.51746  0.30772  0.95074  1.0000 -0.110554748
C   C21       1.0  0.69020  0.24440  0.74260  1.0000 -0.110554748
C   C22       1.0  0.27659  0.44749  0.53097  1.0000 -0.0641616636
C   C23       1.0  0.23254  0.44228  0.52592  1.0000 -0.110554748
C   C24       1.0  0.05980  0.50560  0.42720  1.0000 -0.110554748
C   C25       1.0  0.30251  0.21903  0.00505  1.0000 -0.0641616636
C   C26       1.0  0.30772  0.22408  0.95074  1.0000 -0.110554748
C   C27       1.0  0.24440  0.32280  0.74260  1.0000 -0.110554748
C   C28       1.0  0.44749  0.74495  0.53097  1.0000 -0.0641616636
C   C29       1.0  0.44228  0.79926  0.52592  1.0000 -0.110554748
C   C30       1.0  0.50560  0.00740  0.42720  1.0000 -0.110554748
C   C31       1.0  0.47341  0.00505  0.21903  1.0000 -0.0641616636
C   C32       1.0  0.51746  0.95074  0.22408  1.0000 -0.110554748
C   C33       1.0  0.69020  0.74260  0.32280  1.0000 -0.110554748
C   C34       1.0  0.27659  0.53097  0.74495  1.0000 -0.0641616636
C   C35       1.0  0.23254  0.52592  0.79926  1.0000 -0.110554748
C   C36       1.0  0.05980  0.42720  0.00740  1.0000 -0.110554748
C   C37       1.0  0.21903  0.30251  0.47341  1.0000 -0.0641616636
C   C38       1.0  0.22408  0.30772  0.51746  1.0000 -0.110554748
C   C39       1.0  0.32280  0.24440  0.69020  1.0000 -0.110554748
C   C40       1.0  0.74495  0.44749  0.27659  1.0000 -0.0641616636
C   C41       1.0  0.79926  0.44228  0.23254  1.0000 -0.110554748
C   C42       1.0  0.00740  0.50560  0.05980  1.0000 -0.110554748
C   C43       1.0  0.00505  0.47341  0.30251  1.0000 -0.0641616636
C   C44       1.0  0.95074  0.51746  0.30772  1.0000 -0.110554748
C   C45       1.0  0.74260  0.69020  0.24440  1.0000 -0.110554748
C   C46       1.0  0.53097  0.27659  0.44749  1.0000 -0.0641616636
C   C47       1.0  0.52592  0.23254  0.44228  1.0000 -0.110554748
C   C48       1.0  0.42720  0.05980  0.50560  1.0000 -0.110554748
C   C49       1.0  0.00505  0.30251  0.21903  1.0000 -0.0641616636
C   C50       1.0  0.95074  0.30772  0.22408  1.0000 -0.110554748
C   C51       1.0  0.74260  0.24440  0.32280  1.0000 -0.110554748
C   C52       1.0  0.53097  0.44749  0.74495  1.0000 -0.0641616636
C   C53       1.0  0.52592  0.44228  0.79926  1.0000 -0.110554748
C   C54       1.0  0.42720  0.50560  0.00740  1.0000 -0.110554748
C   C55       1.0  0.21903  0.47341  0.00505  1.0000 -0.0641616636
C   C56       1.0  0.22408  0.51746  0.95074  1.0000 -0.110554748
C   C57       1.0  0.32280  0.69020  0.74260  1.0000 -0.110554748
C   C58       1.0  0.74495  0.27659  0.53097  1.0000 -0.0641616636
C   C59       1.0  0.79926  0.23254  0.52592  1.0000 -0.110554748
C   C60       1.0  0.00740  0.05980  0.42720  1.0000 -0.110554748
C   C61       1.0  0.47341  0.21903  0.30251  1.0000 -0.0641616636
C   C62       1.0  0.51746  0.22408  0.30772  1.0000 -0.110554748
C   C63       1.0  0.69020  0.32280  0.24440  1.0000 -0.110554748
C   C64       1.0  0.27659  0.74495  0.44749  1.0000 -0.0641616636
C   C65       1.0  0.23254  0.79926  0.44228  1.0000 -0.110554748
C   C66       1.0  0.05980  0.00740  0.50560  1.0000 -0.110554748
C   C67       1.0  0.30251  0.00505  0.47341  1.0000 -0.0641616636
C   C68       1.0  0.30772  0.95074  0.51746  1.0000 -0.110554748
C   C69       1.0  0.24440  0.74260  0.69020  1.0000 -0.110554748
C   C70       1.0  0.44749  0.53097  0.27659  1.0000 -0.0641616636
C   C71       1.0  0.44228  0.52592  0.23254  1.0000 -0.110554748
C   C72       1.0  0.50560  0.42720  0.05980  1.0000 -0.110554748
C   C73       1.0  0.00505  0.21903  0.30251  1.0000 -0.0641616636
C   C74       1.0  0.95074  0.22408  0.30772  1.0000 -0.110554748
C   C75       1.0  0.74260  0.32280  0.24440  1.0000 -0.110554748
C   C76       1.0  0.53097  0.74495  0.44749  1.0000 -0.0641616636
C   C77       1.0  0.52592  0.79926  0.44228  1.0000 -0.110554748
C   C78       1.0  0.42720  0.00740  0.50560  1.0000 -0.110554748
C   C79       1.0  0.21903  0.00505  0.47341  1.0000 -0.0641616636
C   C80       1.0  0.22408  0.95074  0.51746  1.0000 -0.110554748
C   C81       1.0  0.32280  0.74260  0.69020  1.0000 -0.110554748
C   C82       1.0  0.74495  0.53097  0.27659  1.0000 -0.0641616636
C   C83       1.0  0.79926  0.52592  0.23254  1.0000 -0.110554748
C   C84       1.0  0.00740  0.42720  0.05980  1.0000 -0.110554748
C   C85       1.0  0.47341  0.30251  0.21903  1.0000 -0.0641616636
C   C86       1.0  0.51746  0.30772  0.22408  1.0000 -0.110554748
C   C87       1.0  0.69020  0.24440  0.32280  1.0000 -0.110554748
C   C88       1.0  0.27659  0.44749  0.74495  1.0000 -0.0641616636
C   C89       1.0  0.23254  0.44228  0.79926  1.0000 -0.110554748
C   C90       1.0  0.05980  0.50560  0.00740  1.0000 -0.110554748
C   C91       1.0  0.30251  0.47341  0.00505  1.0000 -0.0641616636
C   C92       1.0  0.30772  0.51746  0.95074  1.0000 -0.110554748
C   C93       1.0  0.24440  0.69020  0.74260  1.0000 -0.110554748
C   C94       1.0  0.44749  0.27659  0.53097  1.0000 -0.0641616636
C   C95       1.0  0.44228  0.23254  0.52592  1.0000 -0.110554748
C   C96       1.0  0.50560  0.05980  0.42720  1.0000 -0.110554748
C   C97       1.0  0.21903  0.30251  0.00505  1.0000 -0.0641616636
C   C98       1.0  0.22408  0.30772  0.95074  1.0000 -0.110554748
C   C99       1.0  0.32280  0.24440  0.74260  1.0000 -0.110554748
C   C100      1.0  0.74495  0.44749  0.53097  1.0000 -0.0641616636
C   C101      1.0  0.79926  0.44228  0.52592  1.0000 -0.110554748
C   C102      1.0  0.00740  0.50560  0.42720  1.0000 -0.110554748
C   C103      1.0  0.00505  0.47341  0.21903  1.0000 -0.0641616636
C   C104      1.0  0.95074  0.51746  0.22408  1.0000 -0.110554748
C   C105      1.0  0.74260  0.69020  0.32280  1.0000 -0.110554748
C   C106      1.0  0.53097  0.27659  0.74495  1.0000 -0.0641616636
C   C107      1.0  0.52592  0.23254  0.79926  1.0000 -0.110554748
C   C108      1.0  0.42720  0.05980  0.00740  1.0000 -0.110554748
C   C109      1.0  0.30251  0.21903  0.47341  1.0000 -0.0641616636
C   C110      1.0  0.30772  0.22408  0.51746  1.0000 -0.110554748
C   C111      1.0  0.24440  0.32280  0.69020  1.0000 -0.110554748
C   C112      1.0  0.44749  0.74495  0.27659  1.0000 -0.0641616636
C   C113      1.0  0.44228  0.79926  0.23254  1.0000 -0.110554748
C   C114      1.0  0.50560  0.00740  0.05980  1.0000 -0.110554748
C   C115      1.0  0.47341  0.00505  0.30251  1.0000 -0.0641616636
C   C116      1.0  0.51746  0.95074  0.30772  1.0000 -0.110554748
C   C117      1.0  0.69020  0.74260  0.24440  1.0000 -0.110554748
C   C118      1.0  0.27659  0.53097  0.44749  1.0000 -0.0641616636
C   C119      1.0  0.23254  0.52592  0.44228  1.0000 -0.110554748
C   C120      1.0  0.05980  0.42720  0.50560  1.0000 -0.110554748
C   C121      1.0  0.30251  0.00505  0.21903  1.0000 -0.0641616636
C   C122      1.0  0.30772  0.95074  0.22408  1.0000 -0.110554748
C   C123      1.0  0.24440  0.74260  0.32280  1.0000 -0.110554748
C   C124      1.0  0.44749  0.53097  0.74495  1.0000 -0.0641616636
C   C125      1.0  0.44228  0.52592  0.79926  1.0000 -0.110554748
C   C126      1.0  0.50560  0.42720  0.00740  1.0000 -0.110554748
C   C127      1.0  0.47341  0.21903  0.00505  1.0000 -0.0641616636
C   C128      1.0  0.51746  0.22408  0.95074  1.0000 -0.110554748
C   C129      1.0  0.69020  0.32280  0.74260  1.0000 -0.110554748
C   C130      1.0  0.27659  0.74495  0.53097  1.0000 -0.0641616636
C   C131      1.0  0.23254  0.79926  0.52592  1.0000 -0.110554748
C   C132      1.0  0.05980  0.00740  0.42720  1.0000 -0.110554748
C   C133      1.0  0.21903  0.47341  0.30251  1.0000 -0.0641616636
C   C134      1.0  0.22408  0.51746  0.30772  1.0000 -0.110554748
C   C135      1.0  0.32280  0.69020  0.24440  1.0000 -0.110554748
C   C136      1.0  0.74495  0.27659  0.44749  1.0000 -0.0641616636
C   C137      1.0  0.79926  0.23254  0.44228  1.0000 -0.110554748
C   C138      1.0  0.00740  0.05980  0.50560  1.0000 -0.110554748
C   C139      1.0  0.00505  0.30251  0.47341  1.0000 -0.0641616636
C   C140      1.0  0.95074  0.30772  0.51746  1.0000 -0.110554748
C   C141      1.0  0.74260  0.24440  0.69020  1.0000 -0.110554748
C   C142      1.0  0.53097  0.44749  0.27659  1.0000 -0.0641616636
C   C143      1.0  0.52592  0.44228  0.23254  1.0000 -0.110554748
C   C144      1.0  0.42720  0.50560  0.05980  1.0000 -0.110554748
C   C145      1.0  0.25339  0.08893  0.25339  1.0000 0.6374559926
C   C146      1.0  0.25816  0.03158  0.25816  1.0000 -0.0265886098
C   C147      1.0  0.08893  0.25339  0.40429  1.0000 0.6374559926
C   C148      1.0  0.03158  0.25816  0.45210  1.0000 -0.0265886098
C   C149      1.0  0.25339  0.40429  0.25339  1.0000 0.6374559926
C   C150      1.0  0.25816  0.45210  0.25816  1.0000 -0.0265886098
C   C151      1.0  0.40429  0.25339  0.08893  1.0000 0.6374559926
C   C152      1.0  0.45210  0.25816  0.03158  1.0000 -0.0265886098
C   C153      1.0  0.25339  0.25339  0.08893  1.0000 0.6374559926
C   C154      1.0  0.25816  0.25816  0.03158  1.0000 -0.0265886098
C   C155      1.0  0.40429  0.08893  0.25339  1.0000 0.6374559926
C   C156      1.0  0.45210  0.03158  0.25816  1.0000 -0.0265886098
C   C157      1.0  0.25339  0.25339  0.40429  1.0000 0.6374559926
C   C158      1.0  0.25816  0.25816  0.45210  1.0000 -0.0265886098
C   C159      1.0  0.08893  0.40429  0.25339  1.0000 0.6374559926
C   C160      1.0  0.03158  0.45210  0.25816  1.0000 -0.0265886098
C   C161      1.0  0.08893  0.25339  0.25339  1.0000 0.6374559926
C   C162      1.0  0.03158  0.25816  0.25816  1.0000 -0.0265886098
C   C163      1.0  0.25339  0.40429  0.08893  1.0000 0.6374559926
C   C164      1.0  0.25816  0.45210  0.03158  1.0000 -0.0265886098
C   C165      1.0  0.40429  0.25339  0.25339  1.0000 0.6374559926
C   C166      1.0  0.45210  0.25816  0.25816  1.0000 -0.0265886098
C   C167      1.0  0.25339  0.08893  0.40429  1.0000 0.6374559926
C   C168      1.0  0.25816  0.03158  0.45210  1.0000 -0.0265886098
C   C169      1.0  0.26880  0.92312  0.26880  1.0000 0.120645221
C   C170      1.0  0.27400  0.86792  0.27400  1.0000 -0.0900374338
C   C171      1.0  0.27810  0.82192  0.27810  1.0000 -0.081259857
C   C172      1.0  0.28010  0.76968  0.28010  1.0000 0.0776113299
C   C173      1.0  0.92312  0.26880  0.53928  1.0000 0.120645221
C   C174      1.0  0.86792  0.27400  0.58408  1.0000 -0.0900374338
C   C175      1.0  0.82192  0.27810  0.62188  1.0000 -0.081259857
C   C176      1.0  0.76968  0.28010  0.67012  1.0000 0.0776113299
C   C177      1.0  0.26880  0.53928  0.26880  1.0000 0.120645221
C   C178      1.0  0.27400  0.58408  0.27400  1.0000 -0.0900374338
C   C179      1.0  0.27810  0.62188  0.27810  1.0000 -0.081259857
C   C180      1.0  0.28010  0.67012  0.28010  1.0000 0.0776113299
C   C181      1.0  0.53928  0.26880  0.92312  1.0000 0.120645221
C   C182      1.0  0.58408  0.27400  0.86792  1.0000 -0.0900374338
C   C183      1.0  0.62188  0.27810  0.82192  1.0000 -0.081259857
C   C184      1.0  0.67012  0.28010  0.76968  1.0000 0.0776113299
C   C185      1.0  0.26880  0.26880  0.92312  1.0000 0.120645221
C   C186      1.0  0.27400  0.27400  0.86792  1.0000 -0.0900374338
C   C187      1.0  0.27810  0.27810  0.82192  1.0000 -0.081259857
C   C188      1.0  0.28010  0.28010  0.76968  1.0000 0.0776113299
C   C189      1.0  0.53928  0.92312  0.26880  1.0000 0.120645221
C   C190      1.0  0.58408  0.86792  0.27400  1.0000 -0.0900374338
C   C191      1.0  0.62188  0.82192  0.27810  1.0000 -0.081259857
C   C192      1.0  0.67012  0.76968  0.28010  1.0000 0.0776113299
C   C193      1.0  0.26880  0.26880  0.53928  1.0000 0.120645221
C   C194      1.0  0.27400  0.27400  0.58408  1.0000 -0.0900374338
C   C195      1.0  0.27810  0.27810  0.62188  1.0000 -0.081259857
C   C196      1.0  0.28010  0.28010  0.67012  1.0000 0.0776113299
C   C197      1.0  0.92312  0.53928  0.26880  1.0000 0.120645221
C   C198      1.0  0.86792  0.58408  0.27400  1.0000 -0.0900374338
C   C199      1.0  0.82192  0.62188  0.27810  1.0000 -0.081259857
C   C200      1.0  0.76968  0.67012  0.28010  1.0000 0.0776113299
C   C201      1.0  0.92312  0.26880  0.26880  1.0000 0.120645221
C   C202      1.0  0.86792  0.27400  0.27400  1.0000 -0.0900374338
C   C203      1.0  0.82192  0.27810  0.27810  1.0000 -0.081259857
C   C204      1.0  0.76968  0.28010  0.28010  1.0000 0.0776113299
C   C205      1.0  0.26880  0.53928  0.92312  1.0000 0.120645221
C   C206      1.0  0.27400  0.58408  0.86792  1.0000 -0.0900374338
C   C207      1.0  0.27810  0.62188  0.82192  1.0000 -0.081259857
C   C208      1.0  0.28010  0.67012  0.76968  1.0000 0.0776113299
C   C209      1.0  0.53928  0.26880  0.26880  1.0000 0.120645221
C   C210      1.0  0.58408  0.27400  0.27400  1.0000 -0.0900374338
C   C211      1.0  0.62188  0.27810  0.27810  1.0000 -0.081259857
C   C212      1.0  0.67012  0.28010  0.28010  1.0000 0.0776113299
C   C213      1.0  0.26880  0.92312  0.53928  1.0000 0.120645221
C   C214      1.0  0.27400  0.86792  0.58408  1.0000 -0.0900374338
C   C215      1.0  0.27810  0.82192  0.62188  1.0000 -0.081259857
C   C216      1.0  0.28010  0.76968  0.67012  1.0000 0.0776113299
C   C217      1.0  0.66107  0.49661  0.49661  1.0000 0.6374559926
C   C218      1.0  0.71842  0.49184  0.49184  1.0000 -0.0265886098
C   C219      1.0  0.82688  0.48120  0.48120  1.0000 0.120645221
C   C220      1.0  0.88208  0.47600  0.47600  1.0000 -0.0900374338
C   C221      1.0  0.92808  0.47190  0.47190  1.0000 -0.081259857
C   C222      1.0  0.98032  0.46990  0.46990  1.0000 0.0776113299
C   C223      1.0  0.49661  0.66107  0.34571  1.0000 0.6374559926
C   C224      1.0  0.49184  0.71842  0.29790  1.0000 -0.0265886098
C   C225      1.0  0.48120  0.82688  0.21072  1.0000 0.120645221
C   C226      1.0  0.47600  0.88208  0.16592  1.0000 -0.0900374338
C   C227      1.0  0.47190  0.92808  0.12812  1.0000 -0.081259857
C   C228      1.0  0.46990  0.98032  0.07988  1.0000 0.0776113299
C   C229      1.0  0.49661  0.34571  0.66107  1.0000 0.6374559926
C   C230      1.0  0.49184  0.29790  0.71842  1.0000 -0.0265886098
C   C231      1.0  0.48120  0.21072  0.82688  1.0000 0.120645221
C   C232      1.0  0.47600  0.16592  0.88208  1.0000 -0.0900374338
C   C233      1.0  0.47190  0.12812  0.92808  1.0000 -0.081259857
C   C234      1.0  0.46990  0.07988  0.98032  1.0000 0.0776113299
C   C235      1.0  0.34571  0.49661  0.49661  1.0000 0.6374559926
C   C236      1.0  0.29790  0.49184  0.49184  1.0000 -0.0265886098
C   C237      1.0  0.21072  0.48120  0.48120  1.0000 0.120645221
C   C238      1.0  0.16592  0.47600  0.47600  1.0000 -0.0900374338
C   C239      1.0  0.12812  0.47190  0.47190  1.0000 -0.081259857
C   C240      1.0  0.07988  0.46990  0.46990  1.0000 0.0776113299
C   C241      1.0  0.49661  0.66107  0.49661  1.0000 0.6374559926
C   C242      1.0  0.49184  0.71842  0.49184  1.0000 -0.0265886098
C   C243      1.0  0.48120  0.82688  0.48120  1.0000 0.120645221
C   C244      1.0  0.47600  0.88208  0.47600  1.0000 -0.0900374338
C   C245      1.0  0.47190  0.92808  0.47190  1.0000 -0.081259857
C   C246      1.0  0.46990  0.98032  0.46990  1.0000 0.0776113299
C   C247      1.0  0.34571  0.49661  0.66107  1.0000 0.6374559926
C   C248      1.0  0.29790  0.49184  0.71842  1.0000 -0.0265886098
C   C249      1.0  0.21072  0.48120  0.82688  1.0000 0.120645221
C   C250      1.0  0.16592  0.47600  0.88208  1.0000 -0.0900374338
C   C251      1.0  0.12812  0.47190  0.92808  1.0000 -0.081259857
C   C252      1.0  0.07988  0.46990  0.98032  1.0000 0.0776113299
C   C253      1.0  0.66107  0.49661  0.34571  1.0000 0.6374559926
C   C254      1.0  0.71842  0.49184  0.29790  1.0000 -0.0265886098
C   C255      1.0  0.82688  0.48120  0.21072  1.0000 0.120645221
C   C256      1.0  0.88208  0.47600  0.16592  1.0000 -0.0900374338
C   C257      1.0  0.92808  0.47190  0.12812  1.0000 -0.081259857
C   C258      1.0  0.98032  0.46990  0.07988  1.0000 0.0776113299
C   C259      1.0  0.49661  0.34571  0.49661  1.0000 0.6374559926
C   C260      1.0  0.49184  0.29790  0.49184  1.0000 -0.0265886098
C   C261      1.0  0.48120  0.21072  0.48120  1.0000 0.120645221
C   C262      1.0  0.47600  0.16592  0.47600  1.0000 -0.0900374338
C   C263      1.0  0.47190  0.12812  0.47190  1.0000 -0.081259857
C   C264      1.0  0.46990  0.07988  0.46990  1.0000 0.0776113299
C   C265      1.0  0.49661  0.49661  0.66107  1.0000 0.6374559926
C   C266      1.0  0.49184  0.49184  0.71842  1.0000 -0.0265886098
C   C267      1.0  0.48120  0.48120  0.82688  1.0000 0.120645221
C   C268      1.0  0.47600  0.47600  0.88208  1.0000 -0.0900374338
C   C269      1.0  0.47190  0.47190  0.92808  1.0000 -0.081259857
C   C270      1.0  0.46990  0.46990  0.98032  1.0000 0.0776113299
C   C271      1.0  0.66107  0.34571  0.49661  1.0000 0.6374559926
C   C272      1.0  0.71842  0.29790  0.49184  1.0000 -0.0265886098
C   C273      1.0  0.82688  0.21072  0.48120  1.0000 0.120645221
C   C274      1.0  0.88208  0.16592  0.47600  1.0000 -0.0900374338
C   C275      1.0  0.92808  0.12812  0.47190  1.0000 -0.081259857
C   C276      1.0  0.98032  0.07988  0.46990  1.0000 0.0776113299
C   C277      1.0  0.34571  0.66107  0.49661  1.0000 0.6374559926
C   C278      1.0  0.29790  0.71842  0.49184  1.0000 -0.0265886098
C   C279      1.0  0.21072  0.82688  0.48120  1.0000 0.120645221
C   C280      1.0  0.16592  0.88208  0.47600  1.0000 -0.0900374338
C   C281      1.0  0.12812  0.92808  0.47190  1.0000 -0.081259857
C   C282      1.0  0.07988  0.98032  0.46990  1.0000 0.0776113299
C   C283      1.0  0.49661  0.49661  0.34571  1.0000 0.6374559926
C   C284      1.0  0.49184  0.49184  0.29790  1.0000 -0.0265886098
C   C285      1.0  0.48120  0.48120  0.21072  1.0000 0.120645221
C   C286      1.0  0.47600  0.47600  0.16592  1.0000 -0.0900374338
C   C287      1.0  0.47190  0.47190  0.12812  1.0000 -0.081259857
C   C288      1.0  0.46990  0.46990  0.07988  1.0000 0.0776113299
O   O1        1.0  0.21009  0.11141  0.29115  1.0000 -0.5990155461
O   O2        1.0  0.63859  0.53991  0.45885  1.0000 -0.5990155461
O   O3        1.0  0.11141  0.21009  0.38735  1.0000 -0.5990155461
O   O4        1.0  0.53991  0.63859  0.36265  1.0000 -0.5990155461
O   O5        1.0  0.29115  0.38735  0.21009  1.0000 -0.5990155461
O   O6        1.0  0.45885  0.36265  0.63859  1.0000 -0.5990155461
O   O7        1.0  0.38735  0.29115  0.11141  1.0000 -0.5990155461
O   O8        1.0  0.36265  0.45885  0.53991  1.0000 -0.5990155461
O   O9        1.0  0.29115  0.21009  0.11141  1.0000 -0.5990155461
O   O10       1.0  0.45885  0.63859  0.53991  1.0000 -0.5990155461
O   O11       1.0  0.38735  0.11141  0.21009  1.0000 -0.5990155461
O   O12       1.0  0.36265  0.53991  0.63859  1.0000 -0.5990155461
O   O13       1.0  0.21009  0.29115  0.38735  1.0000 -0.5990155461
O   O14       1.0  0.63859  0.45885  0.36265  1.0000 -0.5990155461
O   O15       1.0  0.11141  0.38735  0.29115  1.0000 -0.5990155461
O   O16       1.0  0.53991  0.36265  0.45885  1.0000 -0.5990155461
O   O17       1.0  0.11141  0.29115  0.21009  1.0000 -0.5990155461
O   O18       1.0  0.53991  0.45885  0.63859  1.0000 -0.5990155461
O   O19       1.0  0.21009  0.38735  0.11141  1.0000 -0.5990155461
O   O20       1.0  0.63859  0.36265  0.53991  1.0000 -0.5990155461
O   O21       1.0  0.38735  0.21009  0.29115  1.0000 -0.5990155461
O   O22       1.0  0.36265  0.63859  0.45885  1.0000 -0.5990155461
O   O23       1.0  0.29115  0.11141  0.38735  1.0000 -0.5990155461
O   O24       1.0  0.45885  0.53991  0.36265  1.0000 -0.5990155461
O   O25       1.0  0.11141  0.21009  0.29115  1.0000 -0.5990155461
O   O26       1.0  0.53991  0.63859  0.45885  1.0000 -0.5990155461
O   O27       1.0  0.21009  0.11141  0.38735  1.0000 -0.5990155461
O   O28       1.0  0.63859  0.53991  0.36265  1.0000 -0.5990155461
O   O29       1.0  0.38735  0.29115  0.21009  1.0000 -0.5990155461
O   O30       1.0  0.36265  0.45885  0.63859  1.0000 -0.5990155461
O   O31       1.0  0.29115  0.38735  0.11141  1.0000 -0.5990155461
O   O32       1.0  0.45885  0.36265  0.53991  1.0000 -0.5990155461
O   O33       1.0  0.21009  0.29115  0.11141  1.0000 -0.5990155461
O   O34       1.0  0.63859  0.45885  0.53991  1.0000 -0.5990155461
O   O35       1.0  0.11141  0.38735  0.21009  1.0000 -0.5990155461
O   O36       1.0  0.53991  0.36265  0.63859  1.0000 -0.5990155461
O   O37       1.0  0.29115  0.21009  0.38735  1.0000 -0.5990155461
O   O38       1.0  0.45885  0.63859  0.36265  1.0000 -0.5990155461
O   O39       1.0  0.38735  0.11141  0.29115  1.0000 -0.5990155461
O   O40       1.0  0.36265  0.53991  0.45885  1.0000 -0.5990155461
O   O41       1.0  0.29115  0.11141  0.21009  1.0000 -0.5990155461
O   O42       1.0  0.45885  0.53991  0.63859  1.0000 -0.5990155461
O   O43       1.0  0.38735  0.21009  0.11141  1.0000 -0.5990155461
O   O44       1.0  0.36265  0.63859  0.53991  1.0000 -0.5990155461
O   O45       1.0  0.21009  0.38735  0.29115  1.0000 -0.5990155461
O   O46       1.0  0.63859  0.36265  0.45885  1.0000 -0.5990155461
O   O47       1.0  0.11141  0.29115  0.38735  1.0000 -0.5990155461
O   O48       1.0  0.53991  0.45885  0.36265  1.0000 -0.5990155461
O   O49       1.0  0.16267  0.27911  0.27911  1.0000 -1.1537481748
O   O50       1.0  0.27911  0.16267  0.27911  1.0000 -1.1537481748
O   O51       1.0  0.27911  0.27911  0.16267  1.0000 -1.1537481748
O   O52       1.0  0.27911  0.27911  0.27911  1.0000 -1.1537481748
O   O53       1.0  0.47089  0.58733  0.47089  1.0000 -1.1571860832
O   O54       1.0  0.58733  0.47089  0.47089  1.0000 -1.1571860832
O   O55       1.0  0.47089  0.47089  0.47089  1.0000 -1.1571860832
O   O56       1.0  0.47089  0.47089  0.58733  1.0000 -1.1537481748
O   O57       1.0  0.21741  0.21741  0.34777  1.0000 -1.0598337077
O   O58       1.0  0.21741  0.21741  0.21741  1.0000 -1.0598337077
O   O59       1.0  0.34777  0.21741  0.21741  1.0000 -1.0598337077
O   O60       1.0  0.21741  0.34777  0.21741  1.0000 -1.0598337077
O   O61       1.0  0.53259  0.53259  0.40223  1.0000 -1.0195780121
O   O62       1.0  0.53259  0.53259  0.53259  1.0000 -1.0195780121
O   O63       1.0  0.40223  0.53259  0.53259  1.0000 -1.0195780121
O   O64       1.0  0.53259  0.40223  0.53259  1.0000 -1.0195780121
