# DDEC6 charges by PACMAN v1.1 (https://github.com/mtap-research/PACMAN-charge/)
data_2011[Co][rtl]3[ASR]1
_chemical_formula_sum              "Co4 H28 C52 N4 O16"
_cell_length_a       11.85
_cell_length_b       13.853
_cell_length_c       13.944
_cell_angle_alpha    90
_cell_angle_beta     114.793
_cell_angle_gamma    90

_symmetry_space_group_name_H-M    "P 1"
_symmetry_Int_Tables_number       1

loop_
  _symmetry_equiv_pos_as_xyz
  'x, y, z'

loop_
  _atom_site_type_symbol
  _atom_site_label
  _atom_site_symmetry_multiplicity
  _atom_site_fract_x
  _atom_site_fract_y
  _atom_site_fract_z
  _atom_site_occupancy
  _atom_site_charge
Co  Co1       1.0  0.89350  0.44187  0.95004  1.0000 0.8758103924
Co  Co2       1.0  0.10650  0.94187  0.54996  1.0000 0.8758103924
Co  Co3       1.0  0.10650  0.55813  0.04996  1.0000 0.8758103924
Co  Co4       1.0  0.89350  0.05813  0.45004  1.0000 0.8758103924
H   H1        1.0  0.64580  0.52610  0.89630  1.0000 0.1137398307
H   H2        1.0  0.35420  0.02610  0.60370  1.0000 0.1137398307
H   H3        1.0  0.35420  0.47390  0.10370  1.0000 0.1137398307
H   H4        1.0  0.64580  0.97390  0.39630  1.0000 0.1137398307
H   H5        1.0  0.44100  0.48180  0.85140  1.0000 0.1328746505
H   H6        1.0  0.55900  0.98180  0.64860  1.0000 0.1328746505
H   H7        1.0  0.55900  0.51820  0.14860  1.0000 0.1328746505
H   H8        1.0  0.44100  0.01820  0.35140  1.0000 0.1328746505
H   H9        1.0  0.54160  0.20250  0.85060  1.0000 0.1328746505
H   H10       1.0  0.45840  0.70250  0.64940  1.0000 0.1328746505
H   H11       1.0  0.45840  0.79750  0.14940  1.0000 0.1328746505
H   H12       1.0  0.54160  0.29750  0.35060  1.0000 0.1328746505
H   H13       1.0  0.74320  0.25360  0.89840  1.0000 0.1215702502
H   H14       1.0  0.25680  0.75360  0.60160  1.0000 0.1215702502
H   H15       1.0  0.25680  0.74640  0.10160  1.0000 0.1215702502
H   H16       1.0  0.74320  0.24640  0.39840  1.0000 0.1215702502
H   H17       1.0  0.99920  0.25220  0.73720  1.0000 0.1328746505
H   H18       1.0  0.00080  0.75220  0.76280  1.0000 0.1328746505
H   H19       1.0  0.00080  0.74780  0.26280  1.0000 0.1328746505
H   H20       1.0  0.99920  0.24780  0.23720  1.0000 0.1328746505
H   H21       1.0  0.32960  0.19240  0.72620  1.0000 0.1215702502
H   H22       1.0  0.67040  0.69240  0.77380  1.0000 0.1215702502
H   H23       1.0  0.67040  0.80760  0.27380  1.0000 0.1215702502
H   H24       1.0  0.32960  0.30760  0.22620  1.0000 0.1215702502
H   H25       1.0  0.30390  0.41110  0.90840  1.0000 0.1137398307
H   H26       1.0  0.69610  0.91110  0.59160  1.0000 0.1137398307
H   H27       1.0  0.69610  0.58890  0.09160  1.0000 0.1137398307
H   H28       1.0  0.30390  0.08890  0.40840  1.0000 0.1137398307
C   C1        1.0  0.62420  0.45960  0.88800  1.0000 0.0970402213
C   C2        1.0  0.37580  0.95960  0.61200  1.0000 0.0970402213
C   C3        1.0  0.37580  0.54040  0.11200  1.0000 0.0970402213
C   C4        1.0  0.62420  0.04040  0.38800  1.0000 0.0970402213
C   C5        1.0  0.50170  0.43350  0.86090  1.0000 -0.2060242069
C   C6        1.0  0.49830  0.93350  0.63910  1.0000 -0.2060242069
C   C7        1.0  0.49830  0.56650  0.13910  1.0000 -0.2060242069
C   C8        1.0  0.50170  0.06650  0.36090  1.0000 -0.2060242069
C   C9        1.0  0.46750  0.33630  0.84760  1.0000 0.1215702502
C   C10       1.0  0.53250  0.83630  0.65240  1.0000 0.1215702502
C   C11       1.0  0.53250  0.66370  0.15240  1.0000 0.1215702502
C   C12       1.0  0.46750  0.16370  0.34760  1.0000 0.1215702502
C   C13       1.0  0.56080  0.26930  0.86080  1.0000 -0.1987475378
C   C14       1.0  0.43920  0.76930  0.63920  1.0000 -0.1987475378
C   C15       1.0  0.43920  0.73070  0.13920  1.0000 -0.1987475378
C   C16       1.0  0.56080  0.23070  0.36080  1.0000 -0.1987475378
C   C17       1.0  0.68080  0.30050  0.88880  1.0000 0.0902509841
C   C18       1.0  0.31920  0.80050  0.61120  1.0000 0.0902509841
C   C19       1.0  0.31920  0.69950  0.11120  1.0000 0.0902509841
C   C20       1.0  0.68080  0.19950  0.38880  1.0000 0.0902509841
C   C21       1.0  0.08540  0.26490  0.75990  1.0000 -0.1164413912
C   C22       1.0  0.91460  0.76490  0.74010  1.0000 -0.1164413912
C   C23       1.0  0.91460  0.73510  0.24010  1.0000 -0.1164413912
C   C24       1.0  0.08540  0.23510  0.25990  1.0000 -0.1164413912
C   C25       1.0  0.15510  0.20990  0.72040  1.0000 -0.0022852648
C   C26       1.0  0.84490  0.70990  0.77960  1.0000 -0.0022852648
C   C27       1.0  0.84490  0.79010  0.27960  1.0000 -0.0022852648
C   C28       1.0  0.15510  0.29010  0.22040  1.0000 -0.0022852648
C   C29       1.0  0.28140  0.23070  0.75140  1.0000 -0.162656687
C   C30       1.0  0.71860  0.73070  0.74860  1.0000 -0.162656687
C   C31       1.0  0.71860  0.76930  0.24860  1.0000 -0.162656687
C   C32       1.0  0.28140  0.26930  0.25140  1.0000 -0.162656687
C   C33       1.0  0.33610  0.30800  0.81970  1.0000 0.0548803427
C   C34       1.0  0.66390  0.80800  0.68030  1.0000 0.0548803427
C   C35       1.0  0.66390  0.69200  0.18030  1.0000 0.0548803427
C   C36       1.0  0.33610  0.19200  0.31970  1.0000 0.0548803427
C   C37       1.0  0.26620  0.35980  0.86040  1.0000 -0.1527665032
C   C38       1.0  0.73380  0.85980  0.63960  1.0000 -0.1527665032
C   C39       1.0  0.73380  0.64020  0.13960  1.0000 -0.1527665032
C   C40       1.0  0.26620  0.14020  0.36040  1.0000 -0.1527665032
C   C41       1.0  0.14100  0.33780  0.83200  1.0000 -0.0022852648
C   C42       1.0  0.85900  0.83780  0.66800  1.0000 -0.0022852648
C   C43       1.0  0.85900  0.66220  0.16800  1.0000 -0.0022852648
C   C44       1.0  0.14100  0.16220  0.33200  1.0000 -0.0022852648
C   C45       1.0  0.09470  0.13060  0.64260  1.0000 0.5817856493
C   C46       1.0  0.90530  0.63060  0.85740  1.0000 0.5817856493
C   C47       1.0  0.90530  0.86940  0.35740  1.0000 0.5817856493
C   C48       1.0  0.09470  0.36940  0.14260  1.0000 0.5817856493
C   C49       1.0  0.07080  0.39350  0.88190  1.0000 0.5817856493
C   C50       1.0  0.92920  0.89350  0.61810  1.0000 0.5817856493
C   C51       1.0  0.92920  0.60650  0.11810  1.0000 0.5817856493
C   C52       1.0  0.07080  0.10650  0.38190  1.0000 0.5817856493
N   N1        1.0  0.71380  0.39380  0.90300  1.0000 -0.230312079
N   N2        1.0  0.28620  0.89380  0.59700  1.0000 -0.230312079
N   N3        1.0  0.28620  0.60620  0.09700  1.0000 -0.230312079
N   N4        1.0  0.71380  0.10620  0.40300  1.0000 -0.230312079
O   O1        1.0  0.96070  0.36670  0.86140  1.0000 -0.5265000386
O   O2        1.0  0.03930  0.86670  0.63860  1.0000 -0.5265000386
O   O3        1.0  0.03930  0.63330  0.13860  1.0000 -0.5265000386
O   O4        1.0  0.96070  0.13330  0.36140  1.0000 -0.5265000386
O   O5        1.0  0.12640  0.46150  0.94270  1.0000 -0.58047121
O   O6        1.0  0.87360  0.96150  0.55730  1.0000 -0.58047121
O   O7        1.0  0.87360  0.53850  0.05730  1.0000 -0.58047121
O   O8        1.0  0.12640  0.03850  0.44270  1.0000 -0.58047121
O   O9        1.0  0.98410  0.14540  0.57530  1.0000 -0.5469387097
O   O10       1.0  0.01590  0.64540  0.92470  1.0000 -0.5469387097
O   O11       1.0  0.01590  0.85460  0.42470  1.0000 -0.5469387097
O   O12       1.0  0.98410  0.35460  0.07530  1.0000 -0.5469387097
O   O13       1.0  0.15830  0.05630  0.64960  1.0000 -0.5469387097
O   O14       1.0  0.84170  0.55630  0.85040  1.0000 -0.5469387097
O   O15       1.0  0.84170  0.94370  0.35040  1.0000 -0.5469387097
O   O16       1.0  0.15830  0.44370  0.14960  1.0000 -0.5469387097
