# DDEC6 charges by PACMAN v1.1 (https://github.com/mtap-research/PACMAN-charge/)
data_2011[Gd][nan]3[ASR]6
_chemical_formula_sum              "Gd4 H12 C36 O24"
_cell_length_a       10.3197
_cell_length_b       10.3197
_cell_length_c       14.0444
_cell_angle_alpha    90
_cell_angle_beta     90
_cell_angle_gamma    90

_symmetry_space_group_name_H-M    "P 1"
_symmetry_Int_Tables_number       1

loop_
  _symmetry_equiv_pos_as_xyz
  'x, y, z'

loop_
  _atom_site_type_symbol
  _atom_site_label
  _atom_site_symmetry_multiplicity
  _atom_site_fract_x
  _atom_site_fract_y
  _atom_site_fract_z
  _atom_site_occupancy
  _atom_site_charge
Gd  Gd1       1.0  0.86321  0.12896  0.08374  1.0000 2.062797299
Gd  Gd2       1.0  0.13679  0.87104  0.58374  1.0000 2.062797299
Gd  Gd3       1.0  0.87104  0.86321  0.33374  1.0000 2.0660399109
Gd  Gd4       1.0  0.12896  0.13679  0.83374  1.0000 2.0660399109
H   H1        1.0  0.00600  0.54560  0.80010  1.0000 0.1337432772
H   H2        1.0  0.99400  0.45440  0.30010  1.0000 0.1337432772
H   H3        1.0  0.45440  0.00600  0.05010  1.0000 0.1337432772
H   H4        1.0  0.54560  0.99400  0.55010  1.0000 0.1337432772
H   H5        1.0  0.99160  0.88380  0.95060  1.0000 0.1157721415
H   H6        1.0  0.00840  0.11620  0.45060  1.0000 0.1157721415
H   H7        1.0  0.11620  0.99160  0.20060  1.0000 0.1157721415
H   H8        1.0  0.88380  0.00840  0.70060  1.0000 0.1157721415
H   H9        1.0  0.90480  0.54760  0.07830  1.0000 0.1391118751
H   H10       1.0  0.09520  0.45240  0.57830  1.0000 0.1391118751
H   H11       1.0  0.45240  0.90480  0.32830  1.0000 0.1391118751
H   H12       1.0  0.54760  0.09520  0.82830  1.0000 0.1391118751
C   C1        1.0  0.95520  0.37740  0.94150  1.0000 0.6616017729
C   C2        1.0  0.04480  0.62260  0.44150  1.0000 0.6616017729
C   C3        1.0  0.62260  0.95520  0.19150  1.0000 0.6616017729
C   C4        1.0  0.37740  0.04480  0.69150  1.0000 0.6616017729
C   C5        1.0  0.04170  0.79980  0.77230  1.0000 0.6056407601
C   C6        1.0  0.95830  0.20020  0.27230  1.0000 0.6056407601
C   C7        1.0  0.20020  0.04170  0.02230  1.0000 0.6056407601
C   C8        1.0  0.79980  0.95830  0.52230  1.0000 0.6056407601
C   C9        1.0  0.92280  0.79870  0.11670  1.0000 0.6367268026
C   C10       1.0  0.07720  0.20130  0.61670  1.0000 0.6367268026
C   C11       1.0  0.20130  0.92280  0.36670  1.0000 0.6367268026
C   C12       1.0  0.79870  0.07720  0.86670  1.0000 0.6367268026
C   C13       1.0  0.95600  0.52500  0.94090  1.0000 -0.0355485641
C   C14       1.0  0.04400  0.47500  0.44090  1.0000 -0.0355485641
C   C15       1.0  0.47500  0.95600  0.19090  1.0000 -0.0355485641
C   C16       1.0  0.52500  0.04400  0.69090  1.0000 -0.0355485641
C   C17       1.0  0.99110  0.59190  0.85750  1.0000 -0.0897330321
C   C18       1.0  0.00890  0.40810  0.35750  1.0000 -0.0897330321
C   C19       1.0  0.40810  0.99110  0.10750  1.0000 -0.0897330321
C   C20       1.0  0.59190  0.00890  0.60750  1.0000 -0.0897330321
C   C21       1.0  0.00420  0.72770  0.85940  1.0000 -0.0322219593
C   C22       1.0  0.99580  0.27230  0.35940  1.0000 -0.0322219593
C   C23       1.0  0.27230  0.00420  0.10940  1.0000 -0.0322219593
C   C24       1.0  0.72770  0.99580  0.60940  1.0000 -0.0322219593
C   C25       1.0  0.98160  0.79240  0.94730  1.0000 -0.1008755207
C   C26       1.0  0.01840  0.20760  0.44730  1.0000 -0.1008755207
C   C27       1.0  0.20760  0.98160  0.19730  1.0000 -0.1008755207
C   C28       1.0  0.79240  0.01840  0.69730  1.0000 -0.1008755207
C   C29       1.0  0.94630  0.72660  0.02590  1.0000 -0.0322219593
C   C30       1.0  0.05370  0.27340  0.52590  1.0000 -0.0322219593
C   C31       1.0  0.27340  0.94630  0.27590  1.0000 -0.0322219593
C   C32       1.0  0.72660  0.05370  0.77590  1.0000 -0.0322219593
C   C33       1.0  0.93180  0.59270  0.02280  1.0000 -0.0897330321
C   C34       1.0  0.06820  0.40730  0.52280  1.0000 -0.0897330321
C   C35       1.0  0.40730  0.93180  0.27280  1.0000 -0.0897330321
C   C36       1.0  0.59270  0.06820  0.77280  1.0000 -0.0897330321
O   O1        1.0  0.89290  0.32500  0.00590  1.0000 -0.6375353872
O   O2        1.0  0.10710  0.67500  0.50590  1.0000 -0.6375353872
O   O3        1.0  0.67500  0.89290  0.25590  1.0000 -0.6375353872
O   O4        1.0  0.32500  0.10710  0.75590  1.0000 -0.6375353872
O   O5        1.0  0.02090  0.32600  0.87620  1.0000 -0.6693617045
O   O6        1.0  0.97910  0.67400  0.37620  1.0000 -0.6693617045
O   O7        1.0  0.67400  0.02090  0.12620  1.0000 -0.6693617045
O   O8        1.0  0.32600  0.97910  0.62620  1.0000 -0.6693617045
O   O9        1.0  0.00820  0.74800  0.69100  1.0000 -0.6505278438
O   O10       1.0  0.99180  0.25200  0.19100  1.0000 -0.6505278438
O   O11       1.0  0.25200  0.00820  0.94100  1.0000 -0.6505278438
O   O12       1.0  0.74800  0.99180  0.44100  1.0000 -0.6505278438
O   O13       1.0  0.10480  0.90570  0.77550  1.0000 -0.7121549338
O   O14       1.0  0.89520  0.09430  0.27550  1.0000 -0.704714486
O   O15       1.0  0.09430  0.10480  0.02550  1.0000 -0.704714486
O   O16       1.0  0.90570  0.89520  0.52550  1.0000 -0.704714486
O   O17       1.0  0.92800  0.92110  0.11490  1.0000 -0.7121549338
O   O18       1.0  0.07200  0.07890  0.61490  1.0000 -0.7121549338
O   O19       1.0  0.07890  0.92800  0.36490  1.0000 -0.7121549338
O   O20       1.0  0.92110  0.07200  0.86490  1.0000 -0.7121549338
O   O21       1.0  0.90710  0.73820  0.19240  1.0000 -0.6005266994
O   O22       1.0  0.09290  0.26180  0.69240  1.0000 -0.6005266994
O   O23       1.0  0.26180  0.90710  0.44240  1.0000 -0.6005266994
O   O24       1.0  0.73820  0.09290  0.94240  1.0000 -0.6005266994
