# DDEC6 charges by PACMAN v1.1 (https://github.com/mtap-research/PACMAN-charge/)
data_2011[Co][hex]3[ASR]2
_chemical_formula_sum              "Co6 H136 C152 N28 O36"
_cell_length_a       11.395
_cell_length_b       18.663
_cell_length_c       24.329
_cell_angle_alpha    90
_cell_angle_beta     90
_cell_angle_gamma    90

_symmetry_space_group_name_H-M    "P 1"
_symmetry_Int_Tables_number       1

loop_
  _symmetry_equiv_pos_as_xyz
  'x, y, z'

loop_
  _atom_site_type_symbol
  _atom_site_label
  _atom_site_symmetry_multiplicity
  _atom_site_fract_x
  _atom_site_fract_y
  _atom_site_fract_z
  _atom_site_occupancy
  _atom_site_charge
Co  Co1       1.0  0.53936  0.50000  0.50000  1.0000 0.9114329938
Co  Co2       1.0  0.46064  0.00000  0.00000  1.0000 0.9114329938
Co  Co3       1.0  0.53456  0.30007  0.51926  1.0000 0.7268077258
Co  Co4       1.0  0.53456  0.69993  0.48074  1.0000 0.7268077258
Co  Co5       1.0  0.46544  0.19993  0.01926  1.0000 0.7268077258
Co  Co6       1.0  0.46544  0.80007  0.98074  1.0000 0.7268077258
H   H1        1.0  0.57630  0.47510  0.64450  1.0000 0.0920476482
H   H2        1.0  0.57630  0.52490  0.35550  1.0000 0.0920476482
H   H3        1.0  0.42370  0.02490  0.14450  1.0000 0.0920476482
H   H4        1.0  0.42370  0.97510  0.85550  1.0000 0.0920476482
H   H5        1.0  0.36650  0.40530  0.68080  1.0000 0.1385859216
H   H6        1.0  0.36650  0.59470  0.31920  1.0000 0.1385859216
H   H7        1.0  0.63350  0.09470  0.18080  1.0000 0.1385859216
H   H8        1.0  0.63350  0.90530  0.81920  1.0000 0.1385859216
H   H9        1.0  0.36520  0.46640  0.63560  1.0000 0.1385859216
H   H10       1.0  0.36520  0.53360  0.36440  1.0000 0.1385859216
H   H11       1.0  0.63480  0.03360  0.13560  1.0000 0.1385859216
H   H12       1.0  0.63480  0.96640  0.86440  1.0000 0.1385859216
H   H13       1.0  0.40490  0.48420  0.69650  1.0000 0.1385859216
H   H14       1.0  0.40490  0.51580  0.30350  1.0000 0.1385859216
H   H15       1.0  0.59510  0.01580  0.19650  1.0000 0.1385859216
H   H16       1.0  0.59510  0.98420  0.80350  1.0000 0.1385859216
H   H17       1.0  0.90680  0.39100  0.75700  1.0000 0.1213046826
H   H18       1.0  0.90680  0.60900  0.24300  1.0000 0.1213046826
H   H19       1.0  0.09320  0.10900  0.25700  1.0000 0.1213046826
H   H20       1.0  0.09320  0.89100  0.74300  1.0000 0.1213046826
H   H21       1.0  0.87020  0.21910  0.85490  1.0000 0.1213046826
H   H22       1.0  0.87020  0.78090  0.14510  1.0000 0.1213046826
H   H23       1.0  0.12980  0.28090  0.35490  1.0000 0.1213046826
H   H24       1.0  0.12980  0.71910  0.64510  1.0000 0.1213046826
H   H25       1.0  0.60790  0.27520  0.75200  1.0000 0.1317042242
H   H26       1.0  0.60790  0.72480  0.24800  1.0000 0.1317042242
H   H27       1.0  0.39210  0.22480  0.25200  1.0000 0.1317042242
H   H28       1.0  0.39210  0.77520  0.74800  1.0000 0.1317042242
H   H29       1.0  0.23580  0.46450  0.77510  1.0000 0.1317042242
H   H30       1.0  0.23580  0.53550  0.22490  1.0000 0.1317042242
H   H31       1.0  0.76420  0.03550  0.27510  1.0000 0.1317042242
H   H32       1.0  0.76420  0.96450  0.72490  1.0000 0.1317042242
H   H33       1.0  0.32080  0.46030  0.82660  1.0000 0.1213046826
H   H34       1.0  0.32080  0.53970  0.17340  1.0000 0.1213046826
H   H35       1.0  0.67920  0.03970  0.32660  1.0000 0.1213046826
H   H36       1.0  0.67920  0.96030  0.67340  1.0000 0.1213046826
H   H37       1.0  0.18450  0.47230  0.83530  1.0000 0.1213046826
H   H38       1.0  0.18450  0.52770  0.16470  1.0000 0.1213046826
H   H39       1.0  0.81550  0.02770  0.33530  1.0000 0.1213046826
H   H40       1.0  0.81550  0.97230  0.66470  1.0000 0.1213046826
H   H41       1.0  0.23590  0.35270  0.85430  1.0000 0.0808492506
H   H42       1.0  0.23590  0.64730  0.14570  1.0000 0.0808492506
H   H43       1.0  0.76410  0.14730  0.35430  1.0000 0.0808492506
H   H44       1.0  0.76410  0.85270  0.64570  1.0000 0.0808492506
H   H45       1.0  0.30760  0.19330  0.84340  1.0000 0.1317042242
H   H46       1.0  0.30760  0.80670  0.15660  1.0000 0.1317042242
H   H47       1.0  0.69240  0.30670  0.34340  1.0000 0.1317042242
H   H48       1.0  0.69240  0.69330  0.65660  1.0000 0.1317042242
H   H49       1.0  0.28200  0.10990  0.84410  1.0000 0.1317042242
H   H50       1.0  0.28200  0.89010  0.15590  1.0000 0.1317042242
H   H51       1.0  0.71800  0.39010  0.34410  1.0000 0.1317042242
H   H52       1.0  0.71800  0.60990  0.65590  1.0000 0.1317042242
H   H53       1.0  0.32970  0.14680  0.78990  1.0000 0.1466874007
H   H54       1.0  0.32970  0.85320  0.21010  1.0000 0.1466874007
H   H55       1.0  0.67030  0.35320  0.28990  1.0000 0.1466874007
H   H56       1.0  0.67030  0.64680  0.71010  1.0000 0.1466874007
H   H57       1.0  0.48520  0.08690  0.83220  1.0000 0.0920476482
H   H58       1.0  0.48520  0.91310  0.16780  1.0000 0.0920476482
H   H59       1.0  0.51480  0.41310  0.33220  1.0000 0.0920476482
H   H60       1.0  0.51480  0.58690  0.66780  1.0000 0.0920476482
H   H61       1.0  0.12520  0.24120  0.44960  1.0000 0.1317042242
H   H62       1.0  0.12520  0.75880  0.55040  1.0000 0.1317042242
H   H63       1.0  0.87480  0.25880  0.94960  1.0000 0.1317042242
H   H64       1.0  0.87480  0.74120  0.05040  1.0000 0.1317042242
H   H65       1.0  0.32650  0.24580  0.45150  1.0000 0.1072415992
H   H66       1.0  0.32650  0.75420  0.54850  1.0000 0.1072415992
H   H67       1.0  0.67350  0.25420  0.95150  1.0000 0.1072415992
H   H68       1.0  0.67350  0.74580  0.04850  1.0000 0.1072415992
H   H69       1.0  0.32110  0.34620  0.59180  1.0000 0.1072415992
H   H70       1.0  0.32110  0.65380  0.40820  1.0000 0.1072415992
H   H71       1.0  0.67890  0.15380  0.09180  1.0000 0.1072415992
H   H72       1.0  0.67890  0.84620  0.90820  1.0000 0.1072415992
H   H73       1.0  0.11960  0.34160  0.59590  1.0000 0.1385859216
H   H74       1.0  0.11960  0.65840  0.40410  1.0000 0.1385859216
H   H75       1.0  0.88040  0.15840  0.09590  1.0000 0.1385859216
H   H76       1.0  0.88040  0.84160  0.90410  1.0000 0.1385859216
H   H77       1.0  0.94400  0.26800  0.60090  1.0000 0.1385859216
H   H78       1.0  0.94400  0.73200  0.39910  1.0000 0.1385859216
H   H79       1.0  0.05600  0.23200  0.10090  1.0000 0.1385859216
H   H80       1.0  0.05600  0.76800  0.89910  1.0000 0.1385859216
H   H81       1.0  0.73990  0.26930  0.59760  1.0000 0.1072415992
H   H82       1.0  0.73990  0.73070  0.40240  1.0000 0.1072415992
H   H83       1.0  0.26010  0.23070  0.09760  1.0000 0.1072415992
H   H84       1.0  0.26010  0.76930  0.90240  1.0000 0.1072415992
H   H85       1.0  0.74870  0.32740  0.44440  1.0000 0.1072415992
H   H86       1.0  0.74870  0.67260  0.55560  1.0000 0.1072415992
H   H87       1.0  0.25130  0.17260  0.94440  1.0000 0.1072415992
H   H88       1.0  0.25130  0.82740  0.05560  1.0000 0.1072415992
H   H89       1.0  0.94750  0.31900  0.44090  1.0000 0.1385859216
H   H90       1.0  0.94750  0.68100  0.55910  1.0000 0.1385859216
H   H91       1.0  0.05250  0.18100  0.94090  1.0000 0.1385859216
H   H92       1.0  0.05250  0.81900  0.05910  1.0000 0.1385859216
H   H93       1.0  0.49780  0.16780  0.58700  1.0000 0.1213046826
H   H94       1.0  0.49780  0.83220  0.41300  1.0000 0.1213046826
H   H95       1.0  0.50220  0.33220  0.08700  1.0000 0.1213046826
H   H96       1.0  0.50220  0.66780  0.91300  1.0000 0.1213046826
H   H97       1.0  0.50640  0.04530  0.58250  1.0000 0.1385859216
H   H98       1.0  0.50640  0.95470  0.41750  1.0000 0.1385859216
H   H99       1.0  0.49360  0.45470  0.08250  1.0000 0.1385859216
H   H100      1.0  0.49360  0.54530  0.91750  1.0000 0.1385859216
H   H101      1.0  0.59280  0.06280  0.42470  1.0000 0.1466874007
H   H102      1.0  0.59280  0.93720  0.57530  1.0000 0.1466874007
H   H103      1.0  0.40720  0.43720  0.92470  1.0000 0.1466874007
H   H104      1.0  0.40720  0.56280  0.07530  1.0000 0.1466874007
H   H105      1.0  0.58130  0.18600  0.43320  1.0000 0.1213046826
H   H106      1.0  0.58130  0.81400  0.56680  1.0000 0.1213046826
H   H107      1.0  0.41870  0.31400  0.93320  1.0000 0.1213046826
H   H108      1.0  0.41870  0.68600  0.06680  1.0000 0.1213046826
H   H109      1.0  0.74670  0.48300  0.57970  1.0000 0.1072415992
H   H110      1.0  0.74670  0.51700  0.42030  1.0000 0.1072415992
H   H111      1.0  0.25330  0.01700  0.07970  1.0000 0.1072415992
H   H112      1.0  0.25330  0.98300  0.92030  1.0000 0.1072415992
H   H113      1.0  0.94760  0.48360  0.58130  1.0000 0.1385859216
H   H114      1.0  0.94760  0.51640  0.41870  1.0000 0.1385859216
H   H115      1.0  0.05240  0.01640  0.08130  1.0000 0.1385859216
H   H116      1.0  0.05240  0.98360  0.91870  1.0000 0.1385859216
H   H117      1.0  0.12850  0.55930  0.56980  1.0000 0.1385859216
H   H118      1.0  0.12850  0.44070  0.43020  1.0000 0.1385859216
H   H119      1.0  0.87150  0.94070  0.06980  1.0000 0.1385859216
H   H120      1.0  0.87150  0.05930  0.93020  1.0000 0.1385859216
H   H121      1.0  0.32950  0.55810  0.56690  1.0000 0.1016852779
H   H122      1.0  0.32950  0.44190  0.43310  1.0000 0.1016852779
H   H123      1.0  0.67050  0.94190  0.06690  1.0000 0.1016852779
H   H124      1.0  0.67050  0.05810  0.93310  1.0000 0.1016852779
H   H125      1.0  0.54670  0.37740  0.72580  1.0000 0.2771528672
H   H126      1.0  0.54670  0.62260  0.27420  1.0000 0.2771528672
H   H127      1.0  0.45330  0.12260  0.22580  1.0000 0.2771528672
H   H128      1.0  0.45330  0.87740  0.77420  1.0000 0.2771528672
H   H129      1.0  0.08230  0.35980  0.76610  1.0000 0.2691586885
H   H130      1.0  0.08230  0.64020  0.23390  1.0000 0.2691586885
H   H131      1.0  0.91770  0.14020  0.26610  1.0000 0.2691586885
H   H132      1.0  0.91770  0.85980  0.73390  1.0000 0.2691586885
H   H133      1.0  0.50610  0.22820  0.81460  1.0000 0.2771528672
H   H134      1.0  0.50610  0.77180  0.18540  1.0000 0.2771528672
H   H135      1.0  0.49390  0.27180  0.31460  1.0000 0.2771528672
H   H136      1.0  0.49390  0.72820  0.68540  1.0000 0.2771528672
C   C1        1.0  0.53640  0.38250  0.60230  1.0000 0.5489199284
C   C2        1.0  0.53640  0.61750  0.39770  1.0000 0.5489199284
C   C3        1.0  0.46360  0.11750  0.10230  1.0000 0.5489199284
C   C4        1.0  0.46360  0.88250  0.89770  1.0000 0.5489199284
C   C5        1.0  0.53370  0.43010  0.65260  1.0000 0.0385432571
C   C6        1.0  0.53370  0.56990  0.34740  1.0000 0.0385432571
C   C7        1.0  0.46630  0.06990  0.15260  1.0000 0.0385432571
C   C8        1.0  0.46630  0.93010  0.84740  1.0000 0.0385432571
C   C9        1.0  0.40570  0.44820  0.66780  1.0000 -0.4324178722
C   C10       1.0  0.40570  0.55180  0.33220  1.0000 -0.4324178722
C   C11       1.0  0.59430  0.05180  0.16780  1.0000 -0.4324178722
C   C12       1.0  0.59430  0.94820  0.83220  1.0000 -0.4324178722
C   C13       1.0  0.70740  0.38720  0.70220  1.0000 0.4508848015
C   C14       1.0  0.70740  0.61280  0.29780  1.0000 0.4508848015
C   C15       1.0  0.29260  0.11280  0.20220  1.0000 0.4508848015
C   C16       1.0  0.29260  0.88720  0.79780  1.0000 0.4508848015
C   C17       1.0  0.75150  0.34000  0.74760  1.0000 -0.0032214447
C   C18       1.0  0.75150  0.66000  0.25240  1.0000 -0.0032214447
C   C19       1.0  0.24850  0.16000  0.24760  1.0000 -0.0032214447
C   C20       1.0  0.24850  0.84000  0.75240  1.0000 -0.0032214447
C   C21       1.0  0.86210  0.35160  0.76910  1.0000 -0.1295162317
C   C22       1.0  0.86210  0.64840  0.23090  1.0000 -0.1295162317
C   C23       1.0  0.13790  0.14840  0.26910  1.0000 -0.1295162317
C   C24       1.0  0.13790  0.85160  0.73090  1.0000 -0.1295162317
C   C25       1.0  0.90680  0.30620  0.80790  1.0000 -0.0169976715
C   C26       1.0  0.90680  0.69380  0.19210  1.0000 -0.0169976715
C   C27       1.0  0.09320  0.19380  0.30790  1.0000 -0.0169976715
C   C28       1.0  0.09320  0.80620  0.69210  1.0000 -0.0169976715
C   C29       1.0  0.83960  0.24970  0.82780  1.0000 -0.1237223696
C   C30       1.0  0.83960  0.75030  0.17220  1.0000 -0.1237223696
C   C31       1.0  0.16040  0.25030  0.32780  1.0000 -0.1237223696
C   C32       1.0  0.16040  0.74970  0.67220  1.0000 -0.1237223696
C   C33       1.0  0.72550  0.23830  0.80720  1.0000 -0.0169976715
C   C34       1.0  0.72550  0.76170  0.19280  1.0000 -0.0169976715
C   C35       1.0  0.27450  0.26170  0.30720  1.0000 -0.0169976715
C   C36       1.0  0.27450  0.73830  0.69280  1.0000 -0.0169976715
C   C37       1.0  0.68310  0.28300  0.76670  1.0000 -0.1295162317
C   C38       1.0  0.68310  0.71700  0.23330  1.0000 -0.1295162317
C   C39       1.0  0.31690  0.21700  0.26670  1.0000 -0.1295162317
C   C40       1.0  0.31690  0.78300  0.73330  1.0000 -0.1295162317
C   C41       1.0  0.02760  0.31750  0.83300  1.0000 0.4555813644
C   C42       1.0  0.02760  0.68250  0.16700  1.0000 0.4555813644
C   C43       1.0  0.97240  0.18250  0.33300  1.0000 0.4555813644
C   C44       1.0  0.97240  0.81750  0.66700  1.0000 0.4555813644
C   C45       1.0  0.24320  0.44860  0.81290  1.0000 -0.4103551236
C   C46       1.0  0.24320  0.55140  0.18710  1.0000 -0.4103551236
C   C47       1.0  0.75680  0.05140  0.31290  1.0000 -0.4103551236
C   C48       1.0  0.75680  0.94860  0.68710  1.0000 -0.4103551236
C   C49       1.0  0.22490  0.36790  0.81560  1.0000 0.0201397437
C   C50       1.0  0.22490  0.63210  0.18440  1.0000 0.0201397437
C   C51       1.0  0.77510  0.13210  0.31560  1.0000 0.0201397437
C   C52       1.0  0.77510  0.86790  0.68440  1.0000 0.0201397437
C   C53       1.0  0.31560  0.32800  0.78040  1.0000 0.5489199284
C   C54       1.0  0.31560  0.67200  0.21960  1.0000 0.5489199284
C   C55       1.0  0.68440  0.17200  0.28040  1.0000 0.5489199284
C   C56       1.0  0.68440  0.82800  0.71960  1.0000 0.5489199284
C   C57       1.0  0.65390  0.17940  0.83090  1.0000 0.4508848015
C   C58       1.0  0.65390  0.82060  0.16910  1.0000 0.4508848015
C   C59       1.0  0.34610  0.32060  0.33090  1.0000 0.4508848015
C   C60       1.0  0.34610  0.67940  0.66910  1.0000 0.4508848015
C   C61       1.0  0.33310  0.14700  0.82970  1.0000 -0.4177287993
C   C62       1.0  0.33310  0.85300  0.17030  1.0000 -0.4177287993
C   C63       1.0  0.66690  0.35300  0.32970  1.0000 -0.4177287993
C   C64       1.0  0.66690  0.64700  0.67030  1.0000 -0.4177287993
C   C65       1.0  0.45910  0.13290  0.84840  1.0000 0.0320466022
C   C66       1.0  0.45910  0.86710  0.15160  1.0000 0.0320466022
C   C67       1.0  0.54090  0.36710  0.34840  1.0000 0.0320466022
C   C68       1.0  0.54090  0.63290  0.65160  1.0000 0.0320466022
C   C69       1.0  0.46370  0.12610  0.90990  1.0000 0.5712927106
C   C70       1.0  0.46370  0.87390  0.09010  1.0000 0.5712927106
C   C71       1.0  0.53630  0.37390  0.40990  1.0000 0.5712927106
C   C72       1.0  0.53630  0.62610  0.59010  1.0000 0.5712927106
C   C73       1.0  0.16360  0.26330  0.47920  1.0000 -0.1825462532
C   C74       1.0  0.16360  0.73670  0.52080  1.0000 -0.1825462532
C   C75       1.0  0.83640  0.23670  0.97920  1.0000 -0.1825462532
C   C76       1.0  0.83640  0.76330  0.02080  1.0000 -0.1825462532
C   C77       1.0  0.28460  0.26630  0.48080  1.0000 0.0920476482
C   C78       1.0  0.28460  0.73370  0.51920  1.0000 0.0920476482
C   C79       1.0  0.71540  0.23370  0.98080  1.0000 0.0920476482
C   C80       1.0  0.71540  0.76630  0.01920  1.0000 0.0920476482
C   C81       1.0  0.28070  0.32420  0.56270  1.0000 0.0808492506
C   C82       1.0  0.28070  0.67580  0.43730  1.0000 0.0808492506
C   C83       1.0  0.71930  0.17580  0.06270  1.0000 0.0808492506
C   C84       1.0  0.71930  0.82420  0.93730  1.0000 0.0808492506
C   C85       1.0  0.15980  0.32290  0.56540  1.0000 -0.1915332716
C   C86       1.0  0.15980  0.67710  0.43460  1.0000 -0.1915332716
C   C87       1.0  0.84020  0.17710  0.06540  1.0000 -0.1915332716
C   C88       1.0  0.84020  0.82290  0.93460  1.0000 -0.1915332716
C   C89       1.0  0.09970  0.29290  0.52150  1.0000 0.1072415992
C   C90       1.0  0.09970  0.70710  0.47850  1.0000 0.1072415992
C   C91       1.0  0.90030  0.20710  0.02150  1.0000 0.1072415992
C   C92       1.0  0.90030  0.79290  0.97850  1.0000 0.1072415992
C   C93       1.0  0.97010  0.29300  0.52160  1.0000 0.1016852779
C   C94       1.0  0.97010  0.70700  0.47840  1.0000 0.1016852779
C   C95       1.0  0.02990  0.20700  0.02160  1.0000 0.1016852779
C   C96       1.0  0.02990  0.79300  0.97840  1.0000 0.1016852779
C   C97       1.0  0.90580  0.27910  0.56770  1.0000 -0.1825462532
C   C98       1.0  0.90580  0.72090  0.43230  1.0000 -0.1825462532
C   C99       1.0  0.09420  0.22090  0.06770  1.0000 -0.1825462532
C   C100      1.0  0.09420  0.77910  0.93230  1.0000 -0.1825462532
C   C101      1.0  0.78240  0.28130  0.56580  1.0000 0.0920476482
C   C102      1.0  0.78240  0.71870  0.43420  1.0000 0.0920476482
C   C103      1.0  0.21760  0.21870  0.06580  1.0000 0.0920476482
C   C104      1.0  0.21760  0.78130  0.93420  1.0000 0.0920476482
C   C105      1.0  0.78850  0.31380  0.47660  1.0000 0.0808492506
C   C106      1.0  0.78850  0.68620  0.52340  1.0000 0.0808492506
C   C107      1.0  0.21150  0.18620  0.97660  1.0000 0.0808492506
C   C108      1.0  0.21150  0.81380  0.02340  1.0000 0.0808492506
C   C109      1.0  0.90790  0.31010  0.47410  1.0000 -0.1747539219
C   C110      1.0  0.90790  0.68990  0.52590  1.0000 -0.1747539219
C   C111      1.0  0.09210  0.18990  0.97410  1.0000 -0.1747539219
C   C112      1.0  0.09210  0.81010  0.02590  1.0000 -0.1747539219
C   C113      1.0  0.51780  0.14640  0.55330  1.0000 0.0694335449
C   C114      1.0  0.51780  0.85360  0.44670  1.0000 0.0694335449
C   C115      1.0  0.48220  0.35360  0.05330  1.0000 0.0694335449
C   C116      1.0  0.48220  0.64640  0.94670  1.0000 0.0694335449
C   C117      1.0  0.52180  0.07270  0.55090  1.0000 -0.1915332716
C   C118      1.0  0.52180  0.92730  0.44910  1.0000 -0.1915332716
C   C119      1.0  0.47820  0.42730  0.05090  1.0000 -0.1915332716
C   C120      1.0  0.47820  0.57270  0.94910  1.0000 -0.1915332716
C   C121      1.0  0.54850  0.03960  0.50240  1.0000 0.1072415992
C   C122      1.0  0.54850  0.96040  0.49760  1.0000 0.1072415992
C   C123      1.0  0.45150  0.46040  0.00240  1.0000 0.1072415992
C   C124      1.0  0.45150  0.53960  0.99760  1.0000 0.1072415992
C   C125      1.0  0.57220  0.08310  0.45870  1.0000 -0.1915332716
C   C126      1.0  0.57220  0.91690  0.54130  1.0000 -0.1915332716
C   C127      1.0  0.42780  0.41690  0.95870  1.0000 -0.1915332716
C   C128      1.0  0.42780  0.58310  0.04130  1.0000 -0.1915332716
C   C129      1.0  0.56620  0.15730  0.46420  1.0000 0.0920476482
C   C130      1.0  0.56620  0.84270  0.53580  1.0000 0.0920476482
C   C131      1.0  0.43380  0.34270  0.96420  1.0000 0.0920476482
C   C132      1.0  0.43380  0.65730  0.03580  1.0000 0.0920476482
C   C133      1.0  0.78820  0.49020  0.54680  1.0000 0.1016852779
C   C134      1.0  0.78820  0.50980  0.45320  1.0000 0.1016852779
C   C135      1.0  0.21180  0.00980  0.04680  1.0000 0.1016852779
C   C136      1.0  0.21180  0.99020  0.95320  1.0000 0.1016852779
C   C137      1.0  0.90830  0.49020  0.54770  1.0000 -0.1915332716
C   C138      1.0  0.90830  0.50980  0.45230  1.0000 -0.1915332716
C   C139      1.0  0.09170  0.00980  0.04770  1.0000 -0.1915332716
C   C140      1.0  0.09170  0.99020  0.95230  1.0000 -0.1915332716
C   C141      1.0  0.97290  0.50000  0.50000  1.0000 0.0920476482
C   C142      1.0  0.02710  0.00000  0.00000  1.0000 0.0920476482
C   C143      1.0  0.10300  0.50000  0.50000  1.0000 0.0920476482
C   C144      1.0  0.89700  0.00000  0.00000  1.0000 0.0920476482
C   C145      1.0  0.16740  0.53520  0.54120  1.0000 -0.1915332716
C   C146      1.0  0.16740  0.46480  0.45880  1.0000 -0.1915332716
C   C147      1.0  0.83260  0.96480  0.04120  1.0000 -0.1915332716
C   C148      1.0  0.83260  0.03520  0.95880  1.0000 -0.1915332716
C   C149      1.0  0.28780  0.53390  0.53930  1.0000 0.0920476482
C   C150      1.0  0.28780  0.46610  0.46070  1.0000 0.0920476482
C   C151      1.0  0.71220  0.96610  0.03930  1.0000 0.0920476482
C   C152      1.0  0.71220  0.03390  0.96070  1.0000 0.0920476482
N   N1        1.0  0.59000  0.39440  0.69930  1.0000 -0.3492760178
N   N2        1.0  0.59000  0.60560  0.30070  1.0000 -0.3492760178
N   N3        1.0  0.41000  0.10560  0.19930  1.0000 -0.3492760178
N   N4        1.0  0.41000  0.89440  0.80070  1.0000 -0.3492760178
N   N5        1.0  0.10470  0.34940  0.79940  1.0000 -0.3586180981
N   N6        1.0  0.10470  0.65060  0.20060  1.0000 -0.3586180981
N   N7        1.0  0.89530  0.15060  0.29940  1.0000 -0.3492760178
N   N8        1.0  0.89530  0.84940  0.70060  1.0000 -0.3586180981
N   N9        1.0  0.53530  0.18900  0.82820  1.0000 -0.3680068132
N   N10       1.0  0.53530  0.81100  0.17180  1.0000 -0.3680068132
N   N11       1.0  0.46470  0.31100  0.32820  1.0000 -0.3680068132
N   N12       1.0  0.46470  0.68900  0.67180  1.0000 -0.3680068132
N   N13       1.0  0.34560  0.29640  0.52150  1.0000 -0.2387946026
N   N14       1.0  0.34560  0.70360  0.47850  1.0000 -0.2387946026
N   N15       1.0  0.65440  0.20360  0.02150  1.0000 -0.2387946026
N   N16       1.0  0.65440  0.79640  0.97850  1.0000 -0.2387946026
N   N17       1.0  0.72360  0.29970  0.52080  1.0000 -0.2280379187
N   N18       1.0  0.72360  0.70030  0.47920  1.0000 -0.2280379187
N   N19       1.0  0.27640  0.20030  0.02080  1.0000 -0.2280379187
N   N20       1.0  0.27640  0.79970  0.97920  1.0000 -0.2280379187
N   N21       1.0  0.54030  0.18890  0.51100  1.0000 -0.2280379187
N   N22       1.0  0.54030  0.81110  0.48900  1.0000 -0.2280379187
N   N23       1.0  0.45970  0.31110  0.01100  1.0000 -0.2280379187
N   N24       1.0  0.45970  0.68890  0.98900  1.0000 -0.2280379187
N   N25       1.0  0.72830  0.50000  0.50000  1.0000 -0.2387946026
N   N26       1.0  0.27170  0.00000  0.00000  1.0000 -0.2387946026
N   N27       1.0  0.34920  0.50000  0.50000  1.0000 -0.2533525702
N   N28       1.0  0.65080  0.00000  0.00000  1.0000 -0.2533525702
O   O1        1.0  0.53490  0.40925  0.55445  1.0000 -0.5633978721
O   O2        1.0  0.53490  0.59075  0.44555  1.0000 -0.5633978721
O   O3        1.0  0.46510  0.09075  0.05445  1.0000 -0.5633978721
O   O4        1.0  0.46510  0.90925  0.94555  1.0000 -0.5633978721
O   O5        1.0  0.53720  0.31475  0.60730  1.0000 -0.5289892655
O   O6        1.0  0.53720  0.68525  0.39270  1.0000 -0.5289892655
O   O7        1.0  0.46280  0.18525  0.10730  1.0000 -0.5289892655
O   O8        1.0  0.46280  0.81475  0.89270  1.0000 -0.5289892655
O   O9        1.0  0.77400  0.41460  0.66750  1.0000 -0.5289892655
O   O10       1.0  0.77400  0.58540  0.33250  1.0000 -0.5289892655
O   O11       1.0  0.22600  0.08540  0.16750  1.0000 -0.5289892655
O   O12       1.0  0.22600  0.91460  0.83250  1.0000 -0.5289892655
O   O13       1.0  0.28090  0.29310  0.73950  1.0000 -0.5770202008
O   O14       1.0  0.28090  0.70690  0.26050  1.0000 -0.5770202008
O   O15       1.0  0.71910  0.20690  0.23950  1.0000 -0.5770202008
O   O16       1.0  0.71910  0.79310  0.76050  1.0000 -0.5770202008
O   O17       1.0  0.42190  0.33530  0.79520  1.0000 -0.6146865961
O   O18       1.0  0.42190  0.66470  0.20480  1.0000 -0.6146865961
O   O19       1.0  0.57810  0.16470  0.29520  1.0000 -0.6146865961
O   O20       1.0  0.57810  0.83530  0.70480  1.0000 -0.6146865961
O   O21       1.0  0.05140  0.29830  0.87850  1.0000 -0.4646715921
O   O22       1.0  0.05140  0.70170  0.12150  1.0000 -0.4646715921
O   O23       1.0  0.94860  0.20170  0.37850  1.0000 -0.4646715921
O   O24       1.0  0.94860  0.79830  0.62150  1.0000 -0.4646715921
O   O25       1.0  0.47320  0.18287  0.93738  1.0000 -0.5415065762
O   O26       1.0  0.47320  0.81713  0.06262  1.0000 -0.5415065762
O   O27       1.0  0.52680  0.31713  0.43738  1.0000 -0.5415065762
O   O28       1.0  0.52680  0.68287  0.56262  1.0000 -0.5415065762
O   O29       1.0  0.45360  0.06432  0.93024  1.0000 -0.5652766105
O   O30       1.0  0.45360  0.93568  0.06976  1.0000 -0.5652766105
O   O31       1.0  0.54640  0.43568  0.43024  1.0000 -0.5652766105
O   O32       1.0  0.54640  0.56432  0.56976  1.0000 -0.5652766105
O   O33       1.0  0.69670  0.12630  0.85200  1.0000 -0.4852273416
O   O34       1.0  0.69670  0.87370  0.14800  1.0000 -0.4852273416
O   O35       1.0  0.30330  0.37370  0.35200  1.0000 -0.4852273416
O   O36       1.0  0.30330  0.62630  0.64800  1.0000 -0.4852273416
