# DDEC6 charges by PACMAN v1.1 (https://github.com/mtap-research/PACMAN-charge/)
data_2011[Co][crb]3[ASR]1
_chemical_formula_sum              "Co4 H36 C60 N24"
_cell_length_a       10.5835
_cell_length_b       17.609
_cell_length_c       11.6486
_cell_angle_alpha    90
_cell_angle_beta     110.272
_cell_angle_gamma    90

_symmetry_space_group_name_H-M    "P 1"
_symmetry_Int_Tables_number       1

loop_
  _symmetry_equiv_pos_as_xyz
  'x, y, z'

loop_
  _atom_site_type_symbol
  _atom_site_label
  _atom_site_symmetry_multiplicity
  _atom_site_fract_x
  _atom_site_fract_y
  _atom_site_fract_z
  _atom_site_occupancy
  _atom_site_charge
Co  Co1       1.0  0.98317  0.82647  0.21628  1.0000 0.6499689444
Co  Co2       1.0  0.51683  0.32647  0.78372  1.0000 0.6499689444
Co  Co3       1.0  0.01683  0.17353  0.78372  1.0000 0.6435485903
Co  Co4       1.0  0.48317  0.67353  0.21628  1.0000 0.6499689444
H   H1        1.0  0.29880  0.65410  0.63200  1.0000 0.1197510406
H   H2        1.0  0.20120  0.15410  0.36800  1.0000 0.1197510406
H   H3        1.0  0.70120  0.34590  0.36800  1.0000 0.1197510406
H   H4        1.0  0.79880  0.84590  0.63200  1.0000 0.1197510406
H   H5        1.0  0.33870  0.60440  0.97890  1.0000 0.1197510406
H   H6        1.0  0.16130  0.10440  0.02110  1.0000 0.1197510406
H   H7        1.0  0.66130  0.39560  0.02110  1.0000 0.1197510406
H   H8        1.0  0.83870  0.89560  0.97890  1.0000 0.1197510406
H   H9        1.0  0.12460  0.78610  0.81510  1.0000 0.1287248223
H   H10       1.0  0.37540  0.28610  0.18490  1.0000 0.1287248223
H   H11       1.0  0.87540  0.21390  0.18490  1.0000 0.1287248223
H   H12       1.0  0.62460  0.71390  0.81510  1.0000 0.1287248223
H   H13       1.0  0.15250  0.71260  0.44710  1.0000 0.1197510406
H   H14       1.0  0.34750  0.21260  0.55290  1.0000 0.1197510406
H   H15       1.0  0.84750  0.28740  0.55290  1.0000 0.1197510406
H   H16       1.0  0.65250  0.78740  0.44710  1.0000 0.1197510406
H   H17       1.0  0.96620  0.90350  0.45040  1.0000 0.0931708638
H   H18       1.0  0.53380  0.40350  0.54960  1.0000 0.0931708638
H   H19       1.0  0.03380  0.09650  0.54960  1.0000 0.0931708638
H   H20       1.0  0.46620  0.59650  0.45040  1.0000 0.0931708638
H   H21       1.0  0.35870  0.46080  0.87290  1.0000 0.1287248223
H   H22       1.0  0.14130  0.96080  0.12710  1.0000 0.1287248223
H   H23       1.0  0.64130  0.53920  0.12710  1.0000 0.1287248223
H   H24       1.0  0.85870  0.03920  0.87290  1.0000 0.1287248223
H   H25       1.0  0.63240  0.47720  0.71940  1.0000 0.1001181232
H   H26       1.0  0.86760  0.97720  0.28060  1.0000 0.1001181232
H   H27       1.0  0.36760  0.52280  0.28060  1.0000 0.1001181232
H   H28       1.0  0.13240  0.02280  0.71940  1.0000 0.1001181232
H   H29       1.0  0.01940  0.77060  0.96770  1.0000 0.1287248223
H   H30       1.0  0.48060  0.27060  0.03230  1.0000 0.1197510406
H   H31       1.0  0.98060  0.22940  0.03230  1.0000 0.1197510406
H   H32       1.0  0.51940  0.72940  0.96770  1.0000 0.1197510406
H   H33       1.0  0.27230  0.74630  0.30130  1.0000 0.1001181232
H   H34       1.0  0.22770  0.24630  0.69870  1.0000 0.1001181232
H   H35       1.0  0.72770  0.25370  0.69870  1.0000 0.1001181232
H   H36       1.0  0.77230  0.75370  0.30130  1.0000 0.1001181232
C   C1        1.0  0.19900  0.72663  0.70370  1.0000 0.0798448199
C   C2        1.0  0.30100  0.22663  0.29630  1.0000 0.0798448199
C   C3        1.0  0.80100  0.27337  0.29630  1.0000 0.0798448199
C   C4        1.0  0.69900  0.77337  0.70370  1.0000 0.0798448199
C   C5        1.0  0.28030  0.66508  0.70260  1.0000 -0.1760103654
C   C6        1.0  0.21970  0.16508  0.29740  1.0000 -0.1760103654
C   C7        1.0  0.71970  0.33492  0.29740  1.0000 -0.1760103654
C   C8        1.0  0.78030  0.83492  0.70260  1.0000 -0.1760103654
C   C9        1.0  0.33430  0.61963  0.80510  1.0000 0.0798448199
C   C10       1.0  0.16570  0.11963  0.19490  1.0000 0.0798448199
C   C11       1.0  0.66570  0.38037  0.19490  1.0000 0.0798448199
C   C12       1.0  0.83430  0.88037  0.80510  1.0000 0.0798448199
C   C13       1.0  0.30670  0.63624  0.91130  1.0000 -0.2003335084
C   C14       1.0  0.19330  0.13624  0.08870  1.0000 -0.2003335084
C   C15       1.0  0.69330  0.36376  0.08870  1.0000 -0.2003335084
C   C16       1.0  0.80670  0.86376  0.91130  1.0000 -0.2003335084
C   C17       1.0  0.23230  0.69970  0.91610  1.0000 0.0798448199
C   C18       1.0  0.26770  0.19970  0.08390  1.0000 0.0798448199
C   C19       1.0  0.76770  0.30030  0.08390  1.0000 0.0798448199
C   C20       1.0  0.73230  0.80030  0.91610  1.0000 0.0798448199
C   C21       1.0  0.17690  0.74420  0.81240  1.0000 -0.1728144612
C   C22       1.0  0.32310  0.24420  0.18760  1.0000 -0.1728144612
C   C23       1.0  0.82310  0.25580  0.18760  1.0000 -0.1728144612
C   C24       1.0  0.67690  0.75580  0.81240  1.0000 -0.1728144612
C   C25       1.0  0.13330  0.77053  0.59220  1.0000 0.1287248223
C   C26       1.0  0.36670  0.27053  0.40780  1.0000 0.1287248223
C   C27       1.0  0.86670  0.22947  0.40780  1.0000 0.1287248223
C   C28       1.0  0.63330  0.72947  0.59220  1.0000 0.1287248223
C   C29       1.0  0.11770  0.75493  0.47360  1.0000 -0.1181419201
C   C30       1.0  0.38230  0.25493  0.52640  1.0000 -0.1181419201
C   C31       1.0  0.88230  0.24507  0.52640  1.0000 -0.1181419201
C   C32       1.0  0.61770  0.74507  0.47360  1.0000 -0.1181419201
C   C33       1.0  0.01590  0.85920  0.47570  1.0000 0.1503008094
C   C34       1.0  0.48410  0.35920  0.52430  1.0000 0.1503008094
C   C35       1.0  0.98410  0.14080  0.52430  1.0000 0.1503008094
C   C36       1.0  0.51590  0.64080  0.47570  1.0000 0.1503008094
C   C37       1.0  0.41830  0.55411  0.79970  1.0000 0.1197510406
C   C38       1.0  0.08170  0.05411  0.20030  1.0000 0.1197510406
C   C39       1.0  0.58170  0.44589  0.20030  1.0000 0.1197510406
C   C40       1.0  0.91830  0.94589  0.79970  1.0000 0.1197510406
C   C41       1.0  0.41490  0.48030  0.83380  1.0000 -0.1074593782
C   C42       1.0  0.08510  0.98030  0.16620  1.0000 -0.1074593782
C   C43       1.0  0.58510  0.51970  0.16620  1.0000 -0.1074593782
C   C44       1.0  0.91490  0.01970  0.83380  1.0000 -0.1074593782
C   C45       1.0  0.56440  0.48947  0.74960  1.0000 0.1503008094
C   C46       1.0  0.93560  0.98947  0.25040  1.0000 0.1503008094
C   C47       1.0  0.43560  0.51053  0.25040  1.0000 0.1503008094
C   C48       1.0  0.06440  0.01053  0.74960  1.0000 0.1503008094
C   C49       1.0  0.20510  0.72223  0.02800  1.0000 0.1287248223
C   C50       1.0  0.29490  0.22223  0.97200  1.0000 0.1287248223
C   C51       1.0  0.79490  0.27777  0.97200  1.0000 0.1287248223
C   C52       1.0  0.70510  0.77777  0.02800  1.0000 0.1287248223
C   C53       1.0  0.09510  0.75790  0.03440  1.0000 -0.0918952625
C   C54       1.0  0.40490  0.25790  0.96560  1.0000 -0.0918952625
C   C55       1.0  0.90490  0.24210  0.96560  1.0000 -0.0918952625
C   C56       1.0  0.59510  0.74210  0.03440  1.0000 -0.0918952625
C   C57       1.0  0.23390  0.74440  0.21650  1.0000 0.1584266547
C   C58       1.0  0.26610  0.24440  0.78350  1.0000 0.1584266547
C   C59       1.0  0.76610  0.25560  0.78350  1.0000 0.1584266547
C   C60       1.0  0.73390  0.75560  0.21650  1.0000 0.1584266547
N   N1        1.0  0.04280  0.81138  0.39890  1.0000 -0.3099392157
N   N2        1.0  0.45720  0.31138  0.60110  1.0000 -0.3099392157
N   N3        1.0  0.95720  0.18862  0.60110  1.0000 -0.3099392157
N   N4        1.0  0.54280  0.68862  0.39890  1.0000 -0.3099392157
N   N5        1.0  0.06660  0.83770  0.59180  1.0000 -0.3170962434
N   N6        1.0  0.43340  0.33770  0.40820  1.0000 -0.3170962434
N   N7        1.0  0.93340  0.16230  0.40820  1.0000 -0.3170962434
N   N8        1.0  0.56660  0.66230  0.59180  1.0000 -0.3170962434
N   N9        1.0  0.50770  0.43922  0.80130  1.0000 -0.3099392157
N   N10       1.0  0.99230  0.93922  0.19870  1.0000 -0.3099392157
N   N11       1.0  0.49230  0.56078  0.19870  1.0000 -0.3099392157
N   N12       1.0  0.00770  0.06078  0.80130  1.0000 -0.3099392157
N   N13       1.0  0.51440  0.55956  0.74500  1.0000 -0.3283991988
N   N14       1.0  0.98560  0.05956  0.25500  1.0000 -0.3283991988
N   N15       1.0  0.48560  0.44044  0.25500  1.0000 -0.3283991988
N   N16       1.0  0.01440  0.94044  0.74500  1.0000 -0.3283991988
N   N17       1.0  0.11210  0.77254  0.15490  1.0000 -0.2810921098
N   N18       1.0  0.38790  0.27254  0.84510  1.0000 -0.2810921098
N   N19       1.0  0.88790  0.22746  0.84510  1.0000 -0.2810921098
N   N20       1.0  0.61210  0.72746  0.15490  1.0000 -0.2810921098
N   N21       1.0  0.29580  0.71335  0.14590  1.0000 -0.3431107577
N   N22       1.0  0.20420  0.21335  0.85410  1.0000 -0.3431107577
N   N23       1.0  0.70420  0.28665  0.85410  1.0000 -0.3431107577
N   N24       1.0  0.79580  0.78665  0.14590  1.0000 -0.3431107577
