# DDEC6 charges by PACMAN v1.1 (https://github.com/mtap-research/PACMAN-charge/)
data_2011[Cu][pto]3[ASR]1
_chemical_formula_sum              "Cu12 H120 C216 O48"
_cell_length_a       27.418
_cell_length_b       27.418
_cell_length_c       27.418
_cell_angle_alpha    90
_cell_angle_beta     90
_cell_angle_gamma    90

_symmetry_space_group_name_H-M    "P 1"
_symmetry_Int_Tables_number       1

loop_
  _symmetry_equiv_pos_as_xyz
  'x, y, z'

loop_
  _atom_site_type_symbol
  _atom_site_label
  _atom_site_symmetry_multiplicity
  _atom_site_fract_x
  _atom_site_fract_y
  _atom_site_fract_z
  _atom_site_occupancy
  _atom_site_charge
Cu  Cu1       1.0  0.00000  0.79822  0.50000  1.0000 0.8784862586
Cu  Cu2       1.0  0.00000  0.20178  0.50000  1.0000 0.8784862586
Cu  Cu3       1.0  0.70178  0.50000  0.00000  1.0000 0.8784862586
Cu  Cu4       1.0  0.29822  0.50000  0.00000  1.0000 0.8784862586
Cu  Cu5       1.0  0.79822  0.50000  0.00000  1.0000 0.8784862586
Cu  Cu6       1.0  0.20178  0.50000  0.00000  1.0000 0.8784862586
Cu  Cu7       1.0  0.00000  0.29822  0.50000  1.0000 0.8784862586
Cu  Cu8       1.0  0.00000  0.70178  0.50000  1.0000 0.8784862586
Cu  Cu9       1.0  0.50000  0.00000  0.79822  1.0000 0.8784862586
Cu  Cu10      1.0  0.50000  0.00000  0.20178  1.0000 0.8784862586
Cu  Cu11      1.0  0.50000  0.00000  0.70178  1.0000 0.8784862586
Cu  Cu12      1.0  0.50000  0.00000  0.29822  1.0000 0.8784862586
H   H1        1.0  0.88940  0.82240  0.60900  1.0000 0.1315034557
H   H2        1.0  0.88940  0.17760  0.39100  1.0000 0.1315034557
H   H3        1.0  0.11060  0.17760  0.60900  1.0000 0.1315034557
H   H4        1.0  0.11060  0.82240  0.39100  1.0000 0.1315034557
H   H5        1.0  0.67760  0.38940  0.10900  1.0000 0.1315034557
H   H6        1.0  0.32240  0.38940  0.89100  1.0000 0.1315034557
H   H7        1.0  0.32240  0.61060  0.10900  1.0000 0.1315034557
H   H8        1.0  0.67760  0.61060  0.89100  1.0000 0.1315034557
H   H9        1.0  0.82240  0.60900  0.88940  1.0000 0.1315034557
H   H10       1.0  0.17760  0.39100  0.88940  1.0000 0.1315034557
H   H11       1.0  0.82240  0.39100  0.11060  1.0000 0.1315034557
H   H12       1.0  0.17760  0.60900  0.11060  1.0000 0.1315034557
H   H13       1.0  0.89100  0.32240  0.38940  1.0000 0.1315034557
H   H14       1.0  0.89100  0.67760  0.61060  1.0000 0.1315034557
H   H15       1.0  0.10900  0.67760  0.38940  1.0000 0.1315034557
H   H16       1.0  0.10900  0.32240  0.61060  1.0000 0.1315034557
H   H17       1.0  0.60900  0.88940  0.82240  1.0000 0.1315034557
H   H18       1.0  0.39100  0.88940  0.17760  1.0000 0.1315034557
H   H19       1.0  0.39100  0.11060  0.82240  1.0000 0.1315034557
H   H20       1.0  0.60900  0.11060  0.17760  1.0000 0.1315034557
H   H21       1.0  0.61060  0.89100  0.67760  1.0000 0.1315034557
H   H22       1.0  0.61060  0.10900  0.32240  1.0000 0.1315034557
H   H23       1.0  0.38940  0.89100  0.32240  1.0000 0.1315034557
H   H24       1.0  0.38940  0.10900  0.67760  1.0000 0.1315034557
H   H25       1.0  0.11060  0.17760  0.39100  1.0000 0.1315034557
H   H26       1.0  0.11060  0.82240  0.60900  1.0000 0.1315034557
H   H27       1.0  0.88940  0.82240  0.39100  1.0000 0.1315034557
H   H28       1.0  0.88940  0.17760  0.60900  1.0000 0.1315034557
H   H29       1.0  0.32240  0.61060  0.89100  1.0000 0.1315034557
H   H30       1.0  0.67760  0.61060  0.10900  1.0000 0.1315034557
H   H31       1.0  0.67760  0.38940  0.89100  1.0000 0.1315034557
H   H32       1.0  0.32240  0.38940  0.10900  1.0000 0.1315034557
H   H33       1.0  0.17760  0.39100  0.11060  1.0000 0.1315034557
H   H34       1.0  0.82240  0.60900  0.11060  1.0000 0.1315034557
H   H35       1.0  0.17760  0.60900  0.88940  1.0000 0.1315034557
H   H36       1.0  0.82240  0.39100  0.88940  1.0000 0.1315034557
H   H37       1.0  0.10900  0.67760  0.61060  1.0000 0.1315034557
H   H38       1.0  0.10900  0.32240  0.38940  1.0000 0.1315034557
H   H39       1.0  0.89100  0.32240  0.61060  1.0000 0.1315034557
H   H40       1.0  0.89100  0.67760  0.38940  1.0000 0.1315034557
H   H41       1.0  0.39100  0.11060  0.17760  1.0000 0.1315034557
H   H42       1.0  0.60900  0.11060  0.82240  1.0000 0.1315034557
H   H43       1.0  0.60900  0.88940  0.17760  1.0000 0.1315034557
H   H44       1.0  0.39100  0.88940  0.82240  1.0000 0.1315034557
H   H45       1.0  0.38940  0.10900  0.32240  1.0000 0.1315034557
H   H46       1.0  0.38940  0.89100  0.67760  1.0000 0.1315034557
H   H47       1.0  0.61060  0.10900  0.67760  1.0000 0.1315034557
H   H48       1.0  0.61060  0.89100  0.32240  1.0000 0.1315034557
H   H49       1.0  0.83260  0.82340  0.66970  1.0000 0.1187207056
H   H50       1.0  0.83260  0.17660  0.33030  1.0000 0.1187207056
H   H51       1.0  0.16740  0.17660  0.66970  1.0000 0.1187207056
H   H52       1.0  0.16740  0.82340  0.33030  1.0000 0.1187207056
H   H53       1.0  0.67660  0.33260  0.16970  1.0000 0.1187207056
H   H54       1.0  0.32340  0.33260  0.83030  1.0000 0.1187207056
H   H55       1.0  0.32340  0.66740  0.16970  1.0000 0.1187207056
H   H56       1.0  0.67660  0.66740  0.83030  1.0000 0.1187207056
H   H57       1.0  0.82340  0.66970  0.83260  1.0000 0.1187207056
H   H58       1.0  0.17660  0.33030  0.83260  1.0000 0.1187207056
H   H59       1.0  0.82340  0.33030  0.16740  1.0000 0.1187207056
H   H60       1.0  0.17660  0.66970  0.16740  1.0000 0.1187207056
H   H61       1.0  0.83030  0.32340  0.33260  1.0000 0.1187207056
H   H62       1.0  0.83030  0.67660  0.66740  1.0000 0.1187207056
H   H63       1.0  0.16970  0.67660  0.33260  1.0000 0.1187207056
H   H64       1.0  0.16970  0.32340  0.66740  1.0000 0.1187207056
H   H65       1.0  0.66970  0.83260  0.82340  1.0000 0.1187207056
H   H66       1.0  0.33030  0.83260  0.17660  1.0000 0.1187207056
H   H67       1.0  0.33030  0.16740  0.82340  1.0000 0.1187207056
H   H68       1.0  0.66970  0.16740  0.17660  1.0000 0.1187207056
H   H69       1.0  0.66740  0.83030  0.67660  1.0000 0.1187207056
H   H70       1.0  0.66740  0.16970  0.32340  1.0000 0.1187207056
H   H71       1.0  0.33260  0.83030  0.32340  1.0000 0.1187207056
H   H72       1.0  0.33260  0.16970  0.67660  1.0000 0.1187207056
H   H73       1.0  0.16740  0.17660  0.33030  1.0000 0.1187207056
H   H74       1.0  0.16740  0.82340  0.66970  1.0000 0.1187207056
H   H75       1.0  0.83260  0.82340  0.33030  1.0000 0.1187207056
H   H76       1.0  0.83260  0.17660  0.66970  1.0000 0.1187207056
H   H77       1.0  0.32340  0.66740  0.83030  1.0000 0.1187207056
H   H78       1.0  0.67660  0.66740  0.16970  1.0000 0.1187207056
H   H79       1.0  0.67660  0.33260  0.83030  1.0000 0.1187207056
H   H80       1.0  0.32340  0.33260  0.16970  1.0000 0.1187207056
H   H81       1.0  0.17660  0.33030  0.16740  1.0000 0.1187207056
H   H82       1.0  0.82340  0.66970  0.16740  1.0000 0.1187207056
H   H83       1.0  0.17660  0.66970  0.83260  1.0000 0.1187207056
H   H84       1.0  0.82340  0.33030  0.83260  1.0000 0.1187207056
H   H85       1.0  0.16970  0.67660  0.66740  1.0000 0.1187207056
H   H86       1.0  0.16970  0.32340  0.33260  1.0000 0.1187207056
H   H87       1.0  0.83030  0.32340  0.66740  1.0000 0.1187207056
H   H88       1.0  0.83030  0.67660  0.33260  1.0000 0.1187207056
H   H89       1.0  0.33030  0.16740  0.17660  1.0000 0.1187207056
H   H90       1.0  0.66970  0.16740  0.82340  1.0000 0.1187207056
H   H91       1.0  0.66970  0.83260  0.17660  1.0000 0.1187207056
H   H92       1.0  0.33030  0.83260  0.82340  1.0000 0.1187207056
H   H93       1.0  0.33260  0.16970  0.32340  1.0000 0.1187207056
H   H94       1.0  0.33260  0.83030  0.67660  1.0000 0.1187207056
H   H95       1.0  0.66740  0.16970  0.67660  1.0000 0.1187207056
H   H96       1.0  0.66740  0.83030  0.32340  1.0000 0.1187207056
H   H97       1.0  0.75000  0.81010  0.68990  1.0000 0.1106015056
H   H98       1.0  0.75000  0.18990  0.31010  1.0000 0.1106015056
H   H99       1.0  0.25000  0.18990  0.68990  1.0000 0.1106015056
H   H100      1.0  0.25000  0.81010  0.31010  1.0000 0.1106015056
H   H101      1.0  0.68990  0.25000  0.18990  1.0000 0.1106015056
H   H102      1.0  0.31010  0.25000  0.81010  1.0000 0.1106015056
H   H103      1.0  0.31010  0.75000  0.18990  1.0000 0.1106015056
H   H104      1.0  0.68990  0.75000  0.81010  1.0000 0.1106015056
H   H105      1.0  0.81010  0.68990  0.75000  1.0000 0.1106015056
H   H106      1.0  0.18990  0.31010  0.75000  1.0000 0.1106015056
H   H107      1.0  0.81010  0.31010  0.25000  1.0000 0.1106015056
H   H108      1.0  0.18990  0.68990  0.25000  1.0000 0.1106015056
H   H109      1.0  0.25000  0.18990  0.31010  1.0000 0.1106015056
H   H110      1.0  0.25000  0.81010  0.68990  1.0000 0.1106015056
H   H111      1.0  0.75000  0.81010  0.31010  1.0000 0.1106015056
H   H112      1.0  0.75000  0.18990  0.68990  1.0000 0.1106015056
H   H113      1.0  0.31010  0.75000  0.81010  1.0000 0.1106015056
H   H114      1.0  0.68990  0.75000  0.18990  1.0000 0.1106015056
H   H115      1.0  0.68990  0.25000  0.81010  1.0000 0.1106015056
H   H116      1.0  0.31010  0.25000  0.18990  1.0000 0.1106015056
H   H117      1.0  0.18990  0.31010  0.25000  1.0000 0.1106015056
H   H118      1.0  0.81010  0.68990  0.25000  1.0000 0.1106015056
H   H119      1.0  0.18990  0.68990  0.75000  1.0000 0.1106015056
H   H120      1.0  0.81010  0.31010  0.75000  1.0000 0.1106015056
C   C1        1.0  0.87800  0.79300  0.62160  1.0000 -0.0872715044
C   C2        1.0  0.87800  0.20700  0.37840  1.0000 -0.0872715044
C   C3        1.0  0.12200  0.20700  0.62160  1.0000 -0.0872715044
C   C4        1.0  0.12200  0.79300  0.37840  1.0000 -0.0872715044
C   C5        1.0  0.70700  0.37800  0.12160  1.0000 -0.0872715044
C   C6        1.0  0.29300  0.37800  0.87840  1.0000 -0.0872715044
C   C7        1.0  0.29300  0.62200  0.12160  1.0000 -0.0872715044
C   C8        1.0  0.70700  0.62200  0.87840  1.0000 -0.0872715044
C   C9        1.0  0.79300  0.62160  0.87800  1.0000 -0.0872715044
C   C10       1.0  0.20700  0.37840  0.87800  1.0000 -0.0872715044
C   C11       1.0  0.79300  0.37840  0.12200  1.0000 -0.0872715044
C   C12       1.0  0.20700  0.62160  0.12200  1.0000 -0.0872715044
C   C13       1.0  0.87840  0.29300  0.37800  1.0000 -0.0872715044
C   C14       1.0  0.87840  0.70700  0.62200  1.0000 -0.0872715044
C   C15       1.0  0.12160  0.70700  0.37800  1.0000 -0.0872715044
C   C16       1.0  0.12160  0.29300  0.62200  1.0000 -0.0872715044
C   C17       1.0  0.62160  0.87800  0.79300  1.0000 -0.0872715044
C   C18       1.0  0.37840  0.87800  0.20700  1.0000 -0.0872715044
C   C19       1.0  0.37840  0.12200  0.79300  1.0000 -0.0872715044
C   C20       1.0  0.62160  0.12200  0.20700  1.0000 -0.0872715044
C   C21       1.0  0.62200  0.87840  0.70700  1.0000 -0.0872715044
C   C22       1.0  0.62200  0.12160  0.29300  1.0000 -0.0872715044
C   C23       1.0  0.37800  0.87840  0.29300  1.0000 -0.0872715044
C   C24       1.0  0.37800  0.12160  0.70700  1.0000 -0.0872715044
C   C25       1.0  0.12200  0.20700  0.37840  1.0000 -0.0872715044
C   C26       1.0  0.12200  0.79300  0.62160  1.0000 -0.0872715044
C   C27       1.0  0.87800  0.79300  0.37840  1.0000 -0.0872715044
C   C28       1.0  0.87800  0.20700  0.62160  1.0000 -0.0872715044
C   C29       1.0  0.29300  0.62200  0.87840  1.0000 -0.0872715044
C   C30       1.0  0.70700  0.62200  0.12160  1.0000 -0.0872715044
C   C31       1.0  0.70700  0.37800  0.87840  1.0000 -0.0872715044
C   C32       1.0  0.29300  0.37800  0.12160  1.0000 -0.0872715044
C   C33       1.0  0.20700  0.37840  0.12200  1.0000 -0.0872715044
C   C34       1.0  0.79300  0.62160  0.12200  1.0000 -0.0872715044
C   C35       1.0  0.20700  0.62160  0.87800  1.0000 -0.0872715044
C   C36       1.0  0.79300  0.37840  0.87800  1.0000 -0.0872715044
C   C37       1.0  0.12160  0.70700  0.62200  1.0000 -0.0872715044
C   C38       1.0  0.12160  0.29300  0.37800  1.0000 -0.0872715044
C   C39       1.0  0.87840  0.29300  0.62200  1.0000 -0.0872715044
C   C40       1.0  0.87840  0.70700  0.37800  1.0000 -0.0872715044
C   C41       1.0  0.37840  0.12200  0.20700  1.0000 -0.0872715044
C   C42       1.0  0.62160  0.12200  0.79300  1.0000 -0.0872715044
C   C43       1.0  0.62160  0.87800  0.20700  1.0000 -0.0872715044
C   C44       1.0  0.37840  0.87800  0.79300  1.0000 -0.0872715044
C   C45       1.0  0.37800  0.12160  0.29300  1.0000 -0.0872715044
C   C46       1.0  0.37800  0.87840  0.70700  1.0000 -0.0872715044
C   C47       1.0  0.62200  0.12160  0.70700  1.0000 -0.0872715044
C   C48       1.0  0.62200  0.87840  0.29300  1.0000 -0.0872715044
C   C49       1.0  0.84360  0.79380  0.65730  1.0000 -0.1506350149
C   C50       1.0  0.84360  0.20620  0.34270  1.0000 -0.1506350149
C   C51       1.0  0.15640  0.20620  0.65730  1.0000 -0.1506350149
C   C52       1.0  0.15640  0.79380  0.34270  1.0000 -0.1506350149
C   C53       1.0  0.70620  0.34360  0.15730  1.0000 -0.1506350149
C   C54       1.0  0.29380  0.34360  0.84270  1.0000 -0.1506350149
C   C55       1.0  0.29380  0.65640  0.15730  1.0000 -0.1506350149
C   C56       1.0  0.70620  0.65640  0.84270  1.0000 -0.1506350149
C   C57       1.0  0.79380  0.65730  0.84360  1.0000 -0.1506350149
C   C58       1.0  0.20620  0.34270  0.84360  1.0000 -0.1506350149
C   C59       1.0  0.79380  0.34270  0.15640  1.0000 -0.1506350149
C   C60       1.0  0.20620  0.65730  0.15640  1.0000 -0.1506350149
C   C61       1.0  0.84270  0.29380  0.34360  1.0000 -0.1506350149
C   C62       1.0  0.84270  0.70620  0.65640  1.0000 -0.1506350149
C   C63       1.0  0.15730  0.70620  0.34360  1.0000 -0.1506350149
C   C64       1.0  0.15730  0.29380  0.65640  1.0000 -0.1506350149
C   C65       1.0  0.65730  0.84360  0.79380  1.0000 -0.1506350149
C   C66       1.0  0.34270  0.84360  0.20620  1.0000 -0.1506350149
C   C67       1.0  0.34270  0.15640  0.79380  1.0000 -0.1506350149
C   C68       1.0  0.65730  0.15640  0.20620  1.0000 -0.1506350149
C   C69       1.0  0.65640  0.84270  0.70620  1.0000 -0.1506350149
C   C70       1.0  0.65640  0.15730  0.29380  1.0000 -0.1506350149
C   C71       1.0  0.34360  0.84270  0.29380  1.0000 -0.1506350149
C   C72       1.0  0.34360  0.15730  0.70620  1.0000 -0.1506350149
C   C73       1.0  0.15640  0.20620  0.34270  1.0000 -0.1506350149
C   C74       1.0  0.15640  0.79380  0.65730  1.0000 -0.1506350149
C   C75       1.0  0.84360  0.79380  0.34270  1.0000 -0.1506350149
C   C76       1.0  0.84360  0.20620  0.65730  1.0000 -0.1506350149
C   C77       1.0  0.29380  0.65640  0.84270  1.0000 -0.1506350149
C   C78       1.0  0.70620  0.65640  0.15730  1.0000 -0.1506350149
C   C79       1.0  0.70620  0.34360  0.84270  1.0000 -0.1506350149
C   C80       1.0  0.29380  0.34360  0.15730  1.0000 -0.1506350149
C   C81       1.0  0.20620  0.34270  0.15640  1.0000 -0.1506350149
C   C82       1.0  0.79380  0.65730  0.15640  1.0000 -0.1506350149
C   C83       1.0  0.20620  0.65730  0.84360  1.0000 -0.1506350149
C   C84       1.0  0.79380  0.34270  0.84360  1.0000 -0.1506350149
C   C85       1.0  0.15730  0.70620  0.65640  1.0000 -0.1506350149
C   C86       1.0  0.15730  0.29380  0.34360  1.0000 -0.1506350149
C   C87       1.0  0.84270  0.29380  0.65640  1.0000 -0.1506350149
C   C88       1.0  0.84270  0.70620  0.34360  1.0000 -0.1506350149
C   C89       1.0  0.34270  0.15640  0.20620  1.0000 -0.1506350149
C   C90       1.0  0.65730  0.15640  0.79380  1.0000 -0.1506350149
C   C91       1.0  0.65730  0.84360  0.20620  1.0000 -0.1506350149
C   C92       1.0  0.34270  0.84360  0.79380  1.0000 -0.1506350149
C   C93       1.0  0.34360  0.15730  0.29380  1.0000 -0.1506350149
C   C94       1.0  0.34360  0.84270  0.70620  1.0000 -0.1506350149
C   C95       1.0  0.65640  0.15730  0.70620  1.0000 -0.1506350149
C   C96       1.0  0.65640  0.84270  0.29380  1.0000 -0.1506350149
C   C97       1.0  0.89650  0.75000  0.60350  1.0000 -0.0444019676
C   C98       1.0  0.89650  0.25000  0.39650  1.0000 -0.0444019676
C   C99       1.0  0.10350  0.25000  0.60350  1.0000 -0.0444019676
C   C100      1.0  0.10350  0.75000  0.39650  1.0000 -0.0452441048
C   C101      1.0  0.75000  0.39650  0.10350  1.0000 -0.0444019676
C   C102      1.0  0.25000  0.39650  0.89650  1.0000 -0.0444019676
C   C103      1.0  0.25000  0.60350  0.10350  1.0000 -0.0444019676
C   C104      1.0  0.75000  0.60350  0.89650  1.0000 -0.0444019676
C   C105      1.0  0.60350  0.89650  0.75000  1.0000 -0.0444019676
C   C106      1.0  0.39650  0.89650  0.25000  1.0000 -0.0444019676
C   C107      1.0  0.39650  0.10350  0.75000  1.0000 -0.0444019676
C   C108      1.0  0.60350  0.10350  0.25000  1.0000 -0.0444019676
C   C109      1.0  0.10350  0.25000  0.39650  1.0000 -0.0444019676
C   C110      1.0  0.10350  0.75000  0.60350  1.0000 -0.0444019676
C   C111      1.0  0.89650  0.75000  0.39650  1.0000 -0.0444019676
C   C112      1.0  0.89650  0.25000  0.60350  1.0000 -0.0444019676
C   C113      1.0  0.25000  0.60350  0.89650  1.0000 -0.0444019676
C   C114      1.0  0.75000  0.60350  0.10350  1.0000 -0.0444019676
C   C115      1.0  0.75000  0.39650  0.89650  1.0000 -0.0444019676
C   C116      1.0  0.25000  0.39650  0.10350  1.0000 -0.0444019676
C   C117      1.0  0.39650  0.10350  0.25000  1.0000 -0.0444019676
C   C118      1.0  0.60350  0.10350  0.75000  1.0000 -0.0444019676
C   C119      1.0  0.60350  0.89650  0.25000  1.0000 -0.0444019676
C   C120      1.0  0.39650  0.89650  0.75000  1.0000 -0.0444019676
C   C121      1.0  0.93475  0.75000  0.56525  1.0000 0.5771795738
C   C122      1.0  0.93475  0.25000  0.43475  1.0000 0.5771795738
C   C123      1.0  0.06525  0.25000  0.56525  1.0000 0.5771795738
C   C124      1.0  0.06525  0.75000  0.43475  1.0000 0.5771795738
C   C125      1.0  0.75000  0.43475  0.06525  1.0000 0.5771795738
C   C126      1.0  0.25000  0.43475  0.93475  1.0000 0.5771795738
C   C127      1.0  0.25000  0.56525  0.06525  1.0000 0.5771795738
C   C128      1.0  0.75000  0.56525  0.93475  1.0000 0.5771795738
C   C129      1.0  0.56525  0.93475  0.75000  1.0000 0.5771795738
C   C130      1.0  0.43475  0.93475  0.25000  1.0000 0.5771795738
C   C131      1.0  0.43475  0.06525  0.75000  1.0000 0.5771795738
C   C132      1.0  0.56525  0.06525  0.25000  1.0000 0.5771795738
C   C133      1.0  0.06525  0.25000  0.43475  1.0000 0.5771795738
C   C134      1.0  0.06525  0.75000  0.56525  1.0000 0.5771795738
C   C135      1.0  0.93475  0.75000  0.43475  1.0000 0.5771795738
C   C136      1.0  0.93475  0.25000  0.56525  1.0000 0.5771795738
C   C137      1.0  0.25000  0.56525  0.93475  1.0000 0.5771795738
C   C138      1.0  0.75000  0.56525  0.06525  1.0000 0.5771795738
C   C139      1.0  0.75000  0.43475  0.93475  1.0000 0.5771795738
C   C140      1.0  0.25000  0.43475  0.06525  1.0000 0.5771795738
C   C141      1.0  0.43475  0.06525  0.25000  1.0000 0.5771795738
C   C142      1.0  0.56525  0.06525  0.75000  1.0000 0.5771795738
C   C143      1.0  0.56525  0.93475  0.25000  1.0000 0.5771795738
C   C144      1.0  0.43475  0.93475  0.75000  1.0000 0.5771795738
C   C145      1.0  0.78482  0.75000  0.71518  1.0000 0.0725849553
C   C146      1.0  0.78482  0.25000  0.28482  1.0000 0.0725849553
C   C147      1.0  0.21518  0.25000  0.71518  1.0000 0.0725849553
C   C148      1.0  0.21518  0.75000  0.28482  1.0000 0.0725849553
C   C149      1.0  0.75000  0.28482  0.21518  1.0000 0.0725849553
C   C150      1.0  0.25000  0.28482  0.78482  1.0000 0.0725849553
C   C151      1.0  0.25000  0.71518  0.21518  1.0000 0.0725849553
C   C152      1.0  0.75000  0.71518  0.78482  1.0000 0.0725849553
C   C153      1.0  0.71518  0.78482  0.75000  1.0000 0.0725849553
C   C154      1.0  0.28482  0.78482  0.25000  1.0000 0.0725849553
C   C155      1.0  0.28482  0.21518  0.75000  1.0000 0.0725849553
C   C156      1.0  0.71518  0.21518  0.25000  1.0000 0.0725849553
C   C157      1.0  0.21518  0.25000  0.28482  1.0000 0.0725849553
C   C158      1.0  0.21518  0.75000  0.71518  1.0000 0.0725849553
C   C159      1.0  0.78482  0.75000  0.28482  1.0000 0.0725849553
C   C160      1.0  0.78482  0.25000  0.71518  1.0000 0.0725849553
C   C161      1.0  0.25000  0.71518  0.78482  1.0000 0.0725849553
C   C162      1.0  0.75000  0.71518  0.21518  1.0000 0.0725849553
C   C163      1.0  0.75000  0.28482  0.78482  1.0000 0.0725849553
C   C164      1.0  0.25000  0.28482  0.21518  1.0000 0.0725849553
C   C165      1.0  0.28482  0.21518  0.25000  1.0000 0.0725849553
C   C166      1.0  0.71518  0.21518  0.75000  1.0000 0.0725849553
C   C167      1.0  0.71518  0.78482  0.25000  1.0000 0.0725849553
C   C168      1.0  0.28482  0.78482  0.75000  1.0000 0.0725849553
C   C169      1.0  0.82460  0.75000  0.67540  1.0000 0.0851047936
C   C170      1.0  0.82460  0.25000  0.32460  1.0000 0.0851047936
C   C171      1.0  0.17540  0.25000  0.67540  1.0000 0.0851047936
C   C172      1.0  0.17540  0.75000  0.32460  1.0000 0.084641144
C   C173      1.0  0.75000  0.32460  0.17540  1.0000 0.0851047936
C   C174      1.0  0.25000  0.32460  0.82460  1.0000 0.0851047936
C   C175      1.0  0.25000  0.67540  0.17540  1.0000 0.084641144
C   C176      1.0  0.75000  0.67540  0.82460  1.0000 0.0851047936
C   C177      1.0  0.67540  0.82460  0.75000  1.0000 0.0851047936
C   C178      1.0  0.32460  0.82460  0.25000  1.0000 0.084641144
C   C179      1.0  0.32460  0.17540  0.75000  1.0000 0.0851047936
C   C180      1.0  0.67540  0.17540  0.25000  1.0000 0.0851047936
C   C181      1.0  0.17540  0.25000  0.32460  1.0000 0.084641144
C   C182      1.0  0.17540  0.75000  0.67540  1.0000 0.0851047936
C   C183      1.0  0.82460  0.75000  0.32460  1.0000 0.0851047936
C   C184      1.0  0.82460  0.25000  0.67540  1.0000 0.0851047936
C   C185      1.0  0.25000  0.67540  0.82460  1.0000 0.0851047936
C   C186      1.0  0.75000  0.67540  0.17540  1.0000 0.0851047936
C   C187      1.0  0.75000  0.32460  0.82460  1.0000 0.0851047936
C   C188      1.0  0.25000  0.32460  0.17540  1.0000 0.084641144
C   C189      1.0  0.32460  0.17540  0.25000  1.0000 0.084641144
C   C190      1.0  0.67540  0.17540  0.75000  1.0000 0.0851047936
C   C191      1.0  0.67540  0.82460  0.25000  1.0000 0.0851047936
C   C192      1.0  0.32460  0.82460  0.75000  1.0000 0.0851047936
C   C193      1.0  0.75000  0.78610  0.71390  1.0000 -0.2102487922
C   C194      1.0  0.75000  0.21390  0.28610  1.0000 -0.2102487922
C   C195      1.0  0.25000  0.21390  0.71390  1.0000 -0.2102487922
C   C196      1.0  0.25000  0.78610  0.28610  1.0000 -0.2102487922
C   C197      1.0  0.71390  0.25000  0.21390  1.0000 -0.2102487922
C   C198      1.0  0.28610  0.25000  0.78610  1.0000 -0.2102487922
C   C199      1.0  0.28610  0.75000  0.21390  1.0000 -0.2102487922
C   C200      1.0  0.71390  0.75000  0.78610  1.0000 -0.2102487922
C   C201      1.0  0.78610  0.71390  0.75000  1.0000 -0.2102487922
C   C202      1.0  0.21390  0.28610  0.75000  1.0000 -0.2102487922
C   C203      1.0  0.78610  0.28610  0.25000  1.0000 -0.2102487922
C   C204      1.0  0.21390  0.71390  0.25000  1.0000 -0.2102487922
C   C205      1.0  0.25000  0.21390  0.28610  1.0000 -0.2102487922
C   C206      1.0  0.25000  0.78610  0.71390  1.0000 -0.2102487922
C   C207      1.0  0.75000  0.78610  0.28610  1.0000 -0.2102487922
C   C208      1.0  0.75000  0.21390  0.71390  1.0000 -0.2102487922
C   C209      1.0  0.28610  0.75000  0.78610  1.0000 -0.2102487922
C   C210      1.0  0.71390  0.75000  0.21390  1.0000 -0.2102487922
C   C211      1.0  0.71390  0.25000  0.78610  1.0000 -0.2102487922
C   C212      1.0  0.28610  0.25000  0.21390  1.0000 -0.2102487922
C   C213      1.0  0.21390  0.28610  0.25000  1.0000 -0.2102487922
C   C214      1.0  0.78610  0.71390  0.25000  1.0000 -0.2102487922
C   C215      1.0  0.21390  0.71390  0.75000  1.0000 -0.2102487922
C   C216      1.0  0.78610  0.28610  0.75000  1.0000 -0.2102487922
O   O1        1.0  0.95047  0.79068  0.54980  1.0000 -0.5272737403
O   O2        1.0  0.95047  0.20932  0.45020  1.0000 -0.5272737403
O   O3        1.0  0.04953  0.20932  0.54980  1.0000 -0.5272737403
O   O4        1.0  0.04953  0.79068  0.45020  1.0000 -0.5272737403
O   O5        1.0  0.70932  0.45047  0.04980  1.0000 -0.5272737403
O   O6        1.0  0.29068  0.45047  0.95020  1.0000 -0.5272737403
O   O7        1.0  0.29068  0.54953  0.04980  1.0000 -0.5272737403
O   O8        1.0  0.70932  0.54953  0.95020  1.0000 -0.5272737403
O   O9        1.0  0.79068  0.54980  0.95047  1.0000 -0.5272737403
O   O10       1.0  0.20932  0.45020  0.95047  1.0000 -0.5272737403
O   O11       1.0  0.79068  0.45020  0.04953  1.0000 -0.5272737403
O   O12       1.0  0.20932  0.54980  0.04953  1.0000 -0.5272737403
O   O13       1.0  0.95020  0.29068  0.45047  1.0000 -0.5272737403
O   O14       1.0  0.95020  0.70932  0.54953  1.0000 -0.5272737403
O   O15       1.0  0.04980  0.70932  0.45047  1.0000 -0.5272737403
O   O16       1.0  0.04980  0.29068  0.54953  1.0000 -0.5272737403
O   O17       1.0  0.54980  0.95047  0.79068  1.0000 -0.5272737403
O   O18       1.0  0.45020  0.95047  0.20932  1.0000 -0.5272737403
O   O19       1.0  0.45020  0.04953  0.79068  1.0000 -0.5272737403
O   O20       1.0  0.54980  0.04953  0.20932  1.0000 -0.5272737403
O   O21       1.0  0.54953  0.95020  0.70932  1.0000 -0.5272737403
O   O22       1.0  0.54953  0.04980  0.29068  1.0000 -0.5272737403
O   O23       1.0  0.45047  0.95020  0.29068  1.0000 -0.5272737403
O   O24       1.0  0.45047  0.04980  0.70932  1.0000 -0.5272737403
O   O25       1.0  0.04953  0.20932  0.45020  1.0000 -0.5272737403
O   O26       1.0  0.04953  0.79068  0.54980  1.0000 -0.5272737403
O   O27       1.0  0.95047  0.79068  0.45020  1.0000 -0.5272737403
O   O28       1.0  0.95047  0.20932  0.54980  1.0000 -0.5272737403
O   O29       1.0  0.29068  0.54953  0.95020  1.0000 -0.5272737403
O   O30       1.0  0.70932  0.54953  0.04980  1.0000 -0.5272737403
O   O31       1.0  0.70932  0.45047  0.95020  1.0000 -0.5272737403
O   O32       1.0  0.29068  0.45047  0.04980  1.0000 -0.5272737403
O   O33       1.0  0.20932  0.45020  0.04953  1.0000 -0.5272737403
O   O34       1.0  0.79068  0.54980  0.04953  1.0000 -0.5272737403
O   O35       1.0  0.20932  0.54980  0.95047  1.0000 -0.5272737403
O   O36       1.0  0.79068  0.45020  0.95047  1.0000 -0.5272737403
O   O37       1.0  0.04980  0.70932  0.54953  1.0000 -0.5272737403
O   O38       1.0  0.04980  0.29068  0.45047  1.0000 -0.5272737403
O   O39       1.0  0.95020  0.29068  0.54953  1.0000 -0.5272737403
O   O40       1.0  0.95020  0.70932  0.45047  1.0000 -0.5272737403
O   O41       1.0  0.45020  0.04953  0.20932  1.0000 -0.5272737403
O   O42       1.0  0.54980  0.04953  0.79068  1.0000 -0.5272737403
O   O43       1.0  0.54980  0.95047  0.20932  1.0000 -0.5272737403
O   O44       1.0  0.45020  0.95047  0.79068  1.0000 -0.5272737403
O   O45       1.0  0.45047  0.04980  0.29068  1.0000 -0.5272737403
O   O46       1.0  0.45047  0.95020  0.70932  1.0000 -0.5272737403
O   O47       1.0  0.54953  0.04980  0.70932  1.0000 -0.5272737403
O   O48       1.0  0.54953  0.95020  0.29068  1.0000 -0.5272737403
