# DDEC6 charges by PACMAN v1.1 (https://github.com/mtap-research/PACMAN-charge/)
data_2011[Pr][nan]3[ASR]2
_chemical_formula_sum              "Pr2 H24 C24 N2 O12"
_cell_length_a       7.7965
_cell_length_b       9.5743
_cell_length_c       11.464
_cell_angle_alpha    91.93
_cell_angle_beta     105.87
_cell_angle_gamma    103.38

_symmetry_space_group_name_H-M    "P 1"
_symmetry_Int_Tables_number       1

loop_
  _symmetry_equiv_pos_as_xyz
  'x, y, z'

loop_
  _atom_site_type_symbol
  _atom_site_label
  _atom_site_symmetry_multiplicity
  _atom_site_fract_x
  _atom_site_fract_y
  _atom_site_fract_z
  _atom_site_occupancy
  _atom_site_charge
Pr  Pr1       1.0  0.28634  0.57990  0.51780  1.0000 2.0448836373
Pr  Pr2       1.0  0.71366  0.42010  0.48220  1.0000 2.0448836373
H   H1        1.0  0.05020  0.73930  0.68800  1.0000 0.1000913411
H   H2        1.0  0.94980  0.26070  0.31200  1.0000 0.1000913411
H   H3        1.0  0.98210  0.94240  0.75210  1.0000 0.1302939641
H   H4        1.0  0.01790  0.05760  0.24790  1.0000 0.1302939641
H   H5        1.0  0.10720  0.16340  0.69290  1.0000 0.1199702906
H   H6        1.0  0.89280  0.83660  0.30710  1.0000 0.1199702906
H   H7        1.0  0.35220  0.95710  0.50380  1.0000 0.1111115391
H   H8        1.0  0.64780  0.04290  0.49620  1.0000 0.1111115391
H   H9        1.0  0.73220  0.58900  0.19080  1.0000 0.1382463543
H   H10       1.0  0.26780  0.41100  0.80920  1.0000 0.1382463543
H   H11       1.0  0.79150  0.45450  0.14980  1.0000 0.1382463543
H   H12       1.0  0.20850  0.54550  0.85020  1.0000 0.1382463543
H   H13       1.0  0.99540  0.61140  0.06020  1.0000 0.1000913411
H   H14       1.0  0.00460  0.38860  0.93980  1.0000 0.094680606
H   H15       1.0  0.91290  0.73800  0.09130  1.0000 0.094680606
H   H16       1.0  0.08710  0.26200  0.90870  1.0000 0.094680606
H   H17       1.0  0.69240  0.48450  0.93910  1.0000 0.1000913411
H   H18       1.0  0.30760  0.51550  0.06090  1.0000 0.1000913411
H   H19       1.0  0.62350  0.62140  0.96230  1.0000 0.1000913411
H   H20       1.0  0.37650  0.37860  0.03770  1.0000 0.1000913411
H   H21       1.0  0.82560  0.75420  0.86050  1.0000 0.1382463543
H   H22       1.0  0.17440  0.24580  0.13950  1.0000 0.1382463543
H   H23       1.0  0.88000  0.61200  0.83120  1.0000 0.1382463543
H   H24       1.0  0.12000  0.38800  0.16880  1.0000 0.1382463543
C   C1        1.0  0.09910  0.82670  0.66220  1.0000 0.0812304156
C   C2        1.0  0.90090  0.17330  0.33780  1.0000 0.0812304156
C   C3        1.0  0.05900  0.94830  0.70210  1.0000 -0.1460972366
C   C4        1.0  0.94100  0.05170  0.29790  1.0000 -0.1460972366
C   C5        1.0  0.13380  0.07970  0.66730  1.0000 -0.0432611642
C   C6        1.0  0.86620  0.92030  0.33270  1.0000 -0.0432611642
C   C7        1.0  0.24840  0.08510  0.59400  1.0000 -0.0764386965
C   C8        1.0  0.75160  0.91490  0.40600  1.0000 -0.0764386965
C   C9        1.0  0.27780  0.95470  0.55520  1.0000 0.0812304156
C   C10       1.0  0.72220  0.04530  0.44480  1.0000 0.0812304156
C   C11       1.0  0.33790  0.22570  0.55710  1.0000 0.629328041
C   C12       1.0  0.66210  0.77430  0.44290  1.0000 0.629328041
C   C13       1.0  0.98630  0.58030  0.29370  1.0000 0.6434514212
C   C14       1.0  0.01370  0.41970  0.70630  1.0000 0.6434514212
C   C15       1.0  0.83430  0.55720  0.17560  1.0000 -0.3543690158
C   C16       1.0  0.16570  0.44280  0.82440  1.0000 -0.3543690158
C   C17       1.0  0.88570  0.63440  0.07130  1.0000 -0.1360215259
C   C18       1.0  0.11430  0.36560  0.92870  1.0000 -0.1360215259
C   C19       1.0  0.72870  0.58900  0.95340  1.0000 -0.134523393
C   C20       1.0  0.27130  0.41100  0.04660  1.0000 -0.134523393
C   C21       1.0  0.78090  0.65010  0.84400  1.0000 -0.3335857106
C   C22       1.0  0.21910  0.34990  0.15600  1.0000 -0.3335857106
C   C23       1.0  0.61950  0.61320  0.72950  1.0000 0.6816711115
C   C24       1.0  0.38050  0.38680  0.27050  1.0000 0.6816711115
N   N1        1.0  0.20500  0.82720  0.58800  1.0000 -0.3335857106
N   N2        1.0  0.79500  0.17280  0.41200  1.0000 -0.3335857106
O   O1        1.0  0.95930  0.49730  0.37680  1.0000 -0.7626502229
O   O2        1.0  0.04070  0.50270  0.62320  1.0000 -0.7626502229
O   O3        1.0  0.13500  0.67240  0.31350  1.0000 -0.5878168655
O   O4        1.0  0.86500  0.32760  0.68650  1.0000 -0.5878168655
O   O5        1.0  0.63190  0.54800  0.63520  1.0000 -0.7328424168
O   O6        1.0  0.36810  0.45200  0.36480  1.0000 -0.7328424168
O   O7        1.0  0.47540  0.64880  0.73050  1.0000 -0.6228353692
O   O8        1.0  0.52460  0.35120  0.26950  1.0000 -0.6228353692
O   O9        1.0  0.47330  0.22950  0.51690  1.0000 -0.6522347642
O   O10       1.0  0.52670  0.77050  0.48310  1.0000 -0.6522347642
O   O11       1.0  0.27110  0.33130  0.57080  1.0000 -0.6522347642
O   O12       1.0  0.72890  0.66870  0.42920  1.0000 -0.6522347642
