# DDEC6 charges by PACMAN v1.1 (https://github.com/mtap-research/PACMAN-charge/)
data_2011[Zn][nan]3[ASR]18
_chemical_formula_sum              "Zn10 P8 H8 C16 O48"
_cell_length_a       10.23
_cell_length_b       11.059
_cell_length_c       13.818
_cell_angle_alpha    69.01
_cell_angle_beta     78.31
_cell_angle_gamma    72.15

_symmetry_space_group_name_H-M    "P 1"
_symmetry_Int_Tables_number       1

loop_
  _symmetry_equiv_pos_as_xyz
  'x, y, z'

loop_
  _atom_site_type_symbol
  _atom_site_label
  _atom_site_symmetry_multiplicity
  _atom_site_fract_x
  _atom_site_fract_y
  _atom_site_fract_z
  _atom_site_occupancy
  _atom_site_charge
Zn  Zn1       1.0  0.91623  0.14628  0.07687  1.0000 1.0372779655
Zn  Zn2       1.0  0.08259  0.35514  0.92333  1.0000 1.0372779655
Zn  Zn3       1.0  0.40422  0.98263  0.17402  1.0000 1.1242443609
Zn  Zn4       1.0  0.40297  0.48369  0.17472  1.0000 1.1265883732
Zn  Zn5       1.0  0.00025  0.74937  0.49845  1.0000 1.1626490045
Zn  Zn6       1.0  0.99983  0.25038  0.50120  1.0000 1.1626490045
Zn  Zn7       1.0  0.08370  0.85379  0.92306  1.0000 1.0372779655
Zn  Zn8       1.0  0.91733  0.64494  0.07659  1.0000 1.0372779655
Zn  Zn9       1.0  0.59581  0.01728  0.82604  1.0000 1.1265883732
Zn  Zn10      1.0  0.59712  0.51623  0.82528  1.0000 1.1242443609
P   P1        1.0  0.22792  0.02986  0.98494  1.0000 1.3306226421
P   P2        1.0  0.22810  0.52941  0.98491  1.0000 1.3306226421
P   P3        1.0  0.20112  0.97885  0.40365  1.0000 1.501118629
P   P4        1.0  0.20005  0.48207  0.40464  1.0000 1.5052202034
P   P5        1.0  0.77205  0.97010  0.01512  1.0000 1.3306226421
P   P6        1.0  0.77187  0.47055  0.01513  1.0000 1.3306226421
P   P7        1.0  0.79871  0.02111  0.59640  1.0000 1.501118629
P   P8        1.0  0.79992  0.51776  0.59531  1.0000 1.5052202034
H   H1        1.0  0.22378  0.09725  0.80029  1.0000 0.1337448868
H   H2        1.0  0.22567  0.59595  0.80038  1.0000 0.1337448868
H   H3        1.0  0.92553  0.08556  0.37642  1.0000 0.0943210709
H   H4        1.0  0.92608  0.58708  0.37480  1.0000 0.0943210709
H   H5        1.0  0.77623  0.90267  0.19977  1.0000 0.1337448868
H   H6        1.0  0.77436  0.40397  0.19968  1.0000 0.1337448868
H   H7        1.0  0.07430  0.91416  0.62363  1.0000 0.0958534989
H   H8        1.0  0.07381  0.41260  0.62526  1.0000 0.0958534989
C   C1        1.0  0.31552  0.07929  0.84081  1.0000 -0.112760843
C   C2        1.0  0.64490  0.78780  0.17913  1.0000 0.6065217543
C   C3        1.0  0.31670  0.57779  0.84130  1.0000 -0.112760843
C   C4        1.0  0.64334  0.28914  0.17872  1.0000 0.6065217543
C   C5        1.0  0.95931  0.07501  0.29685  1.0000 0.1822387341
C   C6        1.0  0.95113  0.94814  0.27929  1.0000 0.5660058249
C   C7        1.0  0.96158  0.57543  0.29561  1.0000 0.1822387341
C   C8        1.0  0.04538  0.55196  0.72101  1.0000 0.5660058249
C   C9        1.0  0.68451  0.92064  0.15921  1.0000 -0.112760843
C   C10       1.0  0.35514  0.21215  0.82094  1.0000 0.6065217543
C   C11       1.0  0.68335  0.42213  0.15872  1.0000 -0.112760843
C   C12       1.0  0.35672  0.71079  0.82134  1.0000 0.6065217543
C   C13       1.0  0.04067  0.92484  0.70316  1.0000 0.1822387341
C   C14       1.0  0.04890  0.05178  0.72059  1.0000 0.5660058249
C   C15       1.0  0.03844  0.42444  0.70436  1.0000 0.1822387341
C   C16       1.0  0.95465  0.44798  0.27884  1.0000 0.5660058249
O   O1        1.0  0.10023  0.14970  0.98487  1.0000 -0.7483462703
O   O2        1.0  0.80733  0.10087  0.99486  1.0000 -0.6968497348
O   O3        1.0  0.33819  0.02409  0.04607  1.0000 -0.7245352578
O   O4        1.0  0.57819  0.01896  0.17764  1.0000 -0.3171250683
O   O5        1.0  0.51782  0.79201  0.19689  1.0000 -0.471856789
O   O6        1.0  0.25709  0.31628  0.81555  1.0000 -0.5282445264
O   O7        1.0  0.19304  0.39877  0.00519  1.0000 -0.6948493433
O   O8        1.0  0.89950  0.35104  0.01600  1.0000 -0.7483462703
O   O9        1.0  0.33686  0.52404  0.04693  1.0000 -0.7245352578
O   O10       1.0  0.57713  0.52042  0.17654  1.0000 -0.3171250683
O   O11       1.0  0.74093  0.18496  0.18323  1.0000 -0.5282445264
O   O12       1.0  0.51631  0.29318  0.19720  1.0000 -0.471856789
O   O13       1.0  0.28194  0.95934  0.30526  1.0000 -0.8008232725
O   O14       1.0  0.17576  0.10481  0.42731  1.0000 -0.7629293215
O   O15       1.0  0.14275  0.86679  0.47646  1.0000 -0.789061473
O   O16       1.0  0.00269  0.16183  0.22435  1.0000 -0.2398403969
O   O17       1.0  0.96247  0.95426  0.18485  1.0000 -0.4869035892
O   O18       1.0  0.93354  0.84735  0.35787  1.0000 -0.4823439788
O   O19       1.0  0.28473  0.46165  0.30777  1.0000 -0.8008232725
O   O20       1.0  0.17260  0.60893  0.42723  1.0000 -0.7655040931
O   O21       1.0  0.85678  0.63046  0.52202  1.0000 -0.789061473
O   O22       1.0  0.00682  0.66096  0.22356  1.0000 -0.2398403969
O   O23       1.0  0.03567  0.54664  0.81517  1.0000 -0.4869035892
O   O24       1.0  0.05920  0.65353  0.64216  1.0000 -0.4823439788
O   O25       1.0  0.89979  0.85027  0.01515  1.0000 -0.7483462703
O   O26       1.0  0.19263  0.89912  0.00512  1.0000 -0.6968497348
O   O27       1.0  0.66179  0.97578  0.95401  1.0000 -0.7251011443
O   O28       1.0  0.42180  0.98099  0.82240  1.0000 -0.3171250683
O   O29       1.0  0.48222  0.20791  0.80323  1.0000 -0.471856789
O   O30       1.0  0.74294  0.68365  0.18450  1.0000 -0.5282445264
O   O31       1.0  0.80692  0.60122  0.99478  1.0000 -0.6968497348
O   O32       1.0  0.10052  0.64893  0.98401  1.0000 -0.7483462703
O   O33       1.0  0.66313  0.47585  0.95312  1.0000 -0.7245352578
O   O34       1.0  0.42291  0.47953  0.82350  1.0000 -0.3171250683
O   O35       1.0  0.25912  0.81495  0.81683  1.0000 -0.5282445264
O   O36       1.0  0.48376  0.70672  0.80289  1.0000 -0.471856789
O   O37       1.0  0.71810  0.04076  0.69487  1.0000 -0.8008232725
O   O38       1.0  0.82396  0.89502  0.57284  1.0000 -0.7629293215
O   O39       1.0  0.85714  0.13315  0.52346  1.0000 -0.789061473
O   O40       1.0  0.99742  0.83803  0.77576  1.0000 -0.2398403969
O   O41       1.0  0.03761  0.04576  0.81501  1.0000 -0.4823439788
O   O42       1.0  0.06642  0.15254  0.64198  1.0000 -0.4823439788
O   O43       1.0  0.71536  0.53821  0.69226  1.0000 -0.8008232725
O   O44       1.0  0.82743  0.39075  0.57282  1.0000 -0.7655040931
O   O45       1.0  0.14319  0.36938  0.47788  1.0000 -0.789061473
O   O46       1.0  0.99330  0.33885  0.77659  1.0000 -0.2398403969
O   O47       1.0  0.96442  0.45340  0.18465  1.0000 -0.4869035892
O   O48       1.0  0.94072  0.34637  0.35763  1.0000 -0.4823439788
