# DDEC6 charges by PACMAN v1.1 (https://github.com/mtap-research/PACMAN-charge/)
data_2011[Ni][nan]3[ASR]9
_chemical_formula_sum              "Ni16 H168 C200 N24 O64"
_cell_length_a       17.6574
_cell_length_b       17.6574
_cell_length_c       18.6518
_cell_angle_alpha    90
_cell_angle_beta     90
_cell_angle_gamma    90

_symmetry_space_group_name_H-M    "P 1"
_symmetry_Int_Tables_number       1

loop_
  _symmetry_equiv_pos_as_xyz
  'x, y, z'

loop_
  _atom_site_type_symbol
  _atom_site_label
  _atom_site_symmetry_multiplicity
  _atom_site_fract_x
  _atom_site_fract_y
  _atom_site_fract_z
  _atom_site_occupancy
  _atom_site_charge
Ni  Ni1       1.0  0.38221  0.58006  0.07370  1.0000 0.7421105725
Ni  Ni2       1.0  0.91994  0.88221  0.32370  1.0000 0.7421105725
Ni  Ni3       1.0  0.61779  0.41994  0.57370  1.0000 0.7421105725
Ni  Ni4       1.0  0.08006  0.11779  0.82370  1.0000 0.7472191773
Ni  Ni5       1.0  0.88221  0.91994  0.67630  1.0000 0.7421105725
Ni  Ni6       1.0  0.11779  0.08006  0.17630  1.0000 0.7472191773
Ni  Ni7       1.0  0.58006  0.38221  0.92630  1.0000 0.7421105725
Ni  Ni8       1.0  0.41994  0.61779  0.42630  1.0000 0.7421105725
Ni  Ni9       1.0  0.27608  0.46707  0.18655  1.0000 0.7867863424
Ni  Ni10      1.0  0.03293  0.77608  0.43655  1.0000 0.7867863424
Ni  Ni11      1.0  0.72392  0.53293  0.68655  1.0000 0.7867863424
Ni  Ni12      1.0  0.96707  0.22392  0.93655  1.0000 0.7867863424
Ni  Ni13      1.0  0.77608  0.03293  0.56345  1.0000 0.7867863424
Ni  Ni14      1.0  0.22392  0.96707  0.06345  1.0000 0.7867863424
Ni  Ni15      1.0  0.46707  0.27608  0.81345  1.0000 0.7867863424
Ni  Ni16      1.0  0.53293  0.72392  0.31345  1.0000 0.7867863424
H   H1        1.0  0.33170  0.92190  0.73690  1.0000 0.1280915885
H   H2        1.0  0.57810  0.83170  0.98690  1.0000 0.1280915885
H   H3        1.0  0.66830  0.07810  0.23690  1.0000 0.1280915885
H   H4        1.0  0.42190  0.16830  0.48690  1.0000 0.1280915885
H   H5        1.0  0.83170  0.57810  0.01310  1.0000 0.1280915885
H   H6        1.0  0.16830  0.42190  0.51310  1.0000 0.1280915885
H   H7        1.0  0.92190  0.33170  0.26310  1.0000 0.1280915885
H   H8        1.0  0.07810  0.66830  0.76310  1.0000 0.1280915885
H   H9        1.0  0.41610  0.91180  0.71290  1.0000 0.1191605177
H   H10       1.0  0.58820  0.91610  0.96290  1.0000 0.1191605177
H   H11       1.0  0.58390  0.08820  0.21290  1.0000 0.1191605177
H   H12       1.0  0.41180  0.08390  0.46290  1.0000 0.1191605177
H   H13       1.0  0.91610  0.58820  0.03710  1.0000 0.1191605177
H   H14       1.0  0.08390  0.41180  0.53710  1.0000 0.1191605177
H   H15       1.0  0.91180  0.41610  0.28710  1.0000 0.1191605177
H   H16       1.0  0.08820  0.58390  0.78710  1.0000 0.1191605177
H   H17       1.0  0.31520  0.03090  0.83870  1.0000 0.1495045325
H   H18       1.0  0.46910  0.81520  0.08870  1.0000 0.1495045325
H   H19       1.0  0.68480  0.96910  0.33870  1.0000 0.1495045325
H   H20       1.0  0.53090  0.18480  0.58870  1.0000 0.1495045325
H   H21       1.0  0.81520  0.46910  0.91130  1.0000 0.1495045325
H   H22       1.0  0.18480  0.53090  0.41130  1.0000 0.1495045325
H   H23       1.0  0.03090  0.31520  0.16130  1.0000 0.1495045325
H   H24       1.0  0.96910  0.68480  0.66130  1.0000 0.1495045325
H   H25       1.0  0.34340  0.15550  0.85870  1.0000 0.1191605177
H   H26       1.0  0.34450  0.84340  0.10870  1.0000 0.1123823532
H   H27       1.0  0.65660  0.84450  0.35870  1.0000 0.1191605177
H   H28       1.0  0.65550  0.15660  0.60870  1.0000 0.1191605177
H   H29       1.0  0.84340  0.34450  0.89130  1.0000 0.1191605177
H   H30       1.0  0.15660  0.65550  0.39130  1.0000 0.1191605177
H   H31       1.0  0.15550  0.34340  0.14130  1.0000 0.1191605177
H   H32       1.0  0.84450  0.65660  0.64130  1.0000 0.1191605177
H   H33       1.0  0.49250  0.02010  0.70560  1.0000 0.1386791608
H   H34       1.0  0.47990  0.99250  0.95560  1.0000 0.1386791608
H   H35       1.0  0.50750  0.97990  0.20560  1.0000 0.1386791608
H   H36       1.0  0.52010  0.00750  0.45560  1.0000 0.1386791608
H   H37       1.0  0.99250  0.47990  0.04440  1.0000 0.1386791608
H   H38       1.0  0.00750  0.52010  0.54440  1.0000 0.1386791608
H   H39       1.0  0.02010  0.49250  0.29440  1.0000 0.1386791608
H   H40       1.0  0.97990  0.50750  0.79440  1.0000 0.1386791608
H   H41       1.0  0.51550  0.14550  0.72870  1.0000 0.1123823532
H   H42       1.0  0.35450  0.01550  0.97870  1.0000 0.1123823532
H   H43       1.0  0.48450  0.85450  0.22870  1.0000 0.1123823532
H   H44       1.0  0.64550  0.98450  0.47870  1.0000 0.1123823532
H   H45       1.0  0.01550  0.35450  0.02130  1.0000 0.1123823532
H   H46       1.0  0.98450  0.64550  0.52130  1.0000 0.1123823532
H   H47       1.0  0.14550  0.51550  0.27130  1.0000 0.1123823532
H   H48       1.0  0.85450  0.48450  0.77130  1.0000 0.1123823532
H   H49       1.0  0.34220  0.30090  0.30320  1.0000 0.1386791608
H   H50       1.0  0.19910  0.84220  0.55320  1.0000 0.1386791608
H   H51       1.0  0.65780  0.69910  0.80320  1.0000 0.1386791608
H   H52       1.0  0.80090  0.15780  0.05320  1.0000 0.1386791608
H   H53       1.0  0.84220  0.19910  0.44680  1.0000 0.1386791608
H   H54       1.0  0.15780  0.80090  0.94680  1.0000 0.1386791608
H   H55       1.0  0.30090  0.34220  0.69680  1.0000 0.1386791608
H   H56       1.0  0.69910  0.65780  0.19680  1.0000 0.1386791608
H   H57       1.0  0.26140  0.31480  0.27020  1.0000 0.1280915885
H   H58       1.0  0.18520  0.76140  0.52020  1.0000 0.1280915885
H   H59       1.0  0.73860  0.68520  0.77020  1.0000 0.1280915885
H   H60       1.0  0.81480  0.23860  0.02020  1.0000 0.1280915885
H   H61       1.0  0.76140  0.18520  0.47980  1.0000 0.1280915885
H   H62       1.0  0.23860  0.81480  0.97980  1.0000 0.1280915885
H   H63       1.0  0.31480  0.26140  0.72980  1.0000 0.1280915885
H   H64       1.0  0.68520  0.73860  0.22980  1.0000 0.1280915885
H   H65       1.0  0.27540  0.23230  0.19480  1.0000 0.1191605177
H   H66       1.0  0.26770  0.77540  0.44480  1.0000 0.1191605177
H   H67       1.0  0.72460  0.76770  0.69480  1.0000 0.1191605177
H   H68       1.0  0.73230  0.22460  0.94480  1.0000 0.1191605177
H   H69       1.0  0.77540  0.26770  0.55520  1.0000 0.1191605177
H   H70       1.0  0.22460  0.73230  0.05520  1.0000 0.1191605177
H   H71       1.0  0.23230  0.27540  0.80520  1.0000 0.1191605177
H   H72       1.0  0.76770  0.72460  0.30520  1.0000 0.1191605177
H   H73       1.0  0.42570  0.36510  0.09550  1.0000 0.1280915885
H   H74       1.0  0.13490  0.92570  0.34550  1.0000 0.1280915885
H   H75       1.0  0.57430  0.63490  0.59550  1.0000 0.1280915885
H   H76       1.0  0.86510  0.07430  0.84550  1.0000 0.1280915885
H   H77       1.0  0.92570  0.13490  0.65450  1.0000 0.1280915885
H   H78       1.0  0.07430  0.86510  0.15450  1.0000 0.1280915885
H   H79       1.0  0.36510  0.42570  0.90450  1.0000 0.1280915885
H   H80       1.0  0.63490  0.57430  0.40450  1.0000 0.1280915885
H   H81       1.0  0.45930  0.35600  0.21950  1.0000 0.1386791608
H   H82       1.0  0.14400  0.95930  0.46950  1.0000 0.1386791608
H   H83       1.0  0.54070  0.64400  0.71950  1.0000 0.1386791608
H   H84       1.0  0.85600  0.04070  0.96950  1.0000 0.1386791608
H   H85       1.0  0.95930  0.14400  0.53050  1.0000 0.1386791608
H   H86       1.0  0.04070  0.85600  0.03050  1.0000 0.1386791608
H   H87       1.0  0.35600  0.45930  0.78050  1.0000 0.1386791608
H   H88       1.0  0.64400  0.54070  0.28050  1.0000 0.1386791608
H   H89       1.0  0.42380  0.40820  0.27850  1.0000 0.1495045325
H   H90       1.0  0.09180  0.92380  0.52850  1.0000 0.1495045325
H   H91       1.0  0.57620  0.59180  0.77850  1.0000 0.1495045325
H   H92       1.0  0.90820  0.07620  0.02850  1.0000 0.1495045325
H   H93       1.0  0.92380  0.09180  0.47150  1.0000 0.1495045325
H   H94       1.0  0.07620  0.90820  0.97150  1.0000 0.1495045325
H   H95       1.0  0.40820  0.42380  0.72150  1.0000 0.1495045325
H   H96       1.0  0.59180  0.57620  0.22150  1.0000 0.1495045325
H   H97       1.0  0.35520  0.17310  0.00050  1.0000 0.1191605177
H   H98       1.0  0.32690  0.85520  0.25050  1.0000 0.1191605177
H   H99       1.0  0.64480  0.82690  0.50050  1.0000 0.1191605177
H   H100      1.0  0.67310  0.14480  0.75050  1.0000 0.1191605177
H   H101      1.0  0.85520  0.32690  0.74950  1.0000 0.1191605177
H   H102      1.0  0.14480  0.67310  0.24950  1.0000 0.1191605177
H   H103      1.0  0.17310  0.35520  0.99950  1.0000 0.1191605177
H   H104      1.0  0.82690  0.64480  0.49950  1.0000 0.1191605177
H   H105      1.0  0.28180  0.62700  0.95080  1.0000 0.1191605177
H   H106      1.0  0.87300  0.78180  0.20080  1.0000 0.1191605177
H   H107      1.0  0.71820  0.37300  0.45080  1.0000 0.1191605177
H   H108      1.0  0.12700  0.21820  0.70080  1.0000 0.1191605177
H   H109      1.0  0.78180  0.87300  0.79920  1.0000 0.1191605177
H   H110      1.0  0.21820  0.12700  0.29920  1.0000 0.1191605177
H   H111      1.0  0.62700  0.28180  0.04920  1.0000 0.1191605177
H   H112      1.0  0.37300  0.71820  0.54920  1.0000 0.1191605177
H   H113      1.0  0.28110  0.70180  0.85020  1.0000 0.1495045325
H   H114      1.0  0.79820  0.78110  0.10020  1.0000 0.1495045325
H   H115      1.0  0.71890  0.29820  0.35020  1.0000 0.1495045325
H   H116      1.0  0.20180  0.21890  0.60020  1.0000 0.1495045325
H   H117      1.0  0.78110  0.79820  0.89980  1.0000 0.1495045325
H   H118      1.0  0.21890  0.20180  0.39980  1.0000 0.1495045325
H   H119      1.0  0.70180  0.28110  0.14980  1.0000 0.1495045325
H   H120      1.0  0.29820  0.71890  0.64980  1.0000 0.1495045325
H   H121      1.0  0.49210  0.76020  0.89220  1.0000 0.1495045325
H   H122      1.0  0.73980  0.99210  0.14220  1.0000 0.1495045325
H   H123      1.0  0.50790  0.23980  0.39220  1.0000 0.1495045325
H   H124      1.0  0.26020  0.00790  0.64220  1.0000 0.1495045325
H   H125      1.0  0.99210  0.73980  0.85780  1.0000 0.1495045325
H   H126      1.0  0.00790  0.26020  0.35780  1.0000 0.1495045325
H   H127      1.0  0.76020  0.49210  0.10780  1.0000 0.1495045325
H   H128      1.0  0.23980  0.50790  0.60780  1.0000 0.1495045325
H   H129      1.0  0.48960  0.68450  0.99060  1.0000 0.1191605177
H   H130      1.0  0.81550  0.98960  0.24060  1.0000 0.1191605177
H   H131      1.0  0.51040  0.31550  0.49060  1.0000 0.1191605177
H   H132      1.0  0.18450  0.01040  0.74060  1.0000 0.1191605177
H   H133      1.0  0.98960  0.81550  0.75940  1.0000 0.1191605177
H   H134      1.0  0.01040  0.18450  0.25940  1.0000 0.1191605177
H   H135      1.0  0.68450  0.48960  0.00940  1.0000 0.1191605177
H   H136      1.0  0.31550  0.51040  0.50940  1.0000 0.1191605177
H   H137      1.0  0.33870  0.78590  0.77040  1.0000 0.1191605177
H   H138      1.0  0.71410  0.83870  0.02040  1.0000 0.1191605177
H   H139      1.0  0.66130  0.21410  0.27040  1.0000 0.1191605177
H   H140      1.0  0.28590  0.16130  0.52040  1.0000 0.1191605177
H   H141      1.0  0.83870  0.71410  0.97960  1.0000 0.1191605177
H   H142      1.0  0.16130  0.28590  0.47960  1.0000 0.1191605177
H   H143      1.0  0.78590  0.33870  0.22960  1.0000 0.1191605177
H   H144      1.0  0.21410  0.66130  0.72960  1.0000 0.1191605177
H   H145      1.0  0.42650  0.77660  0.76240  1.0000 0.1280915885
H   H146      1.0  0.72340  0.92650  0.01240  1.0000 0.1280915885
H   H147      1.0  0.57350  0.22340  0.26240  1.0000 0.1280915885
H   H148      1.0  0.27660  0.07350  0.51240  1.0000 0.1280915885
H   H149      1.0  0.92650  0.72340  0.98760  1.0000 0.1280915885
H   H150      1.0  0.07350  0.27660  0.48760  1.0000 0.1280915885
H   H151      1.0  0.77660  0.42650  0.23760  1.0000 0.1280915885
H   H152      1.0  0.22340  0.57350  0.73760  1.0000 0.1280915885
H   H153      1.0  0.36270  0.88710  0.85330  1.0000 0.1123823532
H   H154      1.0  0.61290  0.86270  0.10330  1.0000 0.1123823532
H   H155      1.0  0.63730  0.11290  0.35330  1.0000 0.1123823532
H   H156      1.0  0.38710  0.13730  0.60330  1.0000 0.1123823532
H   H157      1.0  0.86270  0.61290  0.89670  1.0000 0.1123823532
H   H158      1.0  0.13730  0.38710  0.39670  1.0000 0.1123823532
H   H159      1.0  0.88710  0.36270  0.14670  1.0000 0.1123823532
H   H160      1.0  0.11290  0.63730  0.64670  1.0000 0.1123823532
H   H161      1.0  0.44850  0.88150  0.83240  1.0000 0.0973871154
H   H162      1.0  0.61850  0.94850  0.08240  1.0000 0.0973871154
H   H163      1.0  0.55150  0.11850  0.33240  1.0000 0.0973871154
H   H164      1.0  0.38150  0.05150  0.58240  1.0000 0.0973871154
H   H165      1.0  0.94850  0.61850  0.91760  1.0000 0.0973871154
H   H166      1.0  0.05150  0.38150  0.41760  1.0000 0.0973871154
H   H167      1.0  0.88150  0.44850  0.16760  1.0000 0.0973871154
H   H168      1.0  0.11850  0.55150  0.66760  1.0000 0.0973871154
C   C1        1.0  0.38390  0.92710  0.75240  1.0000 -0.253327034
C   C2        1.0  0.57290  0.88390  0.00240  1.0000 -0.253327034
C   C3        1.0  0.61610  0.07290  0.25240  1.0000 -0.253327034
C   C4        1.0  0.42710  0.11610  0.50240  1.0000 -0.253327034
C   C5        1.0  0.88390  0.57290  0.99760  1.0000 -0.253327034
C   C6        1.0  0.11610  0.42710  0.49760  1.0000 -0.253327034
C   C7        1.0  0.92710  0.38390  0.24760  1.0000 -0.253327034
C   C8        1.0  0.07290  0.61610  0.74760  1.0000 -0.253327034
C   C9        1.0  0.39910  0.01000  0.76900  1.0000 0.1688016498
C   C10       1.0  0.49000  0.89910  0.01900  1.0000 0.1688016498
C   C11       1.0  0.60090  0.99000  0.26900  1.0000 0.1688016498
C   C12       1.0  0.51000  0.10090  0.51900  1.0000 0.1688016498
C   C13       1.0  0.89910  0.49000  0.98100  1.0000 0.1688016498
C   C14       1.0  0.10090  0.51000  0.48100  1.0000 0.1688016498
C   C15       1.0  0.01000  0.39910  0.23100  1.0000 0.1688016498
C   C16       1.0  0.99000  0.60090  0.73100  1.0000 0.1688016498
C   C17       1.0  0.35610  0.05280  0.81510  1.0000 -0.2205993325
C   C18       1.0  0.44720  0.85610  0.06510  1.0000 -0.2205993325
C   C19       1.0  0.64390  0.94720  0.31510  1.0000 -0.2205993325
C   C20       1.0  0.55280  0.14390  0.56510  1.0000 -0.2205993325
C   C21       1.0  0.85610  0.44720  0.93490  1.0000 -0.2205993325
C   C22       1.0  0.14390  0.55280  0.43490  1.0000 -0.2205993325
C   C23       1.0  0.05280  0.35610  0.18490  1.0000 -0.2205993325
C   C24       1.0  0.94720  0.64390  0.68490  1.0000 -0.2205993325
C   C25       1.0  0.37310  0.12810  0.82670  1.0000 0.0888265307
C   C26       1.0  0.37190  0.87310  0.07670  1.0000 0.0888265307
C   C27       1.0  0.62690  0.87190  0.32670  1.0000 0.0888265307
C   C28       1.0  0.62810  0.12690  0.57670  1.0000 0.0888265307
C   C29       1.0  0.87310  0.37190  0.92330  1.0000 0.0888265307
C   C30       1.0  0.12690  0.62810  0.42330  1.0000 0.0888265307
C   C31       1.0  0.12810  0.37310  0.17330  1.0000 0.0888265307
C   C32       1.0  0.87190  0.62690  0.67330  1.0000 0.0888265307
C   C33       1.0  0.46080  0.04670  0.73650  1.0000 -0.2205993325
C   C34       1.0  0.45330  0.96080  0.98650  1.0000 -0.2205993325
C   C35       1.0  0.53920  0.95330  0.23650  1.0000 -0.2205993325
C   C36       1.0  0.54670  0.03920  0.48650  1.0000 -0.2205993325
C   C37       1.0  0.96080  0.45330  0.01350  1.0000 -0.2205993325
C   C38       1.0  0.03920  0.54670  0.51350  1.0000 -0.2205993325
C   C39       1.0  0.04670  0.46080  0.26350  1.0000 -0.2205993325
C   C40       1.0  0.95330  0.53920  0.76350  1.0000 -0.2205993325
C   C41       1.0  0.47430  0.12220  0.75050  1.0000 0.0973871154
C   C42       1.0  0.37780  0.97430  0.00050  1.0000 0.0973871154
C   C43       1.0  0.52570  0.87780  0.25050  1.0000 0.0973871154
C   C44       1.0  0.62220  0.02570  0.50050  1.0000 0.0973871154
C   C45       1.0  0.97430  0.37780  0.99950  1.0000 0.0973871154
C   C46       1.0  0.02570  0.62220  0.49950  1.0000 0.0973871154
C   C47       1.0  0.12220  0.47430  0.24950  1.0000 0.0973871154
C   C48       1.0  0.87780  0.52570  0.74950  1.0000 0.0973871154
C   C49       1.0  0.29980  0.40620  0.32810  1.0000 0.5935954474
C   C50       1.0  0.09380  0.79980  0.57810  1.0000 0.5935954474
C   C51       1.0  0.70020  0.59380  0.82810  1.0000 0.5935954474
C   C52       1.0  0.90620  0.20020  0.07810  1.0000 0.5935954474
C   C53       1.0  0.79980  0.09380  0.42190  1.0000 0.5935954474
C   C54       1.0  0.20020  0.90620  0.92190  1.0000 0.5935954474
C   C55       1.0  0.40620  0.29980  0.67190  1.0000 0.5935954474
C   C56       1.0  0.59380  0.70020  0.17190  1.0000 0.5935954474
C   C57       1.0  0.31010  0.33810  0.27990  1.0000 -0.2859906718
C   C58       1.0  0.16190  0.81010  0.52990  1.0000 -0.2859906718
C   C59       1.0  0.68990  0.66190  0.77990  1.0000 -0.2859906718
C   C60       1.0  0.83810  0.18990  0.02990  1.0000 -0.2859906718
C   C61       1.0  0.81010  0.16190  0.47010  1.0000 -0.2859906718
C   C62       1.0  0.18990  0.83810  0.97010  1.0000 -0.2859906718
C   C63       1.0  0.33810  0.31010  0.72010  1.0000 -0.2859906718
C   C64       1.0  0.66190  0.68990  0.22010  1.0000 -0.2859906718
C   C65       1.0  0.30620  0.24280  0.15560  1.0000 -0.2034826571
C   C66       1.0  0.25720  0.80620  0.40560  1.0000 -0.2034826571
C   C67       1.0  0.69380  0.75720  0.65560  1.0000 -0.2034826571
C   C68       1.0  0.74280  0.19380  0.90560  1.0000 -0.2034826571
C   C69       1.0  0.80620  0.25720  0.59440  1.0000 -0.2034826571
C   C70       1.0  0.19380  0.74280  0.09440  1.0000 -0.2034826571
C   C71       1.0  0.24280  0.30620  0.84440  1.0000 -0.2034826571
C   C72       1.0  0.75720  0.69380  0.34440  1.0000 -0.2034826571
C   C73       1.0  0.34850  0.30893  0.15508  1.0000 0.1755637549
C   C74       1.0  0.19107  0.84850  0.40508  1.0000 0.1755637549
C   C75       1.0  0.65150  0.69107  0.65508  1.0000 0.1755637549
C   C76       1.0  0.80893  0.15150  0.90508  1.0000 0.1755637549
C   C77       1.0  0.84850  0.19107  0.59492  1.0000 0.1755637549
C   C78       1.0  0.15150  0.80893  0.09492  1.0000 0.1755637549
C   C79       1.0  0.30893  0.34850  0.84492  1.0000 0.1755637549
C   C80       1.0  0.69107  0.65150  0.34492  1.0000 0.1755637549
C   C81       1.0  0.39510  0.32220  0.09600  1.0000 -0.1804946509
C   C82       1.0  0.17780  0.89510  0.34600  1.0000 -0.1804946509
C   C83       1.0  0.60490  0.67780  0.59600  1.0000 -0.1804946509
C   C84       1.0  0.82220  0.10490  0.84600  1.0000 -0.1804946509
C   C85       1.0  0.89510  0.17780  0.65400  1.0000 -0.1804946509
C   C86       1.0  0.10490  0.82220  0.15400  1.0000 -0.1804946509
C   C87       1.0  0.32220  0.39510  0.90400  1.0000 -0.1804946509
C   C88       1.0  0.67780  0.60490  0.40400  1.0000 -0.1804946509
C   C89       1.0  0.42150  0.39480  0.22820  1.0000 -0.2859906718
C   C90       1.0  0.10520  0.92150  0.47820  1.0000 -0.2859906718
C   C91       1.0  0.57850  0.60520  0.72820  1.0000 -0.2859906718
C   C92       1.0  0.89480  0.07850  0.97820  1.0000 -0.2859906718
C   C93       1.0  0.92150  0.10520  0.52180  1.0000 -0.2859906718
C   C94       1.0  0.07850  0.89480  0.02180  1.0000 -0.2859906718
C   C95       1.0  0.39480  0.42150  0.77180  1.0000 -0.2859906718
C   C96       1.0  0.60520  0.57850  0.27180  1.0000 -0.2859906718
C   C97       1.0  0.44020  0.46430  0.18320  1.0000 0.6193487666
C   C98       1.0  0.03570  0.94020  0.43320  1.0000 0.6193487666
C   C99       1.0  0.55980  0.53570  0.68320  1.0000 0.6193487666
C   C100      1.0  0.96430  0.05980  0.93320  1.0000 0.6193487666
C   C101      1.0  0.94020  0.03570  0.56680  1.0000 0.6193487666
C   C102      1.0  0.05980  0.96430  0.06680  1.0000 0.6193487666
C   C103      1.0  0.46430  0.44020  0.81680  1.0000 0.6193487666
C   C104      1.0  0.53570  0.55980  0.31680  1.0000 0.6193487666
C   C105      1.0  0.30890  0.19170  0.09850  1.0000 -0.005840104
C   C106      1.0  0.30830  0.80890  0.34850  1.0000 -0.005840104
C   C107      1.0  0.69110  0.80830  0.59850  1.0000 -0.005840104
C   C108      1.0  0.69170  0.19110  0.84850  1.0000 -0.005840104
C   C109      1.0  0.80890  0.30830  0.65150  1.0000 -0.005840104
C   C110      1.0  0.19110  0.69170  0.15150  1.0000 -0.005840104
C   C111      1.0  0.19170  0.30890  0.90150  1.0000 -0.005840104
C   C112      1.0  0.80830  0.69110  0.40150  1.0000 -0.005840104
C   C113      1.0  0.35390  0.20660  0.03890  1.0000 -0.1486213445
C   C114      1.0  0.29340  0.85390  0.28890  1.0000 -0.1486213445
C   C115      1.0  0.64610  0.79340  0.53890  1.0000 -0.1486213445
C   C116      1.0  0.70660  0.14610  0.78890  1.0000 -0.1486213445
C   C117      1.0  0.85390  0.29340  0.71110  1.0000 -0.1486213445
C   C118      1.0  0.14610  0.70660  0.21110  1.0000 -0.1486213445
C   C119      1.0  0.20660  0.35390  0.96110  1.0000 -0.1486213445
C   C120      1.0  0.79340  0.64610  0.46110  1.0000 -0.1486213445
C   C121      1.0  0.39720  0.27310  0.03782  1.0000 0.0086290412
C   C122      1.0  0.22690  0.89720  0.28782  1.0000 0.0086290412
C   C123      1.0  0.60280  0.72690  0.53782  1.0000 0.0086290412
C   C124      1.0  0.77310  0.10280  0.78782  1.0000 0.0086290412
C   C125      1.0  0.89720  0.22690  0.71218  1.0000 0.0086290412
C   C126      1.0  0.10280  0.77310  0.21218  1.0000 0.0086290412
C   C127      1.0  0.27310  0.39720  0.96218  1.0000 0.0086290412
C   C128      1.0  0.72690  0.60280  0.46218  1.0000 0.0086290412
C   C129      1.0  0.44720  0.29380  0.97420  1.0000 0.5695367776
C   C130      1.0  0.20620  0.94720  0.22420  1.0000 0.5695367776
C   C131      1.0  0.55280  0.70620  0.47420  1.0000 0.5695367776
C   C132      1.0  0.79380  0.05280  0.72420  1.0000 0.5695367776
C   C133      1.0  0.94720  0.20620  0.77580  1.0000 0.5695367776
C   C134      1.0  0.05280  0.79380  0.27580  1.0000 0.5695367776
C   C135      1.0  0.29380  0.44720  0.02580  1.0000 0.5695367776
C   C136      1.0  0.70620  0.55280  0.52580  1.0000 0.5695367776
C   C137      1.0  0.26260  0.12120  0.10480  1.0000 0.5695367776
C   C138      1.0  0.37880  0.76260  0.35480  1.0000 0.5695367776
C   C139      1.0  0.73740  0.87880  0.60480  1.0000 0.5695367776
C   C140      1.0  0.62120  0.23740  0.85480  1.0000 0.5695367776
C   C141      1.0  0.76260  0.37880  0.64520  1.0000 0.5695367776
C   C142      1.0  0.23740  0.62120  0.14520  1.0000 0.5695367776
C   C143      1.0  0.12120  0.26260  0.89520  1.0000 0.5695367776
C   C144      1.0  0.87880  0.73740  0.39520  1.0000 0.5695367776
C   C145      1.0  0.32530  0.65390  0.93890  1.0000 0.0888265307
C   C146      1.0  0.84610  0.82530  0.18890  1.0000 0.0888265307
C   C147      1.0  0.67470  0.34610  0.43890  1.0000 0.0888265307
C   C148      1.0  0.15390  0.17470  0.68890  1.0000 0.0888265307
C   C149      1.0  0.82530  0.84610  0.81110  1.0000 0.0888265307
C   C150      1.0  0.17470  0.15390  0.31110  1.0000 0.0888265307
C   C151      1.0  0.65390  0.32530  0.06110  1.0000 0.0888265307
C   C152      1.0  0.34610  0.67470  0.56110  1.0000 0.0888265307
C   C153      1.0  0.32460  0.69910  0.87820  1.0000 -0.2060633615
C   C154      1.0  0.80090  0.82460  0.12820  1.0000 -0.2060633615
C   C155      1.0  0.67540  0.30090  0.37820  1.0000 -0.2060633615
C   C156      1.0  0.19910  0.17540  0.62820  1.0000 -0.2060633615
C   C157      1.0  0.82460  0.80090  0.87180  1.0000 -0.2060633615
C   C158      1.0  0.17540  0.19910  0.37180  1.0000 -0.2060633615
C   C159      1.0  0.69910  0.32460  0.12180  1.0000 -0.2060633615
C   C160      1.0  0.30090  0.67540  0.62180  1.0000 -0.2060633615
C   C161      1.0  0.38770  0.74030  0.85870  1.0000 0.1688016498
C   C162      1.0  0.75970  0.88770  0.10870  1.0000 0.1688016498
C   C163      1.0  0.61230  0.25970  0.35870  1.0000 0.1688016498
C   C164      1.0  0.24030  0.11230  0.60870  1.0000 0.1688016498
C   C165      1.0  0.88770  0.75970  0.89130  1.0000 0.1688016498
C   C166      1.0  0.11230  0.24030  0.39130  1.0000 0.1688016498
C   C167      1.0  0.74030  0.38770  0.14130  1.0000 0.1688016498
C   C168      1.0  0.25970  0.61230  0.64130  1.0000 0.1688016498
C   C169      1.0  0.44820  0.73330  0.90250  1.0000 -0.2034826571
C   C170      1.0  0.76670  0.94820  0.15250  1.0000 -0.1945858128
C   C171      1.0  0.55180  0.26670  0.40250  1.0000 -0.1945858128
C   C172      1.0  0.23330  0.05180  0.65250  1.0000 -0.1945858128
C   C173      1.0  0.94820  0.76670  0.84750  1.0000 -0.1945858128
C   C174      1.0  0.05180  0.23330  0.34750  1.0000 -0.1945858128
C   C175      1.0  0.73330  0.44820  0.09750  1.0000 -0.1945858128
C   C176      1.0  0.26670  0.55180  0.59750  1.0000 -0.1945858128
C   C177      1.0  0.44640  0.68750  0.96220  1.0000 0.0888265307
C   C178      1.0  0.81250  0.94640  0.21220  1.0000 0.0888265307
C   C179      1.0  0.55360  0.31250  0.46220  1.0000 0.0888265307
C   C180      1.0  0.18750  0.05360  0.71220  1.0000 0.0888265307
C   C181      1.0  0.94640  0.81250  0.78780  1.0000 0.0888265307
C   C182      1.0  0.05360  0.18750  0.28780  1.0000 0.0888265307
C   C183      1.0  0.68750  0.44640  0.03780  1.0000 0.0888265307
C   C184      1.0  0.31250  0.55360  0.53780  1.0000 0.0888265307
C   C185      1.0  0.38660  0.79160  0.79520  1.0000 -0.253327034
C   C186      1.0  0.70840  0.88660  0.04520  1.0000 -0.253327034
C   C187      1.0  0.61340  0.20840  0.29520  1.0000 -0.253327034
C   C188      1.0  0.29160  0.11340  0.54520  1.0000 -0.253327034
C   C189      1.0  0.88660  0.70840  0.95480  1.0000 -0.253327034
C   C190      1.0  0.11340  0.29160  0.45480  1.0000 -0.253327034
C   C191      1.0  0.79160  0.38660  0.20480  1.0000 -0.253327034
C   C192      1.0  0.20840  0.61340  0.70480  1.0000 -0.253327034
C   C193      1.0  0.39740  0.87430  0.81480  1.0000 -0.1402759287
C   C194      1.0  0.62570  0.89740  0.06480  1.0000 -0.1402759287
C   C195      1.0  0.60260  0.12570  0.31480  1.0000 -0.1402759287
C   C196      1.0  0.37430  0.10260  0.56480  1.0000 -0.1402759287
C   C197      1.0  0.89740  0.62570  0.93520  1.0000 -0.1402759287
C   C198      1.0  0.10260  0.37430  0.43520  1.0000 -0.1402759287
C   C199      1.0  0.87430  0.39740  0.18520  1.0000 -0.1402759287
C   C200      1.0  0.12570  0.60260  0.68520  1.0000 -0.1402759287
N   N1        1.0  0.43070  0.16330  0.79393  1.0000 -0.2295749035
N   N2        1.0  0.33670  0.93070  0.04393  1.0000 -0.2295749035
N   N3        1.0  0.56930  0.83670  0.29393  1.0000 -0.2295749035
N   N4        1.0  0.66330  0.06930  0.54393  1.0000 -0.2295749035
N   N5        1.0  0.93070  0.33670  0.95607  1.0000 -0.2295749035
N   N6        1.0  0.06930  0.66330  0.45607  1.0000 -0.2295749035
N   N7        1.0  0.16330  0.43070  0.20607  1.0000 -0.2295749035
N   N8        1.0  0.83670  0.56930  0.70607  1.0000 -0.2295749035
N   N9        1.0  0.38610  0.64760  0.98105  1.0000 -0.2295749035
N   N10       1.0  0.85240  0.88610  0.23105  1.0000 -0.2295749035
N   N11       1.0  0.61390  0.35240  0.48105  1.0000 -0.2295749035
N   N12       1.0  0.14760  0.11390  0.73105  1.0000 -0.2295749035
N   N13       1.0  0.88610  0.85240  0.76895  1.0000 -0.2295749035
N   N14       1.0  0.11390  0.14760  0.26895  1.0000 -0.2295749035
N   N15       1.0  0.64760  0.38610  0.01895  1.0000 -0.2295749035
N   N16       1.0  0.35240  0.61390  0.51895  1.0000 -0.2295749035
N   N17       1.0  0.34531  0.36341  0.21207  1.0000 -0.0883152742
N   N18       1.0  0.13659  0.84531  0.46207  1.0000 -0.0883152742
N   N19       1.0  0.65469  0.63659  0.71207  1.0000 -0.0883152742
N   N20       1.0  0.86341  0.15469  0.96207  1.0000 -0.0883152742
N   N21       1.0  0.84531  0.13659  0.53793  1.0000 -0.0883152742
N   N22       1.0  0.15469  0.86341  0.03793  1.0000 -0.0883152742
N   N23       1.0  0.36341  0.34531  0.78793  1.0000 -0.0883152742
N   N24       1.0  0.63659  0.65469  0.28793  1.0000 -0.0883152742
O   O1        1.0  0.30150  0.39820  0.39329  1.0000 -0.5507540747
O   O2        1.0  0.10180  0.80150  0.64329  1.0000 -0.5507540747
O   O3        1.0  0.69850  0.60180  0.89329  1.0000 -0.5507540747
O   O4        1.0  0.89820  0.19850  0.14329  1.0000 -0.5507540747
O   O5        1.0  0.80150  0.10180  0.35671  1.0000 -0.5507540747
O   O6        1.0  0.19850  0.89820  0.85671  1.0000 -0.5507540747
O   O7        1.0  0.39820  0.30150  0.60671  1.0000 -0.5507540747
O   O8        1.0  0.60180  0.69850  0.10671  1.0000 -0.5507540747
O   O9        1.0  0.28948  0.47035  0.29690  1.0000 -0.5507540747
O   O10       1.0  0.02965  0.78948  0.54690  1.0000 -0.5507540747
O   O11       1.0  0.71052  0.52965  0.79690  1.0000 -0.5507540747
O   O12       1.0  0.97035  0.21052  0.04690  1.0000 -0.5507540747
O   O13       1.0  0.78948  0.02965  0.45310  1.0000 -0.5507540747
O   O14       1.0  0.21052  0.97035  0.95310  1.0000 -0.5507540747
O   O15       1.0  0.47035  0.28948  0.70310  1.0000 -0.5507540747
O   O16       1.0  0.52965  0.71052  0.20310  1.0000 -0.5507540747
O   O17       1.0  0.50657  0.47657  0.16875  1.0000 -0.5195599096
O   O18       1.0  0.02343  0.00657  0.41875  1.0000 -0.5195599096
O   O19       1.0  0.49343  0.52343  0.66875  1.0000 -0.5195599096
O   O20       1.0  0.97657  0.99343  0.91875  1.0000 -0.5195599096
O   O21       1.0  0.00657  0.02343  0.58125  1.0000 -0.5195599096
O   O22       1.0  0.99343  0.97657  0.08125  1.0000 -0.5195599096
O   O23       1.0  0.47657  0.50657  0.83125  1.0000 -0.5089778613
O   O24       1.0  0.52343  0.49343  0.33125  1.0000 -0.5195599096
O   O25       1.0  0.38389  0.50542  0.16370  1.0000 -0.5556756747
O   O26       1.0  0.99458  0.88389  0.41370  1.0000 -0.5556756747
O   O27       1.0  0.61611  0.49458  0.66370  1.0000 -0.5507540747
O   O28       1.0  0.00542  0.11611  0.91370  1.0000 -0.5556756747
O   O29       1.0  0.88389  0.99458  0.58630  1.0000 -0.5556756747
O   O30       1.0  0.11611  0.00542  0.08630  1.0000 -0.5556756747
O   O31       1.0  0.50542  0.38389  0.83630  1.0000 -0.5556756747
O   O32       1.0  0.49458  0.61611  0.33630  1.0000 -0.5507540747
O   O33       1.0  0.26220  0.07517  0.05382  1.0000 -0.5089778613
O   O34       1.0  0.42483  0.76220  0.30382  1.0000 -0.5089778613
O   O35       1.0  0.73780  0.92483  0.55382  1.0000 -0.5089778613
O   O36       1.0  0.57517  0.23780  0.80382  1.0000 -0.5089778613
O   O37       1.0  0.76220  0.42483  0.69618  1.0000 -0.5089778613
O   O38       1.0  0.23780  0.57517  0.19618  1.0000 -0.5089778613
O   O39       1.0  0.07517  0.26220  0.94618  1.0000 -0.5089778613
O   O40       1.0  0.92483  0.73780  0.44618  1.0000 -0.5089778613
O   O41       1.0  0.22737  0.11231  0.16246  1.0000 -0.543525634
O   O42       1.0  0.38769  0.72737  0.41246  1.0000 -0.543525634
O   O43       1.0  0.77263  0.88769  0.66246  1.0000 -0.543525634
O   O44       1.0  0.61231  0.27263  0.91246  1.0000 -0.543525634
O   O45       1.0  0.72737  0.38769  0.58754  1.0000 -0.543525634
O   O46       1.0  0.27263  0.61231  0.08754  1.0000 -0.543525634
O   O47       1.0  0.11231  0.22737  0.83754  1.0000 -0.543525634
O   O48       1.0  0.88769  0.77263  0.33754  1.0000 -0.543525634
O   O49       1.0  0.49090  0.34884  0.98477  1.0000 -0.5195599096
O   O50       1.0  0.15116  0.99090  0.23477  1.0000 -0.5195599096
O   O51       1.0  0.50910  0.65116  0.48477  1.0000 -0.5195599096
O   O52       1.0  0.84884  0.00910  0.73477  1.0000 -0.5195599096
O   O53       1.0  0.99090  0.15116  0.76523  1.0000 -0.5195599096
O   O54       1.0  0.00910  0.84884  0.26523  1.0000 -0.5195599096
O   O55       1.0  0.34884  0.49090  0.01523  1.0000 -0.5195599096
O   O56       1.0  0.65116  0.50910  0.51523  1.0000 -0.5195599096
O   O57       1.0  0.43941  0.25650  0.91766  1.0000 -0.5556756747
O   O58       1.0  0.24350  0.93941  0.16766  1.0000 -0.5556756747
O   O59       1.0  0.56059  0.74350  0.41766  1.0000 -0.5556756747
O   O60       1.0  0.75650  0.06059  0.66766  1.0000 -0.5556756747
O   O61       1.0  0.93941  0.24350  0.83234  1.0000 -0.5556756747
O   O62       1.0  0.06059  0.75650  0.33234  1.0000 -0.5556756747
O   O63       1.0  0.25650  0.43941  0.08234  1.0000 -0.5556756747
O   O64       1.0  0.74350  0.56059  0.58234  1.0000 -0.5556756747
