# DDEC6 charges by PACMAN v1.1 (https://github.com/mtap-research/PACMAN-charge/)
data_2011[Y][nan]3[ASR]1
_chemical_formula_sum              "Y12 H192 C264 N4 O116"
_cell_length_a       10.6762
_cell_length_b       28.242
_cell_length_c       34.079
_cell_angle_alpha    90
_cell_angle_beta     90
_cell_angle_gamma    90

_symmetry_space_group_name_H-M    "P 1"
_symmetry_Int_Tables_number       1

loop_
  _symmetry_equiv_pos_as_xyz
  'x, y, z'

loop_
  _atom_site_type_symbol
  _atom_site_label
  _atom_site_symmetry_multiplicity
  _atom_site_fract_x
  _atom_site_fract_y
  _atom_site_fract_z
  _atom_site_occupancy
  _atom_site_charge
Y   Y1        1.0  0.94871  0.19161  0.25000  1.0000 1.8034893679
Y   Y2        1.0  0.05129  0.80839  0.75000  1.0000 1.8034893679
Y   Y3        1.0  0.94871  0.30839  0.75000  1.0000 1.8034893679
Y   Y4        1.0  0.05129  0.69161  0.25000  1.0000 1.8034893679
Y   Y5        1.0  0.12830  0.32601  0.25000  1.0000 1.8144245553
Y   Y6        1.0  0.87170  0.67399  0.75000  1.0000 1.8153421092
Y   Y7        1.0  0.12830  0.17399  0.75000  1.0000 1.8144245553
Y   Y8        1.0  0.87170  0.82601  0.25000  1.0000 1.8144245553
Y   Y9        1.0  0.83207  0.49018  0.75000  1.0000 1.5773369479
Y   Y10       1.0  0.16793  0.50982  0.25000  1.0000 1.5773369479
Y   Y11       1.0  0.83207  0.00982  0.25000  1.0000 1.5773369479
Y   Y12       1.0  0.16793  0.99018  0.75000  1.0000 1.5773369479
H   H1        1.0  0.52010  0.31100  0.04550  1.0000 0.0916451686
H   H2        1.0  0.47990  0.68900  0.54550  1.0000 0.0916451686
H   H3        1.0  0.52010  0.18900  0.95450  1.0000 0.0916451686
H   H4        1.0  0.47990  0.81100  0.45450  1.0000 0.0916451686
H   H5        1.0  0.47990  0.68900  0.95450  1.0000 0.0916451686
H   H6        1.0  0.52010  0.31100  0.45450  1.0000 0.0916451686
H   H7        1.0  0.47990  0.81100  0.04550  1.0000 0.0916451686
H   H8        1.0  0.52010  0.18900  0.54550  1.0000 0.0916451686
H   H9        1.0  0.64250  0.30370  0.01880  1.0000 0.1004568152
H   H10       1.0  0.35750  0.69630  0.51880  1.0000 0.1004568152
H   H11       1.0  0.64250  0.19630  0.98120  1.0000 0.1004568152
H   H12       1.0  0.35750  0.80370  0.48120  1.0000 0.1004568152
H   H13       1.0  0.35750  0.69630  0.98120  1.0000 0.1004568152
H   H14       1.0  0.64250  0.30370  0.48120  1.0000 0.1004568152
H   H15       1.0  0.35750  0.80370  0.01880  1.0000 0.1004568152
H   H16       1.0  0.64250  0.19630  0.51880  1.0000 0.1004568152
H   H17       1.0  0.58350  0.40820  0.95720  1.0000 0.0916451686
H   H18       1.0  0.41650  0.59180  0.45720  1.0000 0.0916451686
H   H19       1.0  0.58350  0.09180  0.04280  1.0000 0.0916451686
H   H20       1.0  0.41650  0.90820  0.54280  1.0000 0.0916451686
H   H21       1.0  0.41650  0.59180  0.04280  1.0000 0.0916451686
H   H22       1.0  0.58350  0.40820  0.54280  1.0000 0.0916451686
H   H23       1.0  0.41650  0.90820  0.95720  1.0000 0.0916451686
H   H24       1.0  0.58350  0.09180  0.45720  1.0000 0.0916451686
H   H25       1.0  0.66450  0.41130  0.99680  1.0000 0.1004568152
H   H26       1.0  0.33550  0.58870  0.49680  1.0000 0.1004568152
H   H27       1.0  0.66450  0.08870  0.00320  1.0000 0.1004568152
H   H28       1.0  0.33550  0.91130  0.50320  1.0000 0.1004568152
H   H29       1.0  0.33550  0.58870  0.00320  1.0000 0.1004568152
H   H30       1.0  0.66450  0.41130  0.50320  1.0000 0.1004568152
H   H31       1.0  0.33550  0.91130  0.99680  1.0000 0.1004568152
H   H32       1.0  0.66450  0.08870  0.49680  1.0000 0.1004568152
H   H33       1.0  0.53200  0.30380  0.95760  1.0000 0.0916451686
H   H34       1.0  0.46800  0.69620  0.45760  1.0000 0.0916451686
H   H35       1.0  0.53200  0.19620  0.04240  1.0000 0.0916451686
H   H36       1.0  0.46800  0.80380  0.54240  1.0000 0.0916451686
H   H37       1.0  0.46800  0.69620  0.04240  1.0000 0.0916451686
H   H38       1.0  0.53200  0.30380  0.54240  1.0000 0.0916451686
H   H39       1.0  0.46800  0.80380  0.95760  1.0000 0.0916451686
H   H40       1.0  0.53200  0.19620  0.45760  1.0000 0.0916451686
H   H41       1.0  0.40680  0.30350  0.98370  1.0000 0.1004568152
H   H42       1.0  0.59320  0.69650  0.48370  1.0000 0.1004568152
H   H43       1.0  0.40680  0.19650  0.01630  1.0000 0.1004568152
H   H44       1.0  0.59320  0.80350  0.51630  1.0000 0.1004568152
H   H45       1.0  0.59320  0.69650  0.01630  1.0000 0.1004568152
H   H46       1.0  0.40680  0.30350  0.51630  1.0000 0.1004568152
H   H47       1.0  0.59320  0.80350  0.98370  1.0000 0.1004568152
H   H48       1.0  0.40680  0.19650  0.48370  1.0000 0.1004568152
H   H49       1.0  0.48020  0.41430  0.03580  1.0000 0.0916451686
H   H50       1.0  0.51980  0.58570  0.53580  1.0000 0.0916451686
H   H51       1.0  0.48020  0.08570  0.96420  1.0000 0.0916451686
H   H52       1.0  0.51980  0.91430  0.46420  1.0000 0.0916451686
H   H53       1.0  0.51980  0.58570  0.96420  1.0000 0.0916451686
H   H54       1.0  0.48020  0.41430  0.46420  1.0000 0.0916451686
H   H55       1.0  0.51980  0.91430  0.03580  1.0000 0.0916451686
H   H56       1.0  0.48020  0.08570  0.53580  1.0000 0.0916451686
H   H57       1.0  0.39870  0.41330  0.99630  1.0000 0.1004568152
H   H58       1.0  0.60130  0.58670  0.49630  1.0000 0.1004568152
H   H59       1.0  0.39870  0.08670  0.00370  1.0000 0.1004568152
H   H60       1.0  0.60130  0.91330  0.50370  1.0000 0.1004568152
H   H61       1.0  0.60130  0.58670  0.00370  1.0000 0.1004568152
H   H62       1.0  0.39870  0.41330  0.50370  1.0000 0.1004568152
H   H63       1.0  0.60130  0.91330  0.99630  1.0000 0.1004568152
H   H64       1.0  0.39870  0.08670  0.49630  1.0000 0.1004568152
H   H65       1.0  0.64030  0.26940  0.08470  1.0000 0.1120854897
H   H66       1.0  0.35970  0.73060  0.58470  1.0000 0.1120854897
H   H67       1.0  0.64030  0.23060  0.91530  1.0000 0.1120854897
H   H68       1.0  0.35970  0.76940  0.41530  1.0000 0.1120854897
H   H69       1.0  0.35970  0.73060  0.91530  1.0000 0.1120854897
H   H70       1.0  0.64030  0.26940  0.41530  1.0000 0.1120854897
H   H71       1.0  0.35970  0.76940  0.08470  1.0000 0.1120854897
H   H72       1.0  0.64030  0.23060  0.58470  1.0000 0.1120854897
H   H73       1.0  0.73260  0.24130  0.14200  1.0000 0.1120854897
H   H74       1.0  0.26740  0.75870  0.64200  1.0000 0.1120854897
H   H75       1.0  0.73260  0.25870  0.85800  1.0000 0.1120854897
H   H76       1.0  0.26740  0.74130  0.35800  1.0000 0.1120854897
H   H77       1.0  0.26740  0.75870  0.85800  1.0000 0.1120854897
H   H78       1.0  0.73260  0.24130  0.35800  1.0000 0.1120854897
H   H79       1.0  0.26740  0.74130  0.14200  1.0000 0.1120854897
H   H80       1.0  0.73260  0.25870  0.64200  1.0000 0.1120854897
H   H81       1.0  0.89350  0.36830  0.16090  1.0000 0.1188262825
H   H82       1.0  0.10650  0.63170  0.66090  1.0000 0.1188262825
H   H83       1.0  0.89350  0.13170  0.83910  1.0000 0.1188262825
H   H84       1.0  0.10650  0.86830  0.33910  1.0000 0.1188262825
H   H85       1.0  0.10650  0.63170  0.83910  1.0000 0.1188262825
H   H86       1.0  0.89350  0.36830  0.33910  1.0000 0.1188262825
H   H87       1.0  0.10650  0.86830  0.16090  1.0000 0.1188262825
H   H88       1.0  0.89350  0.13170  0.66090  1.0000 0.1188262825
H   H89       1.0  0.79290  0.39900  0.10580  1.0000 0.130623283
H   H90       1.0  0.20710  0.60100  0.60580  1.0000 0.130623283
H   H91       1.0  0.79290  0.10100  0.89420  1.0000 0.130623283
H   H92       1.0  0.20710  0.89900  0.39420  1.0000 0.130623283
H   H93       1.0  0.20710  0.60100  0.89420  1.0000 0.130623283
H   H94       1.0  0.79290  0.39900  0.39420  1.0000 0.130623283
H   H95       1.0  0.20710  0.89900  0.10580  1.0000 0.130623283
H   H96       1.0  0.79290  0.10100  0.60580  1.0000 0.130623283
H   H97       1.0  0.83300  0.30640  0.91550  1.0000 0.130623283
H   H98       1.0  0.16700  0.69360  0.41550  1.0000 0.130623283
H   H99       1.0  0.83300  0.19360  0.08450  1.0000 0.130623283
H   H100      1.0  0.16700  0.80640  0.58450  1.0000 0.130623283
H   H101      1.0  0.16700  0.69360  0.08450  1.0000 0.130623283
H   H102      1.0  0.83300  0.30640  0.58450  1.0000 0.130623283
H   H103      1.0  0.16700  0.80640  0.91550  1.0000 0.130623283
H   H104      1.0  0.83300  0.19360  0.41550  1.0000 0.130623283
H   H105      1.0  0.91980  0.32350  0.85390  1.0000 0.1188262825
H   H106      1.0  0.08020  0.67650  0.35390  1.0000 0.1188262825
H   H107      1.0  0.91980  0.17650  0.14610  1.0000 0.1188262825
H   H108      1.0  0.08020  0.82350  0.64610  1.0000 0.1188262825
H   H109      1.0  0.08020  0.67650  0.14610  1.0000 0.1188262825
H   H110      1.0  0.91980  0.32350  0.64610  1.0000 0.1188262825
H   H111      1.0  0.08020  0.82350  0.85390  1.0000 0.1188262825
H   H112      1.0  0.91980  0.17650  0.35390  1.0000 0.1188262825
H   H113      1.0  0.81610  0.45960  0.86470  1.0000 0.1188262825
H   H114      1.0  0.18390  0.54040  0.36470  1.0000 0.1188262825
H   H115      1.0  0.81610  0.04040  0.13530  1.0000 0.1188262825
H   H116      1.0  0.18390  0.95960  0.63530  1.0000 0.1188262825
H   H117      1.0  0.18390  0.54040  0.13530  1.0000 0.1188262825
H   H118      1.0  0.81610  0.45960  0.63530  1.0000 0.1188262825
H   H119      1.0  0.18390  0.95960  0.86470  1.0000 0.1188262825
H   H120      1.0  0.81610  0.04040  0.36470  1.0000 0.1188262825
H   H121      1.0  0.73240  0.44420  0.92690  1.0000 0.1188262825
H   H122      1.0  0.26760  0.55580  0.42690  1.0000 0.1188262825
H   H123      1.0  0.73240  0.05580  0.07310  1.0000 0.1188262825
H   H124      1.0  0.26760  0.94420  0.57310  1.0000 0.1188262825
H   H125      1.0  0.26760  0.55580  0.07310  1.0000 0.1188262825
H   H126      1.0  0.73240  0.44420  0.57310  1.0000 0.1188262825
H   H127      1.0  0.26760  0.94420  0.92690  1.0000 0.1188262825
H   H128      1.0  0.73240  0.05580  0.42690  1.0000 0.1188262825
H   H129      1.0  0.42520  0.26100  0.91840  1.0000 0.1120854897
H   H130      1.0  0.57480  0.73900  0.41840  1.0000 0.1120854897
H   H131      1.0  0.42520  0.23900  0.08160  1.0000 0.1120854897
H   H132      1.0  0.57480  0.76100  0.58160  1.0000 0.1120854897
H   H133      1.0  0.57480  0.73900  0.08160  1.0000 0.1120854897
H   H134      1.0  0.42520  0.26100  0.58160  1.0000 0.1120854897
H   H135      1.0  0.57480  0.76100  0.91840  1.0000 0.1120854897
H   H136      1.0  0.42520  0.23900  0.41840  1.0000 0.1120854897
H   H137      1.0  0.34140  0.22750  0.86160  1.0000 0.1120854897
H   H138      1.0  0.65860  0.77250  0.36160  1.0000 0.1120854897
H   H139      1.0  0.34140  0.27250  0.13840  1.0000 0.1120854897
H   H140      1.0  0.65860  0.72750  0.63840  1.0000 0.1120854897
H   H141      1.0  0.65860  0.77250  0.13840  1.0000 0.1120854897
H   H142      1.0  0.34140  0.22750  0.63840  1.0000 0.1120854897
H   H143      1.0  0.65860  0.72750  0.86160  1.0000 0.1120854897
H   H144      1.0  0.34140  0.27250  0.36160  1.0000 0.1120854897
H   H145      1.0  0.17510  0.35130  0.83460  1.0000 0.1188262825
H   H146      1.0  0.82490  0.64870  0.33460  1.0000 0.1188262825
H   H147      1.0  0.17510  0.14870  0.16540  1.0000 0.1188262825
H   H148      1.0  0.82490  0.85130  0.66540  1.0000 0.1188262825
H   H149      1.0  0.82490  0.64870  0.16540  1.0000 0.1188262825
H   H150      1.0  0.17510  0.35130  0.66540  1.0000 0.1188262825
H   H151      1.0  0.82490  0.85130  0.83460  1.0000 0.1188262825
H   H152      1.0  0.17510  0.14870  0.33460  1.0000 0.1188262825
H   H153      1.0  0.26750  0.38660  0.88870  1.0000 0.1360807935
H   H154      1.0  0.73250  0.61340  0.38870  1.0000 0.1360807935
H   H155      1.0  0.26750  0.11340  0.11130  1.0000 0.1360807935
H   H156      1.0  0.73250  0.88660  0.61130  1.0000 0.1360807935
H   H157      1.0  0.73250  0.61340  0.11130  1.0000 0.1360807935
H   H158      1.0  0.26750  0.38660  0.61130  1.0000 0.1360807935
H   H159      1.0  0.73250  0.88660  0.88870  1.0000 0.1360807935
H   H160      1.0  0.26750  0.11340  0.38870  1.0000 0.1360807935
H   H161      1.0  0.20460  0.32240  0.08170  1.0000 0.130623283
H   H162      1.0  0.79540  0.67760  0.58170  1.0000 0.130623283
H   H163      1.0  0.20460  0.17760  0.91830  1.0000 0.130623283
H   H164      1.0  0.79540  0.82240  0.41830  1.0000 0.130623283
H   H165      1.0  0.79540  0.67760  0.91830  1.0000 0.130623283
H   H166      1.0  0.20460  0.32240  0.41830  1.0000 0.130623283
H   H167      1.0  0.79540  0.82240  0.08170  1.0000 0.130623283
H   H168      1.0  0.20460  0.17760  0.58170  1.0000 0.130623283
H   H169      1.0  0.13250  0.34130  0.14410  1.0000 0.1120854897
H   H170      1.0  0.86750  0.65870  0.64410  1.0000 0.1120854897
H   H171      1.0  0.13250  0.15870  0.85590  1.0000 0.1120854897
H   H172      1.0  0.86750  0.84130  0.35590  1.0000 0.1120854897
H   H173      1.0  0.86750  0.65870  0.85590  1.0000 0.1120854897
H   H174      1.0  0.13250  0.34130  0.35590  1.0000 0.1120854897
H   H175      1.0  0.86750  0.84130  0.14410  1.0000 0.1120854897
H   H176      1.0  0.13250  0.15870  0.64410  1.0000 0.1120854897
H   H177      1.0  0.31050  0.46740  0.13780  1.0000 0.1120854897
H   H178      1.0  0.68950  0.53260  0.63780  1.0000 0.1120854897
H   H179      1.0  0.31050  0.03260  0.86220  1.0000 0.1120854897
H   H180      1.0  0.68950  0.96740  0.36220  1.0000 0.1120854897
H   H181      1.0  0.68950  0.53260  0.86220  1.0000 0.1120854897
H   H182      1.0  0.31050  0.46740  0.36220  1.0000 0.1120854897
H   H183      1.0  0.68950  0.96740  0.13780  1.0000 0.1120854897
H   H184      1.0  0.31050  0.03260  0.63780  1.0000 0.1120854897
H   H185      1.0  0.38070  0.44900  0.07440  1.0000 0.1188262825
H   H186      1.0  0.61930  0.55100  0.57440  1.0000 0.1188262825
H   H187      1.0  0.38070  0.05100  0.92560  1.0000 0.1188262825
H   H188      1.0  0.61930  0.94900  0.42560  1.0000 0.1188262825
H   H189      1.0  0.61930  0.55100  0.92560  1.0000 0.1188262825
H   H190      1.0  0.38070  0.44900  0.42560  1.0000 0.1188262825
H   H191      1.0  0.61930  0.94900  0.07440  1.0000 0.1188262825
H   H192      1.0  0.38070  0.05100  0.57440  1.0000 0.1188262825
C   C1        1.0  0.52860  0.35850  0.99892  1.0000 0.0651759761
C   C2        1.0  0.47140  0.64150  0.49892  1.0000 0.0646956148
C   C3        1.0  0.52860  0.14150  0.00108  1.0000 0.0651759761
C   C4        1.0  0.47140  0.85850  0.50108  1.0000 0.0646956148
C   C5        1.0  0.47140  0.64150  0.00108  1.0000 0.0646956148
C   C6        1.0  0.52860  0.35850  0.50108  1.0000 0.0646956148
C   C7        1.0  0.47140  0.85850  0.99892  1.0000 0.0646956148
C   C8        1.0  0.52860  0.14150  0.49892  1.0000 0.0651759761
C   C9        1.0  0.58660  0.32768  0.03081  1.0000 -0.1007955325
C   C10       1.0  0.41340  0.67232  0.53081  1.0000 -0.1007955325
C   C11       1.0  0.58660  0.17232  0.96919  1.0000 -0.1007955325
C   C12       1.0  0.41340  0.82768  0.46919  1.0000 -0.1007955325
C   C13       1.0  0.41340  0.67232  0.96919  1.0000 -0.1007955325
C   C14       1.0  0.58660  0.32768  0.46919  1.0000 -0.1007955325
C   C15       1.0  0.41340  0.82768  0.03081  1.0000 -0.1007955325
C   C16       1.0  0.58660  0.17232  0.53081  1.0000 -0.1007955325
C   C17       1.0  0.62490  0.38927  0.97789  1.0000 -0.1007955325
C   C18       1.0  0.37510  0.61073  0.47789  1.0000 -0.1007955325
C   C19       1.0  0.62490  0.11073  0.02211  1.0000 -0.1007955325
C   C20       1.0  0.37510  0.88927  0.52211  1.0000 -0.1007955325
C   C21       1.0  0.37510  0.61073  0.02211  1.0000 -0.1007955325
C   C22       1.0  0.62490  0.38927  0.52211  1.0000 -0.1007955325
C   C23       1.0  0.37510  0.88927  0.97789  1.0000 -0.1007955325
C   C24       1.0  0.62490  0.11073  0.47789  1.0000 -0.1007955325
C   C25       1.0  0.46730  0.32415  0.96987  1.0000 -0.1007955325
C   C26       1.0  0.53270  0.67585  0.46987  1.0000 -0.1007955325
C   C27       1.0  0.46730  0.17585  0.03013  1.0000 -0.1007955325
C   C28       1.0  0.53270  0.82415  0.53013  1.0000 -0.1007955325
C   C29       1.0  0.53270  0.67585  0.03013  1.0000 -0.1007955325
C   C30       1.0  0.46730  0.32415  0.53013  1.0000 -0.1007955325
C   C31       1.0  0.53270  0.82415  0.96987  1.0000 -0.1007955325
C   C32       1.0  0.46730  0.17585  0.46987  1.0000 -0.1007955325
C   C33       1.0  0.43610  0.39332  0.01704  1.0000 -0.1007955325
C   C34       1.0  0.56390  0.60668  0.51704  1.0000 -0.1007955325
C   C35       1.0  0.43610  0.10668  0.98296  1.0000 -0.1007955325
C   C36       1.0  0.56390  0.89332  0.48296  1.0000 -0.1007955325
C   C37       1.0  0.56390  0.60668  0.98296  1.0000 -0.1007955325
C   C38       1.0  0.43610  0.39332  0.48296  1.0000 -0.1007955325
C   C39       1.0  0.56390  0.89332  0.01704  1.0000 -0.1007955325
C   C40       1.0  0.43610  0.10668  0.51704  1.0000 -0.1007955325
C   C41       1.0  0.70780  0.33658  0.08959  1.0000 0.252577432
C   C42       1.0  0.29220  0.66342  0.58959  1.0000 0.252577432
C   C43       1.0  0.70780  0.16342  0.91041  1.0000 0.252577432
C   C44       1.0  0.29220  0.83658  0.41041  1.0000 0.252577432
C   C45       1.0  0.29220  0.66342  0.91041  1.0000 0.252577432
C   C46       1.0  0.70780  0.33658  0.41041  1.0000 0.252577432
C   C47       1.0  0.29220  0.83658  0.08959  1.0000 0.252577432
C   C48       1.0  0.70780  0.16342  0.58959  1.0000 0.252577432
C   C49       1.0  0.69040  0.28978  0.10037  1.0000 -0.2500211111
C   C50       1.0  0.30960  0.71022  0.60037  1.0000 -0.2500211111
C   C51       1.0  0.69040  0.21022  0.89963  1.0000 -0.2500211111
C   C52       1.0  0.30960  0.78978  0.39963  1.0000 -0.2500211111
C   C53       1.0  0.30960  0.71022  0.89963  1.0000 -0.2500211111
C   C54       1.0  0.69040  0.28978  0.39963  1.0000 -0.2500211111
C   C55       1.0  0.30960  0.78978  0.10037  1.0000 -0.2500211111
C   C56       1.0  0.69040  0.21022  0.60037  1.0000 -0.2500211111
C   C57       1.0  0.74660  0.27319  0.13414  1.0000 -0.0878221103
C   C58       1.0  0.25340  0.72681  0.63414  1.0000 -0.0878221103
C   C59       1.0  0.74660  0.22681  0.86586  1.0000 -0.0878221103
C   C60       1.0  0.25340  0.77319  0.36586  1.0000 -0.0878221103
C   C61       1.0  0.25340  0.72681  0.86586  1.0000 -0.0878221103
C   C62       1.0  0.74660  0.27319  0.36586  1.0000 -0.0878221103
C   C63       1.0  0.25340  0.77319  0.13414  1.0000 -0.0878221103
C   C64       1.0  0.74660  0.22681  0.63414  1.0000 -0.0878221103
C   C65       1.0  0.82270  0.30178  0.15683  1.0000 -0.0582800211
C   C66       1.0  0.17730  0.69822  0.65683  1.0000 -0.0582800211
C   C67       1.0  0.82270  0.19822  0.84317  1.0000 -0.0582800211
C   C68       1.0  0.17730  0.80178  0.34317  1.0000 -0.0582800211
C   C69       1.0  0.17730  0.69822  0.84317  1.0000 -0.0582800211
C   C70       1.0  0.82270  0.30178  0.34317  1.0000 -0.0582800211
C   C71       1.0  0.17730  0.80178  0.15683  1.0000 -0.0582800211
C   C72       1.0  0.82270  0.19822  0.65683  1.0000 -0.0582800211
C   C73       1.0  0.84050  0.34845  0.14564  1.0000 -0.0878221103
C   C74       1.0  0.15950  0.65155  0.64564  1.0000 -0.0878221103
C   C75       1.0  0.84050  0.15155  0.85436  1.0000 -0.0878221103
C   C76       1.0  0.15950  0.84845  0.35436  1.0000 -0.0822762553
C   C77       1.0  0.15950  0.65155  0.85436  1.0000 -0.0878221103
C   C78       1.0  0.84050  0.34845  0.35436  1.0000 -0.0878221103
C   C79       1.0  0.15950  0.84845  0.14564  1.0000 -0.0822762553
C   C80       1.0  0.84050  0.15155  0.64564  1.0000 -0.0878221103
C   C81       1.0  0.78250  0.36663  0.11272  1.0000 -0.2201751857
C   C82       1.0  0.21750  0.63337  0.61272  1.0000 -0.2201751857
C   C83       1.0  0.78250  0.13337  0.88728  1.0000 -0.2201751857
C   C84       1.0  0.21750  0.86663  0.38728  1.0000 -0.2201751857
C   C85       1.0  0.21750  0.63337  0.88728  1.0000 -0.2201751857
C   C86       1.0  0.78250  0.36663  0.38728  1.0000 -0.2201751857
C   C87       1.0  0.21750  0.86663  0.11272  1.0000 -0.2201751857
C   C88       1.0  0.78250  0.13337  0.61272  1.0000 -0.2201751857
C   C89       1.0  0.88600  0.28153  0.19295  1.0000 0.6332153624
C   C90       1.0  0.11400  0.71847  0.69295  1.0000 0.6401925147
C   C91       1.0  0.88600  0.21847  0.80705  1.0000 0.6332153624
C   C92       1.0  0.11400  0.78153  0.30705  1.0000 0.6401925147
C   C93       1.0  0.11400  0.71847  0.80705  1.0000 0.6332153624
C   C94       1.0  0.88600  0.28153  0.30705  1.0000 0.6332153624
C   C95       1.0  0.11400  0.78153  0.19295  1.0000 0.6332153624
C   C96       1.0  0.88600  0.21847  0.69295  1.0000 0.6401925147
C   C97       1.0  0.76930  0.37329  0.92597  1.0000 0.2560978758
C   C98       1.0  0.23070  0.62671  0.42597  1.0000 0.2560978758
C   C99       1.0  0.76930  0.12671  0.07403  1.0000 0.2560978758
C   C100      1.0  0.23070  0.87329  0.57403  1.0000 0.2560978758
C   C101      1.0  0.23070  0.62671  0.07403  1.0000 0.2560978758
C   C102      1.0  0.76930  0.37329  0.57403  1.0000 0.2560978758
C   C103      1.0  0.23070  0.87329  0.92597  1.0000 0.2560978758
C   C104      1.0  0.76930  0.12671  0.42597  1.0000 0.2560978758
C   C105      1.0  0.82770  0.33752  0.90498  1.0000 -0.2201751857
C   C106      1.0  0.17230  0.66248  0.40498  1.0000 -0.2201751857
C   C107      1.0  0.82770  0.16248  0.09502  1.0000 -0.2201751857
C   C108      1.0  0.17230  0.83752  0.59502  1.0000 -0.2201751857
C   C109      1.0  0.17230  0.66248  0.09502  1.0000 -0.2201751857
C   C110      1.0  0.82770  0.33752  0.59502  1.0000 -0.2201751857
C   C111      1.0  0.17230  0.83752  0.90498  1.0000 -0.2201751857
C   C112      1.0  0.82770  0.16248  0.40498  1.0000 -0.2201751857
C   C113      1.0  0.87860  0.34773  0.86826  1.0000 -0.1007955325
C   C114      1.0  0.12140  0.65227  0.36826  1.0000 -0.1007955325
C   C115      1.0  0.87860  0.15227  0.13174  1.0000 -0.1007955325
C   C116      1.0  0.12140  0.84773  0.63174  1.0000 -0.1007955325
C   C117      1.0  0.12140  0.65227  0.13174  1.0000 -0.1007955325
C   C118      1.0  0.87860  0.34773  0.63174  1.0000 -0.1007955325
C   C119      1.0  0.12140  0.84773  0.86826  1.0000 -0.1007955325
C   C120      1.0  0.87860  0.15227  0.36826  1.0000 -0.1007955325
C   C121      1.0  0.86980  0.39243  0.85261  1.0000 -0.0688246886
C   C122      1.0  0.13020  0.60757  0.35261  1.0000 -0.0688246886
C   C123      1.0  0.86980  0.10757  0.14739  1.0000 -0.0688246886
C   C124      1.0  0.13020  0.89243  0.64739  1.0000 -0.0688246886
C   C125      1.0  0.13020  0.60757  0.14739  1.0000 -0.0688246886
C   C126      1.0  0.86980  0.39243  0.64739  1.0000 -0.0688246886
C   C127      1.0  0.13020  0.89243  0.85261  1.0000 -0.0688246886
C   C128      1.0  0.86980  0.10757  0.35261  1.0000 -0.0688246886
C   C129      1.0  0.81770  0.42827  0.87478  1.0000 -0.0822762553
C   C130      1.0  0.18230  0.57173  0.37478  1.0000 -0.0822762553
C   C131      1.0  0.81770  0.07173  0.12522  1.0000 -0.0822762553
C   C132      1.0  0.18230  0.92827  0.62522  1.0000 -0.0822762553
C   C133      1.0  0.18230  0.57173  0.12522  1.0000 -0.0822762553
C   C134      1.0  0.81770  0.42827  0.62522  1.0000 -0.0822762553
C   C135      1.0  0.18230  0.92827  0.87478  1.0000 -0.0822762553
C   C136      1.0  0.81770  0.07173  0.37478  1.0000 -0.0822762553
C   C137      1.0  0.76740  0.41931  0.91176  1.0000 -0.2500211111
C   C138      1.0  0.23260  0.58069  0.41176  1.0000 -0.2500211111
C   C139      1.0  0.76740  0.08069  0.08824  1.0000 -0.2500211111
C   C140      1.0  0.23260  0.91931  0.58824  1.0000 -0.2500211111
C   C141      1.0  0.23260  0.58069  0.08824  1.0000 -0.2500211111
C   C142      1.0  0.76740  0.41931  0.58824  1.0000 -0.2500211111
C   C143      1.0  0.23260  0.91931  0.91176  1.0000 -0.2500211111
C   C144      1.0  0.76740  0.08069  0.41176  1.0000 -0.2500211111
C   C145      1.0  0.91140  0.40173  0.81125  1.0000 0.6401925147
C   C146      1.0  0.08860  0.59827  0.31125  1.0000 0.6401925147
C   C147      1.0  0.91140  0.09827  0.18875  1.0000 0.6401925147
C   C148      1.0  0.08860  0.90173  0.68875  1.0000 0.6401925147
C   C149      1.0  0.08860  0.59827  0.18875  1.0000 0.6401925147
C   C150      1.0  0.91140  0.40173  0.68875  1.0000 0.6401925147
C   C151      1.0  0.08860  0.90173  0.81125  1.0000 0.6401925147
C   C152      1.0  0.91140  0.09827  0.31125  1.0000 0.6401925147
C   C153      1.0  0.35670  0.32735  0.90879  1.0000 0.252577432
C   C154      1.0  0.64330  0.67265  0.40879  1.0000 0.252577432
C   C155      1.0  0.35670  0.17265  0.09121  1.0000 0.252577432
C   C156      1.0  0.64330  0.82735  0.59121  1.0000 0.252577432
C   C157      1.0  0.64330  0.67265  0.09121  1.0000 0.252577432
C   C158      1.0  0.35670  0.32735  0.59121  1.0000 0.252577432
C   C159      1.0  0.64330  0.82735  0.90879  1.0000 0.252577432
C   C160      1.0  0.35670  0.17265  0.40879  1.0000 0.252577432
C   C161      1.0  0.37660  0.27977  0.90094  1.0000 -0.2586419177
C   C162      1.0  0.62340  0.72023  0.40094  1.0000 -0.2586419177
C   C163      1.0  0.37660  0.22023  0.09906  1.0000 -0.2586419177
C   C164      1.0  0.62340  0.77977  0.59906  1.0000 -0.2586419177
C   C165      1.0  0.62340  0.72023  0.09906  1.0000 -0.2586419177
C   C166      1.0  0.37660  0.27977  0.59906  1.0000 -0.2586419177
C   C167      1.0  0.62340  0.77977  0.90094  1.0000 -0.2586419177
C   C168      1.0  0.37660  0.22023  0.40094  1.0000 -0.2586419177
C   C169      1.0  0.32490  0.25978  0.86737  1.0000 -0.0878221103
C   C170      1.0  0.67510  0.74022  0.36737  1.0000 -0.0878221103
C   C171      1.0  0.32490  0.24022  0.13263  1.0000 -0.0878221103
C   C172      1.0  0.67510  0.75978  0.63263  1.0000 -0.0878221103
C   C173      1.0  0.67510  0.74022  0.13263  1.0000 -0.0878221103
C   C174      1.0  0.32490  0.25978  0.63263  1.0000 -0.0878221103
C   C175      1.0  0.67510  0.75978  0.86737  1.0000 -0.0878221103
C   C176      1.0  0.32490  0.24022  0.36737  1.0000 -0.0878221103
C   C177      1.0  0.25050  0.28554  0.84227  1.0000 -0.0688246886
C   C178      1.0  0.74950  0.71446  0.34227  1.0000 -0.0688246886
C   C179      1.0  0.25050  0.21446  0.15773  1.0000 -0.0582800211
C   C180      1.0  0.74950  0.78554  0.65773  1.0000 -0.0688246886
C   C181      1.0  0.74950  0.71446  0.15773  1.0000 -0.0582800211
C   C182      1.0  0.25050  0.28554  0.65773  1.0000 -0.0688246886
C   C183      1.0  0.74950  0.78554  0.84227  1.0000 -0.0688246886
C   C184      1.0  0.25050  0.21446  0.34227  1.0000 -0.0688246886
C   C185      1.0  0.22810  0.33312  0.85121  1.0000 -0.0822762553
C   C186      1.0  0.77190  0.66688  0.35121  1.0000 -0.0822762553
C   C187      1.0  0.22810  0.16688  0.14879  1.0000 -0.0822762553
C   C188      1.0  0.77190  0.83312  0.64879  1.0000 -0.0822762553
C   C189      1.0  0.77190  0.66688  0.14879  1.0000 -0.0822762553
C   C190      1.0  0.22810  0.33312  0.64879  1.0000 -0.0822762553
C   C191      1.0  0.77190  0.83312  0.85121  1.0000 -0.0822762553
C   C192      1.0  0.22810  0.16688  0.35121  1.0000 -0.0822762553
C   C193      1.0  0.28160  0.35401  0.88353  1.0000 -0.2201751857
C   C194      1.0  0.71840  0.64599  0.38353  1.0000 -0.2201751857
C   C195      1.0  0.28160  0.14599  0.11647  1.0000 -0.2201751857
C   C196      1.0  0.71840  0.85401  0.61647  1.0000 -0.2201751857
C   C197      1.0  0.71840  0.64599  0.11647  1.0000 -0.2201751857
C   C198      1.0  0.28160  0.35401  0.61647  1.0000 -0.2201751857
C   C199      1.0  0.71840  0.85401  0.88353  1.0000 -0.2201751857
C   C200      1.0  0.28160  0.14599  0.38353  1.0000 -0.2201751857
C   C201      1.0  0.19030  0.26338  0.80697  1.0000 0.6332153624
C   C202      1.0  0.80970  0.73662  0.30697  1.0000 0.6332153624
C   C203      1.0  0.19030  0.23662  0.19303  1.0000 0.6332153624
C   C204      1.0  0.80970  0.76338  0.69303  1.0000 0.6332153624
C   C205      1.0  0.80970  0.73662  0.19303  1.0000 0.6332153624
C   C206      1.0  0.19030  0.26338  0.69303  1.0000 0.6332153624
C   C207      1.0  0.80970  0.76338  0.80697  1.0000 0.6332153624
C   C208      1.0  0.19030  0.23662  0.30697  1.0000 0.6332153624
C   C209      1.0  0.30160  0.38338  0.07275  1.0000 0.252577432
C   C210      1.0  0.69840  0.61662  0.57275  1.0000 0.252577432
C   C211      1.0  0.30160  0.11662  0.92725  1.0000 0.252577432
C   C212      1.0  0.69840  0.88338  0.42725  1.0000 0.2560978758
C   C213      1.0  0.69840  0.61662  0.92725  1.0000 0.252577432
C   C214      1.0  0.30160  0.38338  0.42725  1.0000 0.252577432
C   C215      1.0  0.69840  0.88338  0.07275  1.0000 0.2560978758
C   C216      1.0  0.30160  0.11662  0.57275  1.0000 0.252577432
C   C217      1.0  0.22680  0.35187  0.09324  1.0000 -0.2201751857
C   C218      1.0  0.77320  0.64813  0.59324  1.0000 -0.2201751857
C   C219      1.0  0.22680  0.14813  0.90676  1.0000 -0.2201751857
C   C220      1.0  0.77320  0.85187  0.40676  1.0000 -0.2201751857
C   C221      1.0  0.77320  0.64813  0.90676  1.0000 -0.2201751857
C   C222      1.0  0.22680  0.35187  0.40676  1.0000 -0.2201751857
C   C223      1.0  0.77320  0.85187  0.09324  1.0000 -0.2201751857
C   C224      1.0  0.22680  0.14813  0.59324  1.0000 -0.2201751857
C   C225      1.0  0.18430  0.36295  0.13034  1.0000 -0.0878221103
C   C226      1.0  0.81570  0.63705  0.63034  1.0000 -0.0878221103
C   C227      1.0  0.18430  0.13705  0.86966  1.0000 -0.0878221103
C   C228      1.0  0.81570  0.86295  0.36966  1.0000 -0.0878221103
C   C229      1.0  0.81570  0.63705  0.86966  1.0000 -0.0878221103
C   C230      1.0  0.18430  0.36295  0.36966  1.0000 -0.0878221103
C   C231      1.0  0.81570  0.86295  0.13034  1.0000 -0.0878221103
C   C232      1.0  0.18430  0.13705  0.63034  1.0000 -0.0878221103
C   C233      1.0  0.21730  0.40588  0.14763  1.0000 -0.0688246886
C   C234      1.0  0.78270  0.59412  0.64763  1.0000 -0.0688246886
C   C235      1.0  0.21730  0.09412  0.85237  1.0000 -0.0688246886
C   C236      1.0  0.78270  0.90588  0.35237  1.0000 -0.0688246886
C   C237      1.0  0.78270  0.59412  0.85237  1.0000 -0.0688246886
C   C238      1.0  0.21730  0.40588  0.35237  1.0000 -0.0688246886
C   C239      1.0  0.78270  0.90588  0.14763  1.0000 -0.0688246886
C   C240      1.0  0.21730  0.09412  0.64763  1.0000 -0.0688246886
C   C241      1.0  0.28950  0.43768  0.12647  1.0000 -0.0878221103
C   C242      1.0  0.71050  0.56232  0.62647  1.0000 -0.0878221103
C   C243      1.0  0.28950  0.06232  0.87353  1.0000 -0.0878221103
C   C244      1.0  0.71050  0.93768  0.37353  1.0000 -0.0878221103
C   C245      1.0  0.71050  0.56232  0.87353  1.0000 -0.0878221103
C   C246      1.0  0.28950  0.43768  0.37353  1.0000 -0.0878221103
C   C247      1.0  0.71050  0.93768  0.12647  1.0000 -0.0878221103
C   C248      1.0  0.28950  0.06232  0.62647  1.0000 -0.0878221103
C   C249      1.0  0.33190  0.42690  0.08880  1.0000 -0.2500211111
C   C250      1.0  0.66810  0.57310  0.58880  1.0000 -0.2500211111
C   C251      1.0  0.33190  0.07310  0.91120  1.0000 -0.2500211111
C   C252      1.0  0.66810  0.92690  0.41120  1.0000 -0.2500211111
C   C253      1.0  0.66810  0.57310  0.91120  1.0000 -0.2500211111
C   C254      1.0  0.33190  0.42690  0.41120  1.0000 -0.2500211111
C   C255      1.0  0.66810  0.92690  0.08880  1.0000 -0.2500211111
C   C256      1.0  0.33190  0.07310  0.58880  1.0000 -0.2500211111
C   C257      1.0  0.17460  0.41779  0.18841  1.0000 0.6401925147
C   C258      1.0  0.82540  0.58221  0.68841  1.0000 0.6401925147
C   C259      1.0  0.17460  0.08221  0.81159  1.0000 0.6401925147
C   C260      1.0  0.82540  0.91779  0.31159  1.0000 0.6401925147
C   C261      1.0  0.82540  0.58221  0.81159  1.0000 0.6401925147
C   C262      1.0  0.17460  0.41779  0.31159  1.0000 0.6401925147
C   C263      1.0  0.82540  0.91779  0.18841  1.0000 0.6401925147
C   C264      1.0  0.17460  0.08221  0.68841  1.0000 0.6401925147
N   N1        1.0  0.59260  0.45950  0.75000  1.0000 0.3502946156
N   N2        1.0  0.40740  0.54050  0.25000  1.0000 0.3502946156
N   N3        1.0  0.59260  0.04050  0.25000  1.0000 0.3502946156
N   N4        1.0  0.40740  0.95950  0.75000  1.0000 0.3502946156
O   O1        1.0  0.65640  0.35741  0.05666  1.0000 -0.1875702803
O   O2        1.0  0.34360  0.64259  0.55666  1.0000 -0.1875702803
O   O3        1.0  0.65640  0.14259  0.94334  1.0000 -0.1875702803
O   O4        1.0  0.34360  0.85741  0.44334  1.0000 -0.1875702803
O   O5        1.0  0.34360  0.64259  0.94334  1.0000 -0.1875702803
O   O6        1.0  0.65640  0.35741  0.44334  1.0000 -0.1875702803
O   O7        1.0  0.34360  0.85741  0.05666  1.0000 -0.1875702803
O   O8        1.0  0.65640  0.14259  0.55666  1.0000 -0.1875702803
O   O9        1.0  0.85610  0.24089  0.20445  1.0000 -0.6278306636
O   O10       1.0  0.14390  0.75911  0.70445  1.0000 -0.6278306636
O   O11       1.0  0.85610  0.25911  0.79555  1.0000 -0.6278306636
O   O12       1.0  0.14390  0.74089  0.29555  1.0000 -0.6278306636
O   O13       1.0  0.14390  0.75911  0.79555  1.0000 -0.6278306636
O   O14       1.0  0.85610  0.24089  0.29555  1.0000 -0.6278306636
O   O15       1.0  0.14390  0.74089  0.20445  1.0000 -0.6278306636
O   O16       1.0  0.85610  0.25911  0.70445  1.0000 -0.6278306636
O   O17       1.0  0.96610  0.30789  0.20935  1.0000 -0.636278708
O   O18       1.0  0.03390  0.69211  0.70935  1.0000 -0.636278708
O   O19       1.0  0.96610  0.19211  0.79065  1.0000 -0.636278708
O   O20       1.0  0.03390  0.80789  0.29065  1.0000 -0.636278708
O   O21       1.0  0.03390  0.69211  0.79065  1.0000 -0.636278708
O   O22       1.0  0.96610  0.30789  0.29065  1.0000 -0.636278708
O   O23       1.0  0.03390  0.80789  0.20935  1.0000 -0.636278708
O   O24       1.0  0.96610  0.19211  0.70935  1.0000 -0.636278708
O   O25       1.0  0.71790  0.35930  0.96082  1.0000 -0.1875702803
O   O26       1.0  0.28210  0.64070  0.46082  1.0000 -0.1875702803
O   O27       1.0  0.71790  0.14070  0.03918  1.0000 -0.181232926
O   O28       1.0  0.28210  0.85930  0.53918  1.0000 -0.181232926
O   O29       1.0  0.28210  0.64070  0.03918  1.0000 -0.1875702803
O   O30       1.0  0.71790  0.35930  0.53918  1.0000 -0.1875702803
O   O31       1.0  0.28210  0.85930  0.96082  1.0000 -0.181232926
O   O32       1.0  0.71790  0.14070  0.46082  1.0000 -0.181232926
O   O33       1.0  0.96420  0.36847  0.79382  1.0000 -0.6184620974
O   O34       1.0  0.03580  0.63153  0.29382  1.0000 -0.6184620974
O   O35       1.0  0.96420  0.13153  0.20618  1.0000 -0.6184620974
O   O36       1.0  0.03580  0.86847  0.70618  1.0000 -0.6184620974
O   O37       1.0  0.03580  0.63153  0.20618  1.0000 -0.6184620974
O   O38       1.0  0.96420  0.36847  0.70618  1.0000 -0.6184620974
O   O39       1.0  0.03580  0.86847  0.79382  1.0000 -0.6184620974
O   O40       1.0  0.96420  0.13153  0.29382  1.0000 -0.6184620974
O   O41       1.0  0.89500  0.44203  0.79740  1.0000 -0.6040583741
O   O42       1.0  0.10500  0.55797  0.29740  1.0000 -0.6040583741
O   O43       1.0  0.89500  0.05797  0.20260  1.0000 -0.6040583741
O   O44       1.0  0.10500  0.94203  0.70260  1.0000 -0.6040583741
O   O45       1.0  0.10500  0.55797  0.20260  1.0000 -0.6040583741
O   O46       1.0  0.89500  0.44203  0.70260  1.0000 -0.6040583741
O   O47       1.0  0.10500  0.94203  0.79740  1.0000 -0.6040583741
O   O48       1.0  0.89500  0.05797  0.29740  1.0000 -0.6040583741
O   O49       1.0  0.40410  0.35121  0.94038  1.0000 -0.1875702803
O   O50       1.0  0.59590  0.64879  0.44038  1.0000 -0.1875702803
O   O51       1.0  0.40410  0.14879  0.05962  1.0000 -0.1875702803
O   O52       1.0  0.59590  0.85121  0.55962  1.0000 -0.1875702803
O   O53       1.0  0.59590  0.64879  0.05962  1.0000 -0.1875702803
O   O54       1.0  0.40410  0.35121  0.55962  1.0000 -0.1875702803
O   O55       1.0  0.59590  0.85121  0.94038  1.0000 -0.1875702803
O   O56       1.0  0.40410  0.14879  0.44038  1.0000 -0.1875702803
O   O57       1.0  0.10920  0.28770  0.78952  1.0000 -0.6278306636
O   O58       1.0  0.89080  0.71230  0.28952  1.0000 -0.6278306636
O   O59       1.0  0.10920  0.21230  0.21048  1.0000 -0.6278306636
O   O60       1.0  0.89080  0.78770  0.71048  1.0000 -0.6278306636
O   O61       1.0  0.89080  0.71230  0.21048  1.0000 -0.6278306636
O   O62       1.0  0.10920  0.28770  0.71048  1.0000 -0.6278306636
O   O63       1.0  0.89080  0.78770  0.78952  1.0000 -0.6278306636
O   O64       1.0  0.10920  0.21230  0.28952  1.0000 -0.6278306636
O   O65       1.0  0.22320  0.22283  0.79629  1.0000 -0.6184620974
O   O66       1.0  0.77680  0.77717  0.29629  1.0000 -0.6184620974
O   O67       1.0  0.22320  0.27717  0.20371  1.0000 -0.6184620974
O   O68       1.0  0.77680  0.72283  0.70371  1.0000 -0.6184620974
O   O69       1.0  0.77680  0.77717  0.20371  1.0000 -0.6184620974
O   O70       1.0  0.22320  0.22283  0.70371  1.0000 -0.6184620974
O   O71       1.0  0.77680  0.72283  0.79629  1.0000 -0.6184620974
O   O72       1.0  0.22320  0.27717  0.29629  1.0000 -0.6184620974
O   O73       1.0  0.34000  0.36759  0.03691  1.0000 -0.181232926
O   O74       1.0  0.66000  0.63241  0.53691  1.0000 -0.181232926
O   O75       1.0  0.34000  0.13241  0.96309  1.0000 -0.181232926
O   O76       1.0  0.66000  0.86759  0.46309  1.0000 -0.181232926
O   O77       1.0  0.66000  0.63241  0.96309  1.0000 -0.181232926
O   O78       1.0  0.34000  0.36759  0.46309  1.0000 -0.181232926
O   O79       1.0  0.66000  0.86759  0.03691  1.0000 -0.181232926
O   O80       1.0  0.34000  0.13241  0.53691  1.0000 -0.181232926
O   O81       1.0  0.20080  0.45826  0.20172  1.0000 -0.6278306636
O   O82       1.0  0.79920  0.54174  0.70172  1.0000 -0.6278306636
O   O83       1.0  0.20080  0.04174  0.79828  1.0000 -0.6278306636
O   O84       1.0  0.79920  0.95826  0.29828  1.0000 -0.6278306636
O   O85       1.0  0.79920  0.54174  0.79828  1.0000 -0.6278306636
O   O86       1.0  0.20080  0.45826  0.29828  1.0000 -0.6278306636
O   O87       1.0  0.79920  0.95826  0.20172  1.0000 -0.6278306636
O   O88       1.0  0.20080  0.04174  0.70172  1.0000 -0.6278306636
O   O89       1.0  0.11670  0.38687  0.20677  1.0000 -0.6116759074
O   O90       1.0  0.88330  0.61313  0.70677  1.0000 -0.6116759074
O   O91       1.0  0.11670  0.11313  0.79323  1.0000 -0.6116759074
O   O92       1.0  0.88330  0.88687  0.29323  1.0000 -0.6116759074
O   O93       1.0  0.88330  0.61313  0.79323  1.0000 -0.6116759074
O   O94       1.0  0.11670  0.38687  0.29323  1.0000 -0.6116759074
O   O95       1.0  0.88330  0.88687  0.20677  1.0000 -0.6116759074
O   O96       1.0  0.11670  0.11313  0.70677  1.0000 -0.6116759074
O   O97       1.0  0.61110  0.48920  0.72950  1.0000 0.0032445456
O   O98       1.0  0.38890  0.51080  0.22950  1.0000 0.0032445456
O   O99       1.0  0.61110  0.01080  0.27050  1.0000 0.014507107
O   O100      1.0  0.38890  0.98920  0.77050  1.0000 0.0032445456
O   O101      1.0  0.38890  0.51080  0.27050  1.0000 0.0032445456
O   O102      1.0  0.61110  0.48920  0.77050  1.0000 0.0032445456
O   O103      1.0  0.38890  0.98920  0.72950  1.0000 0.0032445456
O   O104      1.0  0.61110  0.01080  0.22950  1.0000 0.014507107
O   O105      1.0  0.66270  0.44530  0.77420  1.0000 -0.1112162774
O   O106      1.0  0.33730  0.55470  0.27420  1.0000 -0.1112162774
O   O107      1.0  0.66270  0.05470  0.22580  1.0000 -0.1112162774
O   O108      1.0  0.33730  0.94530  0.72580  1.0000 -0.1112162774
O   O109      1.0  0.33730  0.55470  0.22580  1.0000 -0.1112162774
O   O110      1.0  0.66270  0.44530  0.72580  1.0000 -0.1112162774
O   O111      1.0  0.33730  0.94530  0.77420  1.0000 -0.1112162774
O   O112      1.0  0.66270  0.05470  0.27420  1.0000 -0.1112162774
O   O113      1.0  0.47530  0.44730  0.75000  1.0000 -0.0167342844
O   O114      1.0  0.52470  0.55270  0.25000  1.0000 -0.0167342844
O   O115      1.0  0.47530  0.05270  0.25000  1.0000 -0.0136510641
O   O116      1.0  0.52470  0.94730  0.75000  1.0000 -0.0136510641
