# DDEC6 charges by PACMAN v1.1 (https://github.com/mtap-research/PACMAN-charge/)
data_2011[Fe][nan]3[ASR]2
_chemical_formula_sum              "Fe3 H6 C21 O15"
_cell_length_a       8.6716
_cell_length_b       8.6716
_cell_length_c       10.865
_cell_angle_alpha    90
_cell_angle_beta     90
_cell_angle_gamma    120

_symmetry_space_group_name_H-M    "P 1"
_symmetry_Int_Tables_number       1

loop_
  _symmetry_equiv_pos_as_xyz
  'x, y, z'

loop_
  _atom_site_type_symbol
  _atom_site_label
  _atom_site_symmetry_multiplicity
  _atom_site_fract_x
  _atom_site_fract_y
  _atom_site_fract_z
  _atom_site_occupancy
  _atom_site_charge
Fe  Fe1       1.0  0.05818  0.05818  0.50000  1.0000 1.23388329
Fe  Fe2       1.0  0.94182  0.00000  0.83333  1.0000 1.23388329
Fe  Fe3       1.0  1.00000  0.94182  0.16667  1.0000 1.23388329
H   H1        1.0  0.60920  0.09740  0.50980  1.0000 0.1533865319
H   H2        1.0  0.90260  0.51180  0.84313  1.0000 0.1533865319
H   H3        1.0  0.48820  0.39080  0.17647  1.0000 0.1533865319
H   H4        1.0  0.09740  0.60920  0.49020  1.0000 0.1533865319
H   H5        1.0  0.51180  0.90260  0.15687  1.0000 0.1533865319
H   H6        1.0  0.39080  0.48820  0.82353  1.0000 0.1533865319
C   C1        1.0  0.26940  0.00000  0.33333  1.0000 0.1021296591
C   C2        1.0  0.00000  0.26940  0.66667  1.0000 0.1021296591
C   C3        1.0  0.73060  0.73060  0.00000  1.0000 0.1021296591
C   C4        1.0  0.37540  0.06060  0.43750  1.0000 0.23118993
C   C5        1.0  0.93940  0.31480  0.77083  1.0000 0.23118993
C   C6        1.0  0.68520  0.62460  0.10417  1.0000 0.23118993
C   C7        1.0  0.06060  0.37540  0.56250  1.0000 0.23118993
C   C8        1.0  0.31480  0.93940  0.22917  1.0000 0.23118993
C   C9        1.0  0.62460  0.68520  0.89583  1.0000 0.23118993
C   C10       1.0  0.53490  0.05920  0.43910  1.0000 -0.2035799607
C   C11       1.0  0.94080  0.47570  0.77243  1.0000 -0.2035799607
C   C12       1.0  0.52430  0.46510  0.10577  1.0000 -0.2035799607
C   C13       1.0  0.05920  0.53490  0.56090  1.0000 -0.2035799607
C   C14       1.0  0.47570  0.94080  0.22757  1.0000 -0.2035799607
C   C15       1.0  0.46510  0.52430  0.89423  1.0000 -0.2053251728
C   C16       1.0  0.58360  0.00000  0.33333  1.0000 0.0119411523
C   C17       1.0  0.00000  0.58360  0.66667  1.0000 0.0119411523
C   C18       1.0  0.41640  0.41640  0.00000  1.0000 0.0119411523
C   C19       1.0  0.75470  0.00000  0.33333  1.0000 0.6070306188
C   C20       1.0  0.00000  0.75470  0.66667  1.0000 0.6070306188
C   C21       1.0  0.24530  0.24530  0.00000  1.0000 0.6070306188
O   O1        1.0  0.11260  0.00000  0.33333  1.0000 -0.4589846447
O   O2        1.0  0.00000  0.11260  0.66667  1.0000 -0.4589846447
O   O3        1.0  0.88740  0.88740  0.00000  1.0000 -0.4589846447
O   O4        1.0  0.31290  0.12040  0.52970  1.0000 -0.4169744118
O   O5        1.0  0.87960  0.19250  0.86303  1.0000 -0.4169744118
O   O6        1.0  0.80750  0.68710  0.19637  1.0000 -0.4169744118
O   O7        1.0  0.12040  0.31290  0.47030  1.0000 -0.4169744118
O   O8        1.0  0.19250  0.87960  0.13697  1.0000 -0.4169744118
O   O9        1.0  0.68710  0.80750  0.80363  1.0000 -0.4169744118
O   O10       1.0  0.81090  0.97730  0.43530  1.0000 -0.5117312585
O   O11       1.0  0.02270  0.83360  0.76863  1.0000 -0.5117312585
O   O12       1.0  0.16640  0.18910  0.10197  1.0000 -0.5117312585
O   O13       1.0  0.97730  0.81090  0.56470  1.0000 -0.5117312585
O   O14       1.0  0.83360  0.02270  0.23137  1.0000 -0.5117312585
O   O15       1.0  0.18910  0.16640  0.89803  1.0000 -0.5117312585
