# DDEC6 charges by PACMAN v1.1 (https://github.com/mtap-research/PACMAN-charge/)
data_2011[Cu][nan]3[ASR]2
_chemical_formula_sum              "Cu8 H112 C144 N44 O24"
_cell_length_a       17.559
_cell_length_b       11.426
_cell_length_c       21.736
_cell_angle_alpha    90
_cell_angle_beta     114.588
_cell_angle_gamma    90

_symmetry_space_group_name_H-M    "P 1"
_symmetry_Int_Tables_number       1

loop_
  _symmetry_equiv_pos_as_xyz
  'x, y, z'

loop_
  _atom_site_type_symbol
  _atom_site_label
  _atom_site_symmetry_multiplicity
  _atom_site_fract_x
  _atom_site_fract_y
  _atom_site_fract_z
  _atom_site_occupancy
  _atom_site_charge
Cu  Cu1       1.0  0.49187  0.32489  0.24464  1.0000 0.7529156507
Cu  Cu2       1.0  0.50813  0.82489  0.25536  1.0000 0.7529156507
Cu  Cu3       1.0  0.50813  0.67511  0.75536  1.0000 0.7529156507
Cu  Cu4       1.0  0.49187  0.17511  0.74464  1.0000 0.7529156507
Cu  Cu5       1.0  0.50502  0.60156  0.05731  1.0000 0.7137277872
Cu  Cu6       1.0  0.49498  0.10156  0.44269  1.0000 0.7137277872
Cu  Cu7       1.0  0.49498  0.39844  0.94269  1.0000 0.7137277872
Cu  Cu8       1.0  0.50502  0.89844  0.55731  1.0000 0.7137277872
H   H1        1.0  0.64430  0.43290  0.37910  1.0000 0.1268045147
H   H2        1.0  0.35570  0.93290  0.12090  1.0000 0.1268045147
H   H3        1.0  0.35570  0.56710  0.62090  1.0000 0.1268045147
H   H4        1.0  0.64430  0.06710  0.87910  1.0000 0.1268045147
H   H5        1.0  0.79070  0.42370  0.39840  1.0000 0.1181632924
H   H6        1.0  0.20930  0.92370  0.10160  1.0000 0.1181632924
H   H7        1.0  0.20930  0.57630  0.60160  1.0000 0.1181632924
H   H8        1.0  0.79070  0.07630  0.89840  1.0000 0.1181632924
H   H9        1.0  0.65450  0.25650  0.22600  1.0000 0.1181632924
H   H10       1.0  0.34550  0.75650  0.27400  1.0000 0.1181632924
H   H11       1.0  0.34550  0.74350  0.77400  1.0000 0.1181632924
H   H12       1.0  0.65450  0.24350  0.72600  1.0000 0.1181632924
H   H13       1.0  0.89250  0.43500  0.36150  1.0000 0.1181632924
H   H14       1.0  0.10750  0.93500  0.13850  1.0000 0.1181632924
H   H15       1.0  0.10750  0.56500  0.63850  1.0000 0.1181632924
H   H16       1.0  0.89250  0.06500  0.86150  1.0000 0.1181632924
H   H17       1.0  0.00790  0.41480  0.33540  1.0000 0.1090990372
H   H18       1.0  0.99210  0.91480  0.16460  1.0000 0.1090990372
H   H19       1.0  0.99210  0.58520  0.66460  1.0000 0.1090990372
H   H20       1.0  0.00790  0.08520  0.83540  1.0000 0.1090990372
H   H21       1.0  0.88970  0.16390  0.20100  1.0000 0.1090990372
H   H22       1.0  0.11030  0.66390  0.29900  1.0000 0.1090990372
H   H23       1.0  0.11030  0.83610  0.79900  1.0000 0.1090990372
H   H24       1.0  0.88970  0.33610  0.70100  1.0000 0.1090990372
H   H25       1.0  0.77500  0.17920  0.22800  1.0000 0.1268045147
H   H26       1.0  0.22500  0.67920  0.27200  1.0000 0.1268045147
H   H27       1.0  0.22500  0.82080  0.77200  1.0000 0.1268045147
H   H28       1.0  0.77500  0.32080  0.72800  1.0000 0.1268045147
H   H29       1.0  0.10870  0.39270  0.31890  1.0000 0.1090990372
H   H30       1.0  0.89130  0.89270  0.18110  1.0000 0.1090990372
H   H31       1.0  0.89130  0.60730  0.68110  1.0000 0.1090990372
H   H32       1.0  0.10870  0.10730  0.81890  1.0000 0.1090990372
H   H33       1.0  0.22120  0.39240  0.28800  1.0000 0.1268045147
H   H34       1.0  0.77880  0.89240  0.21200  1.0000 0.1268045147
H   H35       1.0  0.77880  0.60760  0.71200  1.0000 0.1268045147
H   H36       1.0  0.22120  0.10760  0.78800  1.0000 0.1268045147
H   H37       1.0  0.09470  0.17540  0.13500  1.0000 0.1181632924
H   H38       1.0  0.90530  0.67540  0.36500  1.0000 0.1181632924
H   H39       1.0  0.90530  0.82460  0.86500  1.0000 0.1181632924
H   H40       1.0  0.09470  0.32460  0.63500  1.0000 0.1181632924
H   H41       1.0  0.98250  0.17670  0.16460  1.0000 0.1090990372
H   H42       1.0  0.01750  0.67670  0.33540  1.0000 0.1090990372
H   H43       1.0  0.01750  0.82330  0.83540  1.0000 0.1090990372
H   H44       1.0  0.98250  0.32330  0.66460  1.0000 0.1090990372
H   H45       1.0  0.32910  0.36540  0.26890  1.0000 0.1090990372
H   H46       1.0  0.67090  0.86540  0.23110  1.0000 0.1090990372
H   H47       1.0  0.67090  0.63460  0.73110  1.0000 0.1090990372
H   H48       1.0  0.32910  0.13460  0.76890  1.0000 0.1090990372
H   H49       1.0  0.34320  0.20690  0.11270  1.0000 0.1268045147
H   H50       1.0  0.65680  0.70690  0.38730  1.0000 0.1268045147
H   H51       1.0  0.65680  0.79310  0.88730  1.0000 0.1268045147
H   H52       1.0  0.34320  0.29310  0.61270  1.0000 0.1268045147
H   H53       1.0  0.20020  0.18280  0.10350  1.0000 0.1090990372
H   H54       1.0  0.79980  0.68280  0.39650  1.0000 0.1090990372
H   H55       1.0  0.79980  0.81720  0.89650  1.0000 0.1090990372
H   H56       1.0  0.20020  0.31720  0.60350  1.0000 0.1090990372
H   H57       1.0  0.66620  0.64060  0.03570  1.0000 0.1181632924
H   H58       1.0  0.33380  0.14060  0.46430  1.0000 0.1181632924
H   H59       1.0  0.33380  0.35940  0.96430  1.0000 0.1181632924
H   H60       1.0  0.66620  0.85940  0.53570  1.0000 0.1181632924
H   H61       1.0  0.65480  0.52780  0.20260  1.0000 0.1268045147
H   H62       1.0  0.34520  0.02780  0.29740  1.0000 0.1268045147
H   H63       1.0  0.34520  0.47220  0.79740  1.0000 0.1268045147
H   H64       1.0  0.65480  0.97220  0.70260  1.0000 0.1268045147
H   H65       1.0  0.80310  0.52530  0.22140  1.0000 0.1181632924
H   H66       1.0  0.19690  0.02530  0.27860  1.0000 0.1181632924
H   H67       1.0  0.19690  0.47470  0.77860  1.0000 0.1181632924
H   H68       1.0  0.80310  0.97470  0.72140  1.0000 0.1181632924
H   H69       1.0  0.79100  0.73260  0.04510  1.0000 0.1268045147
H   H70       1.0  0.20900  0.23260  0.45490  1.0000 0.1268045147
H   H71       1.0  0.20900  0.26740  0.95490  1.0000 0.1268045147
H   H72       1.0  0.79100  0.76740  0.54510  1.0000 0.1268045147
H   H73       1.0  0.90770  0.73980  0.01900  1.0000 0.1002711766
H   H74       1.0  0.09230  0.23980  0.48100  1.0000 0.1002711766
H   H75       1.0  0.09230  0.26020  0.98100  1.0000 0.1002711766
H   H76       1.0  0.90770  0.76020  0.51900  1.0000 0.1002711766
H   H77       1.0  0.01260  0.47920  0.14760  1.0000 0.1090990372
H   H78       1.0  0.98740  0.97920  0.35240  1.0000 0.1090990372
H   H79       1.0  0.98740  0.52080  0.85240  1.0000 0.1090990372
H   H80       1.0  0.01260  0.02080  0.64760  1.0000 0.1090990372
H   H81       1.0  0.89680  0.46310  0.16990  1.0000 0.1181632924
H   H82       1.0  0.10320  0.96310  0.33010  1.0000 0.1181632924
H   H83       1.0  0.10320  0.53690  0.83010  1.0000 0.1181632924
H   H84       1.0  0.89680  0.03690  0.66990  1.0000 0.1181632924
H   H85       1.0  0.00910  0.75770  0.00250  1.0000 0.1002711766
H   H86       1.0  0.99090  0.25770  0.49750  1.0000 0.1002711766
H   H87       1.0  0.99090  0.24230  0.99750  1.0000 0.1002711766
H   H88       1.0  0.00910  0.74230  0.50250  1.0000 0.1002711766
H   H89       1.0  0.10970  0.48070  0.11950  1.0000 0.1002711766
H   H90       1.0  0.89030  0.98070  0.38050  1.0000 0.1002711766
H   H91       1.0  0.89030  0.51930  0.88050  1.0000 0.1090990372
H   H92       1.0  0.10970  0.01930  0.61950  1.0000 0.1090990372
H   H93       1.0  0.35220  0.70540  0.93070  1.0000 0.1268045147
H   H94       1.0  0.64780  0.20540  0.56930  1.0000 0.1268045147
H   H95       1.0  0.64780  0.29460  0.06930  1.0000 0.1268045147
H   H96       1.0  0.35220  0.79460  0.43070  1.0000 0.1268045147
H   H97       1.0  0.21180  0.73060  0.92570  1.0000 0.1181632924
H   H98       1.0  0.78820  0.23060  0.57430  1.0000 0.1181632924
H   H99       1.0  0.78820  0.26940  0.07430  1.0000 0.1181632924
H   H100      1.0  0.21180  0.76940  0.42570  1.0000 0.1181632924
H   H101      1.0  0.34940  0.55690  0.09260  1.0000 0.1181632924
H   H102      1.0  0.65060  0.05690  0.40740  1.0000 0.1181632924
H   H103      1.0  0.65060  0.44310  0.90740  1.0000 0.1181632924
H   H104      1.0  0.34940  0.94310  0.59260  1.0000 0.1181632924
H   H105      1.0  0.12530  0.76850  0.97650  1.0000 0.1181632924
H   H106      1.0  0.87470  0.26850  0.52350  1.0000 0.1181632924
H   H107      1.0  0.87470  0.23150  0.02350  1.0000 0.1181632924
H   H108      1.0  0.12530  0.73150  0.47650  1.0000 0.1181632924
H   H109      1.0  0.22580  0.49140  0.09430  1.0000 0.1181632924
H   H110      1.0  0.77420  0.99140  0.40570  1.0000 0.1181632924
H   H111      1.0  0.77420  0.50860  0.90570  1.0000 0.1181632924
H   H112      1.0  0.22580  0.00860  0.59430  1.0000 0.1181632924
C   C1        1.0  0.66480  0.39760  0.35050  1.0000 -0.0285429411
C   C2        1.0  0.33520  0.89760  0.14950  1.0000 -0.0285429411
C   C3        1.0  0.33520  0.60240  0.64950  1.0000 -0.0285429411
C   C4        1.0  0.66480  0.10240  0.85050  1.0000 -0.0285429411
C   C5        1.0  0.74570  0.39230  0.36180  1.0000 -0.1095370432
C   C6        1.0  0.25430  0.89230  0.13820  1.0000 -0.1095370432
C   C7        1.0  0.25430  0.60770  0.63820  1.0000 -0.1095370432
C   C8        1.0  0.74570  0.10770  0.86180  1.0000 -0.1095370432
C   C9        1.0  0.66940  0.30000  0.26540  1.0000 0.0913703517
C   C10       1.0  0.33060  0.80000  0.23460  1.0000 0.0913703517
C   C11       1.0  0.33060  0.70000  0.73460  1.0000 0.0913703517
C   C12       1.0  0.66940  0.20000  0.76540  1.0000 0.0913703517
C   C13       1.0  0.82190  0.31120  0.29490  1.0000 0.1629325674
C   C14       1.0  0.17810  0.81120  0.20510  1.0000 0.1629325674
C   C15       1.0  0.17810  0.68880  0.70510  1.0000 0.1629325674
C   C16       1.0  0.82190  0.18880  0.79490  1.0000 0.1629325674
C   C17       1.0  0.89170  0.38150  0.32900  1.0000 -0.2054827064
C   C18       1.0  0.10830  0.88150  0.17100  1.0000 -0.2054827064
C   C19       1.0  0.10830  0.61850  0.67100  1.0000 -0.2054827064
C   C20       1.0  0.89170  0.11850  0.82900  1.0000 -0.1988542325
C   C21       1.0  0.96060  0.36910  0.31290  1.0000 -0.1411147779
C   C22       1.0  0.03940  0.86910  0.18710  1.0000 -0.1411147779
C   C23       1.0  0.03940  0.63090  0.68710  1.0000 -0.1411147779
C   C24       1.0  0.96060  0.13090  0.81290  1.0000 -0.1411147779
C   C25       1.0  0.96000  0.29040  0.26420  1.0000 0.058155011
C   C26       1.0  0.04000  0.79040  0.23580  1.0000 0.058155011
C   C27       1.0  0.04000  0.70960  0.73580  1.0000 0.058155011
C   C28       1.0  0.96000  0.20960  0.76420  1.0000 0.058155011
C   C29       1.0  0.89020  0.21870  0.23280  1.0000 -0.1411147779
C   C30       1.0  0.10980  0.71870  0.26720  1.0000 -0.1411147779
C   C31       1.0  0.10980  0.78130  0.76720  1.0000 -0.1411147779
C   C32       1.0  0.89020  0.28130  0.73280  1.0000 -0.1411147779
C   C33       1.0  0.82110  0.22820  0.24850  1.0000 -0.1988542325
C   C34       1.0  0.17890  0.72820  0.25150  1.0000 -0.1988542325
C   C35       1.0  0.17890  0.77180  0.75150  1.0000 -0.1988542325
C   C36       1.0  0.82110  0.27180  0.74850  1.0000 -0.1988542325
C   C37       1.0  0.10560  0.34840  0.28200  1.0000 -0.1411147779
C   C38       1.0  0.89440  0.84840  0.21800  1.0000 -0.1472932234
C   C39       1.0  0.89440  0.65160  0.71800  1.0000 -0.1472932234
C   C40       1.0  0.10560  0.15160  0.78200  1.0000 -0.1411147779
C   C41       1.0  0.17360  0.34820  0.26370  1.0000 -0.1988542325
C   C42       1.0  0.82640  0.84820  0.23630  1.0000 -0.1988542325
C   C43       1.0  0.82640  0.65180  0.73630  1.0000 -0.1988542325
C   C44       1.0  0.17360  0.15180  0.76370  1.0000 -0.1988542325
C   C45       1.0  0.16880  0.28230  0.20970  1.0000 0.1426288337
C   C46       1.0  0.83120  0.78230  0.29030  1.0000 0.1426288337
C   C47       1.0  0.83120  0.71770  0.79030  1.0000 0.1426288337
C   C48       1.0  0.16880  0.21770  0.70970  1.0000 0.1426288337
C   C49       1.0  0.09760  0.21860  0.17220  1.0000 -0.1988542325
C   C50       1.0  0.90240  0.71860  0.32780  1.0000 -0.1988542325
C   C51       1.0  0.90240  0.78140  0.82780  1.0000 -0.1988542325
C   C52       1.0  0.09760  0.28140  0.67220  1.0000 -0.1988542325
C   C53       1.0  0.03050  0.21940  0.19000  1.0000 -0.1411147779
C   C54       1.0  0.96950  0.71940  0.31000  1.0000 -0.1411147779
C   C55       1.0  0.96950  0.78060  0.81000  1.0000 -0.1411147779
C   C56       1.0  0.03050  0.28060  0.69000  1.0000 -0.1411147779
C   C57       1.0  0.31540  0.32260  0.22930  1.0000 0.1002711766
C   C58       1.0  0.68460  0.82260  0.27070  1.0000 0.1002711766
C   C59       1.0  0.68460  0.67740  0.77070  1.0000 0.1002711766
C   C60       1.0  0.31540  0.17740  0.72930  1.0000 0.1002711766
C   C61       1.0  0.32290  0.23500  0.14310  1.0000 -0.0285429411
C   C62       1.0  0.67710  0.73500  0.35690  1.0000 -0.0285429411
C   C63       1.0  0.67710  0.76500  0.85690  1.0000 -0.0285429411
C   C64       1.0  0.32290  0.26500  0.64310  1.0000 -0.0285429411
C   C65       1.0  0.24360  0.22220  0.13770  1.0000 -0.1033544391
C   C66       1.0  0.75640  0.72220  0.36230  1.0000 -0.1033544391
C   C67       1.0  0.75640  0.77780  0.86230  1.0000 -0.1033544391
C   C68       1.0  0.24360  0.27780  0.63770  1.0000 -0.1033544391
C   C69       1.0  0.68150  0.61120  0.07920  1.0000 0.1002711766
C   C70       1.0  0.31850  0.11120  0.42080  1.0000 0.0913703517
C   C71       1.0  0.31850  0.38880  0.92080  1.0000 0.0913703517
C   C72       1.0  0.68150  0.88880  0.57920  1.0000 0.1002711766
C   C73       1.0  0.67530  0.54930  0.17110  1.0000 -0.0084646823
C   C74       1.0  0.32470  0.04930  0.32890  1.0000 -0.0084646823
C   C75       1.0  0.32470  0.45070  0.82890  1.0000 -0.0084646823
C   C76       1.0  0.67530  0.95070  0.67110  1.0000 -0.0084646823
C   C77       1.0  0.75790  0.54810  0.18210  1.0000 -0.1095370432
C   C78       1.0  0.24210  0.04810  0.31790  1.0000 -0.1095370432
C   C79       1.0  0.24210  0.45190  0.81790  1.0000 -0.1095370432
C   C80       1.0  0.75790  0.95190  0.68210  1.0000 -0.1095370432
C   C81       1.0  0.83310  0.59570  0.10860  1.0000 0.1426288337
C   C82       1.0  0.16690  0.09570  0.39140  1.0000 0.1426288337
C   C83       1.0  0.16690  0.40430  0.89140  1.0000 0.1426288337
C   C84       1.0  0.83310  0.90430  0.60860  1.0000 0.1426288337
C   C85       1.0  0.83490  0.68000  0.06460  1.0000 -0.1988542325
C   C86       1.0  0.16510  0.18000  0.43540  1.0000 -0.1988542325
C   C87       1.0  0.16510  0.32000  0.93540  1.0000 -0.1988542325
C   C88       1.0  0.83490  0.82000  0.56460  1.0000 -0.1988542325
C   C89       1.0  0.90590  0.68440  0.04970  1.0000 -0.1472932234
C   C90       1.0  0.09410  0.18440  0.45030  1.0000 -0.1472932234
C   C91       1.0  0.09410  0.31560  0.95030  1.0000 -0.1472932234
C   C92       1.0  0.90590  0.81560  0.54970  1.0000 -0.1472932234
C   C93       1.0  0.97260  0.60910  0.07930  1.0000 0.0694364683
C   C94       1.0  0.02740  0.10910  0.42070  1.0000 0.0694364683
C   C95       1.0  0.02740  0.39090  0.92070  1.0000 0.0694364683
C   C96       1.0  0.97260  0.89090  0.57930  1.0000 0.0694364683
C   C97       1.0  0.96740  0.52880  0.12550  1.0000 -0.1330664157
C   C98       1.0  0.03260  0.02880  0.37450  1.0000 -0.1330664157
C   C99       1.0  0.03260  0.47120  0.87450  1.0000 -0.1330664157
C   C100      1.0  0.96740  0.97120  0.62550  1.0000 -0.1330664157
C   C101      1.0  0.89900  0.51950  0.13980  1.0000 -0.1817272305
C   C102      1.0  0.10100  0.01950  0.36020  1.0000 -0.1817272305
C   C103      1.0  0.10100  0.48050  0.86020  1.0000 -0.1817272305
C   C104      1.0  0.89900  0.98050  0.63980  1.0000 -0.1817272305
C   C105      1.0  0.05240  0.70370  0.02090  1.0000 -0.1472932234
C   C106      1.0  0.94760  0.20370  0.47910  1.0000 -0.1472932234
C   C107      1.0  0.94760  0.29630  0.97910  1.0000 -0.1472932234
C   C108      1.0  0.05240  0.79630  0.52090  1.0000 -0.1472932234
C   C109      1.0  0.11230  0.53890  0.09050  1.0000 -0.1411147779
C   C110      1.0  0.88770  0.03890  0.40950  1.0000 -0.1411147779
C   C111      1.0  0.88770  0.46110  0.90950  1.0000 -0.1411147779
C   C112      1.0  0.11230  0.96110  0.59050  1.0000 -0.1411147779
C   C113      1.0  0.33450  0.68000  0.96330  1.0000 -0.0187474265
C   C114      1.0  0.66550  0.18000  0.53670  1.0000 -0.0187474265
C   C115      1.0  0.66550  0.32000  0.03670  1.0000 -0.0187474265
C   C116      1.0  0.33450  0.82000  0.46330  1.0000 -0.0187474265
C   C117      1.0  0.25660  0.69290  0.95960  1.0000 -0.1095370432
C   C118      1.0  0.74340  0.19290  0.54040  1.0000 -0.1095370432
C   C119      1.0  0.74340  0.30710  0.04040  1.0000 -0.1095370432
C   C120      1.0  0.25660  0.80710  0.45960  1.0000 -0.1095370432
C   C121      1.0  0.33320  0.59800  0.05220  1.0000 0.1002711766
C   C122      1.0  0.66680  0.09800  0.44780  1.0000 0.1002711766
C   C123      1.0  0.66680  0.40200  0.94780  1.0000 0.1002711766
C   C124      1.0  0.33320  0.90200  0.55220  1.0000 0.1002711766
C   C125      1.0  0.12200  0.71050  0.00540  1.0000 -0.1885352413
C   C126      1.0  0.87800  0.21050  0.49460  1.0000 -0.1885352413
C   C127      1.0  0.87800  0.28950  0.99460  1.0000 -0.1885352413
C   C128      1.0  0.12200  0.78950  0.50540  1.0000 -0.1885352413
C   C129      1.0  0.18510  0.63100  0.03310  1.0000 0.1426288337
C   C130      1.0  0.81490  0.13100  0.46690  1.0000 0.1426288337
C   C131      1.0  0.81490  0.36900  0.96690  1.0000 0.1426288337
C   C132      1.0  0.18510  0.86900  0.53310  1.0000 0.1426288337
C   C133      1.0  0.18220  0.54490  0.07570  1.0000 -0.1885352413
C   C134      1.0  0.81780  0.04490  0.42430  1.0000 -0.1885352413
C   C135      1.0  0.81780  0.45510  0.92430  1.0000 -0.1885352413
C   C136      1.0  0.18220  0.95510  0.57570  1.0000 -0.1885352413
C   C137      1.0  0.03410  0.28390  0.24610  1.0000 0.058155011
C   C138      1.0  0.96590  0.78390  0.25390  1.0000 0.058155011
C   C139      1.0  0.96590  0.71610  0.75390  1.0000 0.058155011
C   C140      1.0  0.03410  0.21610  0.74610  1.0000 0.058155011
C   C141      1.0  0.04770  0.61630  0.06360  1.0000 0.0694364683
C   C142      1.0  0.95230  0.11630  0.43640  1.0000 0.0694364683
C   C143      1.0  0.95230  0.38370  0.93640  1.0000 0.0694364683
C   C144      1.0  0.04770  0.88370  0.56360  1.0000 0.0694364683
N   N1        1.0  0.61590  0.34260  0.28957  1.0000 -0.2774644466
N   N2        1.0  0.38410  0.84260  0.21043  1.0000 -0.2774644466
N   N3        1.0  0.38410  0.65740  0.71043  1.0000 -0.2774644466
N   N4        1.0  0.61590  0.15740  0.78957  1.0000 -0.2774644466
N   N5        1.0  0.74900  0.33070  0.30813  1.0000 -0.0003185658
N   N6        1.0  0.25100  0.83070  0.19187  1.0000 -0.0003185658
N   N7        1.0  0.25100  0.66930  0.69187  1.0000 -0.0003185658
N   N8        1.0  0.74900  0.16930  0.80813  1.0000 -0.0003185658
N   N9        1.0  0.23920  0.27730  0.19149  1.0000 0.0033493951
N   N10       1.0  0.76080  0.77730  0.30851  1.0000 0.0033493951
N   N11       1.0  0.76080  0.72270  0.80851  1.0000 0.0033493951
N   N12       1.0  0.23920  0.22270  0.69149  1.0000 0.0033493951
N   N13       1.0  0.36830  0.29670  0.20131  1.0000 -0.2774644466
N   N14       1.0  0.63170  0.79670  0.29869  1.0000 -0.2774644466
N   N15       1.0  0.63170  0.70330  0.79869  1.0000 -0.2774644466
N   N16       1.0  0.36830  0.20330  0.70131  1.0000 -0.2714610337
N   N17       1.0  0.62800  0.58670  0.10712  1.0000 -0.2714610337
N   N18       1.0  0.37200  0.08670  0.39288  1.0000 -0.2714610337
N   N19       1.0  0.37200  0.41330  0.89288  1.0000 -0.2714610337
N   N20       1.0  0.62800  0.91330  0.60712  1.0000 -0.2714610337
N   N21       1.0  0.76030  0.58730  0.12306  1.0000 0.0098330056
N   N22       1.0  0.23970  0.08730  0.37694  1.0000 0.0098330056
N   N23       1.0  0.23970  0.41270  0.87694  1.0000 0.0098330056
N   N24       1.0  0.76030  0.91270  0.62306  1.0000 0.0098330056
N   N25       1.0  0.25640  0.63950  0.01586  1.0000 0.0098330056
N   N26       1.0  0.74360  0.13950  0.48414  1.0000 0.0098330056
N   N27       1.0  0.74360  0.36050  0.98414  1.0000 0.0098330056
N   N28       1.0  0.25640  0.86050  0.51586  1.0000 0.0098330056
N   N29       1.0  0.38370  0.62440  0.02162  1.0000 -0.2774644466
N   N30       1.0  0.61630  0.12440  0.47838  1.0000 -0.2774644466
N   N31       1.0  0.61630  0.37560  0.97838  1.0000 -0.2774644466
N   N32       1.0  0.38370  0.87560  0.52162  1.0000 -0.2774644466
N   N33       1.0  0.49700  0.57620  0.26406  1.0000 0.1902689711
N   N34       1.0  0.50300  0.07620  0.23594  1.0000 0.1902689711
N   N35       1.0  0.50300  0.42380  0.73594  1.0000 0.1902689711
N   N36       1.0  0.49700  0.92380  0.76406  1.0000 0.1902689711
N   N37       1.0  0.49010  0.37240  0.09740  1.0000 0.1902689711
N   N38       1.0  0.50990  0.87240  0.40260  1.0000 0.1902689711
N   N39       1.0  0.50990  0.62760  0.90260  1.0000 0.1902689711
N   N40       1.0  0.49010  0.12760  0.59740  1.0000 0.1902689711
N   N41       1.0  0.48670  0.31250  0.39312  1.0000 0.2581437231
N   N42       1.0  0.51330  0.81250  0.10688  1.0000 0.2581437231
N   N43       1.0  0.51330  0.68750  0.60688  1.0000 0.2581437231
N   N44       1.0  0.48670  0.18750  0.89312  1.0000 0.2581437231
O   O1        1.0  0.47490  0.48010  0.27948  1.0000 -0.3591925129
O   O2        1.0  0.52510  0.98010  0.22052  1.0000 -0.3591925129
O   O3        1.0  0.52510  0.51990  0.72052  1.0000 -0.3591925129
O   O4        1.0  0.47490  0.01990  0.77948  1.0000 -0.3591925129
O   O5        1.0  0.48973  0.67080  0.28958  1.0000 -0.340031579
O   O6        1.0  0.51027  0.17080  0.21042  1.0000 -0.340031579
O   O7        1.0  0.51027  0.32920  0.71042  1.0000 -0.340031579
O   O8        1.0  0.48973  0.82920  0.78958  1.0000 -0.340031579
O   O9        1.0  0.48909  0.41970  0.14785  1.0000 -0.3879343569
O   O10       1.0  0.51091  0.91970  0.35215  1.0000 -0.3879343569
O   O11       1.0  0.51091  0.58030  0.85215  1.0000 -0.3879343569
O   O12       1.0  0.48909  0.08030  0.64785  1.0000 -0.3879343569
O   O13       1.0  0.49461  0.42870  0.04845  1.0000 -0.418976888
O   O14       1.0  0.50539  0.92870  0.45155  1.0000 -0.418976888
O   O15       1.0  0.50539  0.57130  0.95155  1.0000 -0.418976888
O   O16       1.0  0.49461  0.07130  0.54845  1.0000 -0.418976888
O   O17       1.0  0.48370  0.27430  0.44606  1.0000 -0.3591925129
O   O18       1.0  0.51630  0.77430  0.05394  1.0000 -0.3591925129
O   O19       1.0  0.51630  0.72570  0.55394  1.0000 -0.3591925129
O   O20       1.0  0.48370  0.22570  0.94606  1.0000 -0.3591925129
O   O21       1.0  0.49321  0.25040  0.34804  1.0000 -0.4398048445
O   O22       1.0  0.50679  0.75040  0.15196  1.0000 -0.4398048445
O   O23       1.0  0.50679  0.74960  0.65196  1.0000 -0.4398048445
O   O24       1.0  0.49321  0.24960  0.84804  1.0000 -0.4398048445
