# DDEC6 charges by PACMAN v1.1 (https://github.com/mtap-research/PACMAN-charge/)
data_2011[Zn][srs]3[ASR]5
_chemical_formula_sum              "Zn24 H192 C288 I48 N96"
_cell_length_a       13.745
_cell_length_b       27.165
_cell_length_c       46.162
_cell_angle_alpha    90
_cell_angle_beta     90
_cell_angle_gamma    90

_symmetry_space_group_name_H-M    "P 1"
_symmetry_Int_Tables_number       1

loop_
  _symmetry_equiv_pos_as_xyz
  'x, y, z'

loop_
  _atom_site_type_symbol
  _atom_site_label
  _atom_site_symmetry_multiplicity
  _atom_site_fract_x
  _atom_site_fract_y
  _atom_site_fract_z
  _atom_site_occupancy
  _atom_site_charge
Zn  Zn1       1.0  0.14559  0.75044  0.80744  1.0000 0.4642753686
Zn  Zn2       1.0  0.85441  0.74956  0.30744  1.0000 0.4642753686
Zn  Zn3       1.0  0.64559  0.24956  0.69256  1.0000 0.4642753686
Zn  Zn4       1.0  0.35441  0.25044  0.19256  1.0000 0.4642753686
Zn  Zn5       1.0  0.84555  0.46429  0.59570  1.0000 0.4494954831
Zn  Zn6       1.0  0.15445  0.03571  0.09570  1.0000 0.4494954831
Zn  Zn7       1.0  0.34555  0.53571  0.90430  1.0000 0.4494954831
Zn  Zn8       1.0  0.65445  0.96429  0.40430  1.0000 0.4494954831
Zn  Zn9       1.0  0.85653  0.95086  0.56434  1.0000 0.4494954831
Zn  Zn10      1.0  0.14347  0.54914  0.06434  1.0000 0.4494954831
Zn  Zn11      1.0  0.35653  0.04914  0.93566  1.0000 0.4494954831
Zn  Zn12      1.0  0.64347  0.45086  0.43566  1.0000 0.4494954831
Zn  Zn13      1.0  0.85441  0.24956  0.19256  1.0000 0.4642753686
Zn  Zn14      1.0  0.14559  0.25044  0.69256  1.0000 0.4642753686
Zn  Zn15      1.0  0.35441  0.75044  0.30744  1.0000 0.4642753686
Zn  Zn16      1.0  0.64559  0.74956  0.80744  1.0000 0.4666981995
Zn  Zn17      1.0  0.15445  0.53571  0.40430  1.0000 0.4494954831
Zn  Zn18      1.0  0.84555  0.96429  0.90430  1.0000 0.4494954831
Zn  Zn19      1.0  0.65445  0.46429  0.09570  1.0000 0.4494954831
Zn  Zn20      1.0  0.34555  0.03571  0.59570  1.0000 0.4494954831
Zn  Zn21      1.0  0.14347  0.04914  0.43566  1.0000 0.4494954831
Zn  Zn22      1.0  0.85653  0.45086  0.93566  1.0000 0.4494954831
Zn  Zn23      1.0  0.64347  0.95086  0.06434  1.0000 0.4494954831
Zn  Zn24      1.0  0.35653  0.54914  0.56434  1.0000 0.4494954831
H   H1        1.0  0.07960  0.67080  0.76870  1.0000 0.1100701339
H   H2        1.0  0.92040  0.82920  0.26870  1.0000 0.1100701339
H   H3        1.0  0.57960  0.32920  0.73130  1.0000 0.1100701339
H   H4        1.0  0.42040  0.17080  0.23130  1.0000 0.1100701339
H   H5        1.0  0.01530  0.65910  0.72290  1.0000 0.1334450209
H   H6        1.0  0.98470  0.84090  0.22290  1.0000 0.1334450209
H   H7        1.0  0.51530  0.34090  0.77710  1.0000 0.1334450209
H   H8        1.0  0.48470  0.15910  0.27710  1.0000 0.1334450209
H   H9        1.0  0.96820  0.80620  0.71830  1.0000 0.1334450209
H   H10       1.0  0.03180  0.69380  0.21830  1.0000 0.1334450209
H   H11       1.0  0.46820  0.19380  0.78170  1.0000 0.1334450209
H   H12       1.0  0.53180  0.30620  0.28170  1.0000 0.1334450209
H   H13       1.0  0.03020  0.81330  0.76470  1.0000 0.1100701339
H   H14       1.0  0.96980  0.68670  0.26470  1.0000 0.1100701339
H   H15       1.0  0.53020  0.18670  0.73530  1.0000 0.1100701339
H   H16       1.0  0.46980  0.31330  0.23530  1.0000 0.1100701339
H   H17       1.0  0.87780  0.56760  0.57400  1.0000 0.1100701339
H   H18       1.0  0.12220  0.93240  0.07400  1.0000 0.1100701339
H   H19       1.0  0.37780  0.43240  0.92600  1.0000 0.1100701339
H   H20       1.0  0.62220  0.06760  0.42600  1.0000 0.1100701339
H   H21       1.0  0.89840  0.64700  0.59140  1.0000 0.1334450209
H   H22       1.0  0.10160  0.85300  0.09140  1.0000 0.1334450209
H   H23       1.0  0.39840  0.35300  0.90860  1.0000 0.1334450209
H   H24       1.0  0.60160  0.14700  0.40860  1.0000 0.1334450209
H   H25       1.0  0.92130  0.59030  0.67240  1.0000 0.1334450209
H   H26       1.0  0.07870  0.90970  0.17240  1.0000 0.1334450209
H   H27       1.0  0.42130  0.40970  0.82760  1.0000 0.1334450209
H   H28       1.0  0.57870  0.09030  0.32760  1.0000 0.1334450209
H   H29       1.0  0.89420  0.51260  0.65290  1.0000 0.1003899209
H   H30       1.0  0.10580  0.98740  0.15290  1.0000 0.1003899209
H   H31       1.0  0.39420  0.48740  0.84710  1.0000 0.1003899209
H   H32       1.0  0.60580  0.01260  0.34710  1.0000 0.1003899209
H   H33       1.0  0.90500  0.92320  0.62570  1.0000 0.1003899209
H   H34       1.0  0.09500  0.57680  0.12570  1.0000 0.1003899209
H   H35       1.0  0.40500  0.07680  0.87430  1.0000 0.1003899209
H   H36       1.0  0.59500  0.42320  0.37430  1.0000 0.1003899209
H   H37       1.0  0.92840  0.85480  0.65480  1.0000 0.1334450209
H   H38       1.0  0.07160  0.64520  0.15480  1.0000 0.1334450209
H   H39       1.0  0.42840  0.14520  0.84520  1.0000 0.1334450209
H   H40       1.0  0.57160  0.35480  0.34520  1.0000 0.1334450209
H   H41       1.0  0.87570  0.76850  0.58530  1.0000 0.1334450209
H   H42       1.0  0.12430  0.73150  0.08530  1.0000 0.1334450209
H   H43       1.0  0.37570  0.23150  0.91470  1.0000 0.1334450209
H   H44       1.0  0.62430  0.26850  0.41470  1.0000 0.1334450209
H   H45       1.0  0.84950  0.83910  0.55810  1.0000 0.1003899209
H   H46       1.0  0.15050  0.66090  0.05810  1.0000 0.1003899209
H   H47       1.0  0.34950  0.16090  0.94190  1.0000 0.1003899209
H   H48       1.0  0.65050  0.33910  0.44190  1.0000 0.1003899209
H   H49       1.0  0.17030  0.61210  0.01180  1.0000 0.1003899209
H   H50       1.0  0.82970  0.88790  0.51180  1.0000 0.1003899209
H   H51       1.0  0.67030  0.38790  0.48820  1.0000 0.1003899209
H   H52       1.0  0.32970  0.11210  0.98820  1.0000 0.1003899209
H   H53       1.0  0.08420  0.64250  0.97230  1.0000 0.1334450209
H   H54       1.0  0.91580  0.85750  0.47230  1.0000 0.1334450209
H   H55       1.0  0.58420  0.35750  0.52770  1.0000 0.1334450209
H   H56       1.0  0.41580  0.14250  0.02770  1.0000 0.1334450209
H   H57       1.0  0.85520  0.55780  0.99660  1.0000 0.1371281345
H   H58       1.0  0.14480  0.94220  0.49660  1.0000 0.1371281345
H   H59       1.0  0.35520  0.44220  0.50340  1.0000 0.1371281345
H   H60       1.0  0.64480  0.05780  0.00340  1.0000 0.1371281345
H   H61       1.0  0.94720  0.52990  0.03580  1.0000 0.1003899209
H   H62       1.0  0.05280  0.97010  0.53580  1.0000 0.1003899209
H   H63       1.0  0.44720  0.47010  0.46420  1.0000 0.1003899209
H   H64       1.0  0.55280  0.02990  0.96420  1.0000 0.1003899209
H   H65       1.0  0.93720  0.72650  0.82210  1.0000 0.1100701339
H   H66       1.0  0.06280  0.77350  0.32210  1.0000 0.1100701339
H   H67       1.0  0.43720  0.27350  0.67790  1.0000 0.1003899209
H   H68       1.0  0.56280  0.22650  0.17790  1.0000 0.1003899209
H   H69       1.0  0.84620  0.69170  0.85950  1.0000 0.1334450209
H   H70       1.0  0.15380  0.80830  0.35950  1.0000 0.1334450209
H   H71       1.0  0.34620  0.30830  0.64050  1.0000 0.1334450209
H   H72       1.0  0.65380  0.19170  0.14050  1.0000 0.1334450209
H   H73       1.0  0.09910  0.65960  0.90070  1.0000 0.1334450209
H   H74       1.0  0.90090  0.84040  0.40070  1.0000 0.1334450209
H   H75       1.0  0.59910  0.34040  0.59930  1.0000 0.1334450209
H   H76       1.0  0.40090  0.15960  0.09930  1.0000 0.1334450209
H   H77       1.0  0.18290  0.69500  0.86210  1.0000 0.1100701339
H   H78       1.0  0.81710  0.80500  0.36210  1.0000 0.1100701339
H   H79       1.0  0.68290  0.30500  0.63790  1.0000 0.1100701339
H   H80       1.0  0.31710  0.19500  0.13790  1.0000 0.1100701339
H   H81       1.0  0.46860  0.57160  0.95510  1.0000 0.1100701339
H   H82       1.0  0.53140  0.92840  0.45510  1.0000 0.1100701339
H   H83       1.0  0.96860  0.42840  0.54490  1.0000 0.1100701339
H   H84       1.0  0.03140  0.07160  0.04490  1.0000 0.1100701339
H   H85       1.0  0.62730  0.59880  0.96440  1.0000 0.1371281345
H   H86       1.0  0.37270  0.90120  0.46440  1.0000 0.1334450209
H   H87       1.0  0.12730  0.40120  0.53560  1.0000 0.1371281345
H   H88       1.0  0.87270  0.09880  0.03560  1.0000 0.1334450209
H   H89       1.0  0.67600  0.59720  0.87770  1.0000 0.1334450209
H   H90       1.0  0.32400  0.90280  0.37770  1.0000 0.1334450209
H   H91       1.0  0.17600  0.40280  0.62230  1.0000 0.1334450209
H   H92       1.0  0.82400  0.09720  0.12230  1.0000 0.1334450209
H   H93       1.0  0.52050  0.56740  0.87130  1.0000 0.1100701339
H   H94       1.0  0.47950  0.93260  0.37130  1.0000 0.1100701339
H   H95       1.0  0.02050  0.43260  0.62870  1.0000 0.1100701339
H   H96       1.0  0.97950  0.06740  0.12870  1.0000 0.1100701339
H   H97       1.0  0.92040  0.32920  0.23130  1.0000 0.1100701339
H   H98       1.0  0.07960  0.17080  0.73130  1.0000 0.1100701339
H   H99       1.0  0.42040  0.67080  0.26870  1.0000 0.1100701339
H   H100      1.0  0.57960  0.82920  0.76870  1.0000 0.1100701339
H   H101      1.0  0.98470  0.34090  0.27710  1.0000 0.1334450209
H   H102      1.0  0.01530  0.15910  0.77710  1.0000 0.1334450209
H   H103      1.0  0.48470  0.65910  0.22290  1.0000 0.1334450209
H   H104      1.0  0.51530  0.84090  0.72290  1.0000 0.1334450209
H   H105      1.0  0.03180  0.19380  0.28170  1.0000 0.1334450209
H   H106      1.0  0.96820  0.30620  0.78170  1.0000 0.1334450209
H   H107      1.0  0.53180  0.80620  0.21830  1.0000 0.1334450209
H   H108      1.0  0.46820  0.69380  0.71830  1.0000 0.1334450209
H   H109      1.0  0.96980  0.18670  0.23530  1.0000 0.1100701339
H   H110      1.0  0.03020  0.31330  0.73530  1.0000 0.1100701339
H   H111      1.0  0.46980  0.81330  0.26470  1.0000 0.1100701339
H   H112      1.0  0.53020  0.68670  0.76470  1.0000 0.1100701339
H   H113      1.0  0.12220  0.43240  0.42600  1.0000 0.1100701339
H   H114      1.0  0.87780  0.06760  0.92600  1.0000 0.1100701339
H   H115      1.0  0.62220  0.56760  0.07400  1.0000 0.1100701339
H   H116      1.0  0.37780  0.93240  0.57400  1.0000 0.1100701339
H   H117      1.0  0.10160  0.35300  0.40860  1.0000 0.1334450209
H   H118      1.0  0.89840  0.14700  0.90860  1.0000 0.1334450209
H   H119      1.0  0.60160  0.64700  0.09140  1.0000 0.1334450209
H   H120      1.0  0.39840  0.85300  0.59140  1.0000 0.1334450209
H   H121      1.0  0.07870  0.40970  0.32760  1.0000 0.1334450209
H   H122      1.0  0.92130  0.09030  0.82760  1.0000 0.1334450209
H   H123      1.0  0.57870  0.59030  0.17240  1.0000 0.1334450209
H   H124      1.0  0.42130  0.90970  0.67240  1.0000 0.1334450209
H   H125      1.0  0.10580  0.48740  0.34710  1.0000 0.1003899209
H   H126      1.0  0.89420  0.01260  0.84710  1.0000 0.1003899209
H   H127      1.0  0.60580  0.51260  0.15290  1.0000 0.1003899209
H   H128      1.0  0.39420  0.98740  0.65290  1.0000 0.1003899209
H   H129      1.0  0.09500  0.07680  0.37430  1.0000 0.1003899209
H   H130      1.0  0.90500  0.42320  0.87430  1.0000 0.1003899209
H   H131      1.0  0.59500  0.92320  0.12570  1.0000 0.1003899209
H   H132      1.0  0.40500  0.57680  0.62570  1.0000 0.1003899209
H   H133      1.0  0.07160  0.14520  0.34520  1.0000 0.1334450209
H   H134      1.0  0.92840  0.35480  0.84520  1.0000 0.1334450209
H   H135      1.0  0.57160  0.85480  0.15480  1.0000 0.1334450209
H   H136      1.0  0.42840  0.64520  0.65480  1.0000 0.1334450209
H   H137      1.0  0.12430  0.23150  0.41470  1.0000 0.1334450209
H   H138      1.0  0.87570  0.26850  0.91470  1.0000 0.1334450209
H   H139      1.0  0.62430  0.76850  0.08530  1.0000 0.1334450209
H   H140      1.0  0.37570  0.73150  0.58530  1.0000 0.1334450209
H   H141      1.0  0.15050  0.16090  0.44190  1.0000 0.1003899209
H   H142      1.0  0.84950  0.33910  0.94190  1.0000 0.1003899209
H   H143      1.0  0.65050  0.83910  0.05810  1.0000 0.1003899209
H   H144      1.0  0.34950  0.66090  0.55810  1.0000 0.1003899209
H   H145      1.0  0.82970  0.38790  0.98820  1.0000 0.1003899209
H   H146      1.0  0.17030  0.11210  0.48820  1.0000 0.1003899209
H   H147      1.0  0.32970  0.61210  0.51180  1.0000 0.1003899209
H   H148      1.0  0.67030  0.88790  0.01180  1.0000 0.1003899209
H   H149      1.0  0.91580  0.35750  0.02770  1.0000 0.1334450209
H   H150      1.0  0.08420  0.14250  0.52770  1.0000 0.1334450209
H   H151      1.0  0.41580  0.64250  0.47230  1.0000 0.1334450209
H   H152      1.0  0.58420  0.85750  0.97230  1.0000 0.1334450209
H   H153      1.0  0.14480  0.44220  0.00340  1.0000 0.1371281345
H   H154      1.0  0.85520  0.05780  0.50340  1.0000 0.1371281345
H   H155      1.0  0.64480  0.55780  0.49660  1.0000 0.1371281345
H   H156      1.0  0.35520  0.94220  0.99660  1.0000 0.1371281345
H   H157      1.0  0.05280  0.47010  0.96420  1.0000 0.1003899209
H   H158      1.0  0.94720  0.02990  0.46420  1.0000 0.1003899209
H   H159      1.0  0.55280  0.52990  0.53580  1.0000 0.1003899209
H   H160      1.0  0.44720  0.97010  0.03580  1.0000 0.1003899209
H   H161      1.0  0.06280  0.27350  0.17790  1.0000 0.1003899209
H   H162      1.0  0.93720  0.22650  0.67790  1.0000 0.1003899209
H   H163      1.0  0.56280  0.72650  0.32210  1.0000 0.1100701339
H   H164      1.0  0.43720  0.77350  0.82210  1.0000 0.1100701339
H   H165      1.0  0.15380  0.30830  0.14050  1.0000 0.1334450209
H   H166      1.0  0.84620  0.19170  0.64050  1.0000 0.1334450209
H   H167      1.0  0.65380  0.69170  0.35950  1.0000 0.1334450209
H   H168      1.0  0.34620  0.80830  0.85950  1.0000 0.1334450209
H   H169      1.0  0.90090  0.34040  0.09930  1.0000 0.1334450209
H   H170      1.0  0.09910  0.15960  0.59930  1.0000 0.1334450209
H   H171      1.0  0.40090  0.65960  0.40070  1.0000 0.1334450209
H   H172      1.0  0.59910  0.84040  0.90070  1.0000 0.1334450209
H   H173      1.0  0.81710  0.30500  0.13790  1.0000 0.1100701339
H   H174      1.0  0.18290  0.19500  0.63790  1.0000 0.1100701339
H   H175      1.0  0.31710  0.69500  0.36210  1.0000 0.1100701339
H   H176      1.0  0.68290  0.80500  0.86210  1.0000 0.1100701339
H   H177      1.0  0.53140  0.42840  0.04490  1.0000 0.1100701339
H   H178      1.0  0.46860  0.07160  0.54490  1.0000 0.1100701339
H   H179      1.0  0.03140  0.57160  0.45510  1.0000 0.1100701339
H   H180      1.0  0.96860  0.92840  0.95510  1.0000 0.1100701339
H   H181      1.0  0.37270  0.40120  0.03560  1.0000 0.1371281345
H   H182      1.0  0.62730  0.09880  0.53560  1.0000 0.1334450209
H   H183      1.0  0.87270  0.59880  0.46440  1.0000 0.1371281345
H   H184      1.0  0.12730  0.90120  0.96440  1.0000 0.1334450209
H   H185      1.0  0.32400  0.40280  0.12230  1.0000 0.1334450209
H   H186      1.0  0.67600  0.09720  0.62230  1.0000 0.1334450209
H   H187      1.0  0.82400  0.59720  0.37770  1.0000 0.1334450209
H   H188      1.0  0.17600  0.90280  0.87770  1.0000 0.1334450209
H   H189      1.0  0.47950  0.43260  0.12870  1.0000 0.1100701339
H   H190      1.0  0.52050  0.06740  0.62870  1.0000 0.1100701339
H   H191      1.0  0.97950  0.56740  0.37130  1.0000 0.1100701339
H   H192      1.0  0.02050  0.93260  0.87130  1.0000 0.1100701339
C   C1        1.0  0.05680  0.69850  0.75818  1.0000 0.0814327909
C   C2        1.0  0.94320  0.80150  0.25818  1.0000 0.0814327909
C   C3        1.0  0.55680  0.30150  0.74182  1.0000 0.0814327909
C   C4        1.0  0.44320  0.19850  0.24182  1.0000 0.0814327909
C   C5        1.0  0.01950  0.69120  0.73084  1.0000 -0.1579073291
C   C6        1.0  0.98050  0.80880  0.23084  1.0000 -0.1579073291
C   C7        1.0  0.51950  0.30880  0.76916  1.0000 -0.1579073291
C   C8        1.0  0.48050  0.19120  0.26916  1.0000 -0.1579073291
C   C9        1.0  0.98790  0.73180  0.71511  1.0000 0.0611353814
C   C10       1.0  0.01210  0.76820  0.21511  1.0000 0.0611353814
C   C11       1.0  0.48790  0.26820  0.78489  1.0000 0.0705386909
C   C12       1.0  0.51210  0.23180  0.28489  1.0000 0.0611353814
C   C13       1.0  0.99130  0.77790  0.72825  1.0000 -0.1494782027
C   C14       1.0  0.00870  0.72210  0.22825  1.0000 -0.1494782027
C   C15       1.0  0.49130  0.22210  0.77175  1.0000 -0.1494782027
C   C16       1.0  0.50870  0.27790  0.27175  1.0000 -0.1494782027
C   C17       1.0  0.02850  0.78180  0.75576  1.0000 0.1003899209
C   C18       1.0  0.97150  0.71820  0.25576  1.0000 0.1003899209
C   C19       1.0  0.52850  0.21820  0.74424  1.0000 0.1003899209
C   C20       1.0  0.47150  0.28180  0.24424  1.0000 0.1003899209
C   C21       1.0  0.88530  0.57250  0.59430  1.0000 0.0814327909
C   C22       1.0  0.11470  0.92750  0.09430  1.0000 0.0814327909
C   C23       1.0  0.38530  0.42750  0.90570  1.0000 0.0814327909
C   C24       1.0  0.61470  0.07250  0.40570  1.0000 0.0814327909
C   C25       1.0  0.89780  0.61990  0.60439  1.0000 -0.1494782027
C   C26       1.0  0.10220  0.88010  0.10439  1.0000 -0.1494782027
C   C27       1.0  0.39780  0.38010  0.89561  1.0000 -0.1494782027
C   C28       1.0  0.60220  0.11990  0.39561  1.0000 -0.1494782027
C   C29       1.0  0.90930  0.62710  0.63395  1.0000 0.0611353814
C   C30       1.0  0.09070  0.87290  0.13395  1.0000 0.0611353814
C   C31       1.0  0.40930  0.37290  0.86605  1.0000 0.0611353814
C   C32       1.0  0.59070  0.12710  0.36605  1.0000 0.0611353814
C   C33       1.0  0.91050  0.58650  0.65224  1.0000 -0.1579073291
C   C34       1.0  0.08950  0.91350  0.15224  1.0000 -0.1579073291
C   C35       1.0  0.41050  0.41350  0.84776  1.0000 -0.1579073291
C   C36       1.0  0.58950  0.08650  0.34776  1.0000 -0.1579073291
C   C37       1.0  0.89570  0.54030  0.64032  1.0000 0.0899684334
C   C38       1.0  0.10430  0.95970  0.14032  1.0000 0.0899684334
C   C39       1.0  0.39570  0.45970  0.85968  1.0000 0.0899684334
C   C40       1.0  0.60430  0.04030  0.35968  1.0000 0.0899684334
C   C41       1.0  0.89870  0.89140  0.61742  1.0000 0.1003899209
C   C42       1.0  0.10130  0.60860  0.11742  1.0000 0.1003899209
C   C43       1.0  0.39870  0.10860  0.88258  1.0000 0.0899684334
C   C44       1.0  0.60130  0.39140  0.38258  1.0000 0.1003899209
C   C45       1.0  0.91300  0.85080  0.63491  1.0000 -0.1579073291
C   C46       1.0  0.08700  0.64920  0.13491  1.0000 -0.1579073291
C   C47       1.0  0.41300  0.14920  0.86509  1.0000 -0.1579073291
C   C48       1.0  0.58700  0.35080  0.36509  1.0000 -0.1579073291
C   C49       1.0  0.90460  0.80400  0.62298  1.0000 0.0611353814
C   C50       1.0  0.09540  0.69600  0.12298  1.0000 0.0611353814
C   C51       1.0  0.40460  0.19600  0.87702  1.0000 0.0611353814
C   C52       1.0  0.59540  0.30400  0.37702  1.0000 0.0611353814
C   C53       1.0  0.88150  0.80000  0.59406  1.0000 -0.1579073291
C   C54       1.0  0.11850  0.70000  0.09406  1.0000 -0.1579073291
C   C55       1.0  0.38150  0.20000  0.90594  1.0000 -0.1579073291
C   C56       1.0  0.61850  0.30000  0.40594  1.0000 -0.1579073291
C   C57       1.0  0.86680  0.84220  0.57792  1.0000 0.0705386909
C   C58       1.0  0.13320  0.65780  0.07792  1.0000 0.0705386909
C   C59       1.0  0.36680  0.15780  0.92208  1.0000 0.0705386909
C   C60       1.0  0.63320  0.34220  0.42208  1.0000 0.0705386909
C   C61       1.0  0.95630  0.72610  0.68447  1.0000 0.3777764975
C   C62       1.0  0.04370  0.77390  0.18447  1.0000 0.3777764975
C   C63       1.0  0.45630  0.27390  0.81553  1.0000 0.3777764975
C   C64       1.0  0.54370  0.22610  0.31553  1.0000 0.3777764975
C   C65       1.0  0.92260  0.67760  0.64614  1.0000 0.3777764975
C   C66       1.0  0.07740  0.82240  0.14614  1.0000 0.3777764975
C   C67       1.0  0.42260  0.32240  0.85386  1.0000 0.3777764975
C   C68       1.0  0.57740  0.17760  0.35386  1.0000 0.3777764975
C   C69       1.0  0.91910  0.75980  0.64139  1.0000 0.3725858681
C   C70       1.0  0.08090  0.74020  0.14139  1.0000 0.3725858681
C   C71       1.0  0.41910  0.24020  0.85861  1.0000 0.3725858681
C   C72       1.0  0.58090  0.25980  0.35861  1.0000 0.3725858681
C   C73       1.0  0.10540  0.60130  0.00871  1.0000 0.0705386909
C   C74       1.0  0.89460  0.89870  0.50871  1.0000 0.0705386909
C   C75       1.0  0.60540  0.39870  0.49129  1.0000 0.0705386909
C   C76       1.0  0.39460  0.10130  0.99129  1.0000 0.0705386909
C   C77       1.0  0.05480  0.61950  0.98504  1.0000 -0.1397894044
C   C78       1.0  0.94520  0.88050  0.48504  1.0000 -0.1397894044
C   C79       1.0  0.55480  0.38050  0.51496  1.0000 -0.1397894044
C   C80       1.0  0.44520  0.11950  0.01496  1.0000 -0.1397894044
C   C81       1.0  0.95960  0.60330  0.98036  1.0000 0.0611353814
C   C82       1.0  0.04040  0.89670  0.48036  1.0000 0.0611353814
C   C83       1.0  0.45960  0.39670  0.51964  1.0000 0.0611353814
C   C84       1.0  0.54040  0.10330  0.01964  1.0000 0.0611353814
C   C85       1.0  0.91960  0.56950  0.99941  1.0000 -0.1397894044
C   C86       1.0  0.08040  0.93050  0.49941  1.0000 -0.1397894044
C   C87       1.0  0.41960  0.43050  0.50059  1.0000 -0.1397894044
C   C88       1.0  0.58040  0.06950  0.00059  1.0000 -0.1397894044
C   C89       1.0  0.97480  0.55310  0.02274  1.0000 0.0899684334
C   C90       1.0  0.02520  0.94690  0.52274  1.0000 0.0899684334
C   C91       1.0  0.47480  0.44690  0.47726  1.0000 0.0899684334
C   C92       1.0  0.52520  0.05310  0.97726  1.0000 0.0899684334
C   C93       1.0  0.97000  0.71310  0.83841  1.0000 0.0814327909
C   C94       1.0  0.03000  0.78690  0.33841  1.0000 0.0814327909
C   C95       1.0  0.47000  0.28690  0.66159  1.0000 0.0814327909
C   C96       1.0  0.53000  0.21310  0.16159  1.0000 0.0814327909
C   C97       1.0  0.91520  0.69240  0.86061  1.0000 -0.1265826561
C   C98       1.0  0.08480  0.80760  0.36061  1.0000 -0.1265826561
C   C99       1.0  0.41520  0.30760  0.63939  1.0000 -0.1265826561
C   C100      1.0  0.58480  0.19240  0.13939  1.0000 -0.1265826561
C   C101      1.0  0.96300  0.67270  0.88442  1.0000 0.0611353814
C   C102      1.0  0.03700  0.82730  0.38442  1.0000 0.0611353814
C   C103      1.0  0.46300  0.32730  0.61558  1.0000 0.0611353814
C   C104      1.0  0.53700  0.17270  0.11558  1.0000 0.0611353814
C   C105      1.0  0.06440  0.67340  0.88485  1.0000 -0.1216923163
C   C106      1.0  0.93560  0.82660  0.38485  1.0000 -0.1216923163
C   C107      1.0  0.56440  0.32660  0.61515  1.0000 -0.1216923163
C   C108      1.0  0.43560  0.17340  0.11515  1.0000 -0.1216923163
C   C109      1.0  0.11380  0.69470  0.86182  1.0000 0.0899684334
C   C110      1.0  0.88620  0.80530  0.36182  1.0000 0.0899684334
C   C111      1.0  0.61380  0.30530  0.63818  1.0000 0.0899684334
C   C112      1.0  0.38620  0.19470  0.13818  1.0000 0.0899684334
C   C113      1.0  0.51210  0.57610  0.93934  1.0000 0.0899684334
C   C114      1.0  0.48790  0.92390  0.43934  1.0000 0.0899684334
C   C115      1.0  0.01210  0.42390  0.56066  1.0000 0.0899684334
C   C116      1.0  0.98790  0.07610  0.06066  1.0000 0.0899684334
C   C117      1.0  0.60630  0.59300  0.94504  1.0000 -0.1265826561
C   C118      1.0  0.39370  0.90700  0.44504  1.0000 -0.1265826561
C   C119      1.0  0.10630  0.40700  0.55496  1.0000 -0.1265826561
C   C120      1.0  0.89370  0.09300  0.05496  1.0000 -0.1265826561
C   C121      1.0  0.66860  0.60110  0.92173  1.0000 0.0705386909
C   C122      1.0  0.33140  0.89890  0.42173  1.0000 0.0705386909
C   C123      1.0  0.16860  0.39890  0.57827  1.0000 0.0705386909
C   C124      1.0  0.83140  0.10110  0.07827  1.0000 0.0705386909
C   C125      1.0  0.63520  0.59160  0.89399  1.0000 -0.1265826561
C   C126      1.0  0.36480  0.90840  0.39399  1.0000 -0.1265826561
C   C127      1.0  0.13520  0.40840  0.60601  1.0000 -0.1265826561
C   C128      1.0  0.86480  0.09160  0.10601  1.0000 -0.1216923163
C   C129      1.0  0.54260  0.57420  0.89035  1.0000 0.0814327909
C   C130      1.0  0.45740  0.92580  0.39035  1.0000 0.0814327909
C   C131      1.0  0.04260  0.42580  0.60965  1.0000 0.0814327909
C   C132      1.0  0.95740  0.07420  0.10965  1.0000 0.0814327909
C   C133      1.0  0.90540  0.62010  0.95420  1.0000 0.3777764975
C   C134      1.0  0.09460  0.87990  0.45420  1.0000 0.3725858681
C   C135      1.0  0.40540  0.37990  0.54580  1.0000 0.3777764975
C   C136      1.0  0.59460  0.12010  0.04580  1.0000 0.3725858681
C   C137      1.0  0.90780  0.65020  0.90882  1.0000 0.3725858681
C   C138      1.0  0.09220  0.84980  0.40882  1.0000 0.3725858681
C   C139      1.0  0.40780  0.34980  0.59118  1.0000 0.3725858681
C   C140      1.0  0.59220  0.15020  0.09118  1.0000 0.3725858681
C   C141      1.0  0.77030  0.61730  0.92649  1.0000 0.3725858681
C   C142      1.0  0.22970  0.88270  0.42649  1.0000 0.3725858681
C   C143      1.0  0.27030  0.38270  0.57351  1.0000 0.3725858681
C   C144      1.0  0.72970  0.11730  0.07351  1.0000 0.3725858681
C   C145      1.0  0.94320  0.30150  0.24182  1.0000 0.0814327909
C   C146      1.0  0.05680  0.19850  0.74182  1.0000 0.0814327909
C   C147      1.0  0.44320  0.69850  0.25818  1.0000 0.0814327909
C   C148      1.0  0.55680  0.80150  0.75818  1.0000 0.0814327909
C   C149      1.0  0.98050  0.30880  0.26916  1.0000 -0.1579073291
C   C150      1.0  0.01950  0.19120  0.76916  1.0000 -0.1579073291
C   C151      1.0  0.48050  0.69120  0.23084  1.0000 -0.1579073291
C   C152      1.0  0.51950  0.80880  0.73084  1.0000 -0.1579073291
C   C153      1.0  0.01210  0.26820  0.28489  1.0000 0.0611353814
C   C154      1.0  0.98790  0.23180  0.78489  1.0000 0.0611353814
C   C155      1.0  0.51210  0.73180  0.21511  1.0000 0.0611353814
C   C156      1.0  0.48790  0.76820  0.71511  1.0000 0.0611353814
C   C157      1.0  0.00870  0.22210  0.27175  1.0000 -0.1494782027
C   C158      1.0  0.99130  0.27790  0.77175  1.0000 -0.1494782027
C   C159      1.0  0.50870  0.77790  0.22825  1.0000 -0.1494782027
C   C160      1.0  0.49130  0.72210  0.72825  1.0000 -0.1494782027
C   C161      1.0  0.97150  0.21820  0.24424  1.0000 0.1003899209
C   C162      1.0  0.02850  0.28180  0.74424  1.0000 0.1003899209
C   C163      1.0  0.47150  0.78180  0.25576  1.0000 0.1003899209
C   C164      1.0  0.52850  0.71820  0.75576  1.0000 0.1003899209
C   C165      1.0  0.11470  0.42750  0.40570  1.0000 0.0814327909
C   C166      1.0  0.88530  0.07250  0.90570  1.0000 0.0814327909
C   C167      1.0  0.61470  0.57250  0.09430  1.0000 0.0814327909
C   C168      1.0  0.38530  0.92750  0.59430  1.0000 0.0814327909
C   C169      1.0  0.10220  0.38010  0.39561  1.0000 -0.1494782027
C   C170      1.0  0.89780  0.11990  0.89561  1.0000 -0.1494782027
C   C171      1.0  0.60220  0.61990  0.10439  1.0000 -0.1494782027
C   C172      1.0  0.39780  0.88010  0.60439  1.0000 -0.1494782027
C   C173      1.0  0.09070  0.37290  0.36605  1.0000 0.0611353814
C   C174      1.0  0.90930  0.12710  0.86605  1.0000 0.0611353814
C   C175      1.0  0.59070  0.62710  0.13395  1.0000 0.0611353814
C   C176      1.0  0.40930  0.87290  0.63395  1.0000 0.0611353814
C   C177      1.0  0.08950  0.41350  0.34776  1.0000 -0.1579073291
C   C178      1.0  0.91050  0.08650  0.84776  1.0000 -0.1579073291
C   C179      1.0  0.58950  0.58650  0.15224  1.0000 -0.1579073291
C   C180      1.0  0.41050  0.91350  0.65224  1.0000 -0.1579073291
C   C181      1.0  0.10430  0.45970  0.35968  1.0000 0.0899684334
C   C182      1.0  0.89570  0.04030  0.85968  1.0000 0.0899684334
C   C183      1.0  0.60430  0.54030  0.14032  1.0000 0.0899684334
C   C184      1.0  0.39570  0.95970  0.64032  1.0000 0.0899684334
C   C185      1.0  0.10130  0.10860  0.38258  1.0000 0.0899684334
C   C186      1.0  0.89870  0.39140  0.88258  1.0000 0.1003899209
C   C187      1.0  0.60130  0.89140  0.11742  1.0000 0.1003899209
C   C188      1.0  0.39870  0.60860  0.61742  1.0000 0.1003899209
C   C189      1.0  0.08700  0.14920  0.36509  1.0000 -0.1579073291
C   C190      1.0  0.91300  0.35080  0.86509  1.0000 -0.1579073291
C   C191      1.0  0.58700  0.85080  0.13491  1.0000 -0.1579073291
C   C192      1.0  0.41300  0.64920  0.63491  1.0000 -0.1579073291
C   C193      1.0  0.09540  0.19600  0.37702  1.0000 0.0611353814
C   C194      1.0  0.90460  0.30400  0.87702  1.0000 0.0611353814
C   C195      1.0  0.59540  0.80400  0.12298  1.0000 0.0611353814
C   C196      1.0  0.40460  0.69600  0.62298  1.0000 0.0611353814
C   C197      1.0  0.11850  0.20000  0.40594  1.0000 -0.1579073291
C   C198      1.0  0.88150  0.30000  0.90594  1.0000 -0.1579073291
C   C199      1.0  0.61850  0.80000  0.09406  1.0000 -0.1579073291
C   C200      1.0  0.38150  0.70000  0.59406  1.0000 -0.1579073291
C   C201      1.0  0.13320  0.15780  0.42208  1.0000 0.0705386909
C   C202      1.0  0.86680  0.34220  0.92208  1.0000 0.0705386909
C   C203      1.0  0.63320  0.84220  0.07792  1.0000 0.0705386909
C   C204      1.0  0.36680  0.65780  0.57792  1.0000 0.0705386909
C   C205      1.0  0.04370  0.27390  0.31553  1.0000 0.3777764975
C   C206      1.0  0.95630  0.22610  0.81553  1.0000 0.3777764975
C   C207      1.0  0.54370  0.72610  0.18447  1.0000 0.3777764975
C   C208      1.0  0.45630  0.77390  0.68447  1.0000 0.3777764975
C   C209      1.0  0.07740  0.32240  0.35386  1.0000 0.3777764975
C   C210      1.0  0.92260  0.17760  0.85386  1.0000 0.3777764975
C   C211      1.0  0.57740  0.67760  0.14614  1.0000 0.3777764975
C   C212      1.0  0.42260  0.82240  0.64614  1.0000 0.3777764975
C   C213      1.0  0.08090  0.24020  0.35861  1.0000 0.3725858681
C   C214      1.0  0.91910  0.25980  0.85861  1.0000 0.3725858681
C   C215      1.0  0.58090  0.75980  0.14139  1.0000 0.3725858681
C   C216      1.0  0.41910  0.74020  0.64139  1.0000 0.3725858681
C   C217      1.0  0.89460  0.39870  0.99129  1.0000 0.0705386909
C   C218      1.0  0.10540  0.10130  0.49129  1.0000 0.0705386909
C   C219      1.0  0.39460  0.60130  0.50871  1.0000 0.0705386909
C   C220      1.0  0.60540  0.89870  0.00871  1.0000 0.0705386909
C   C221      1.0  0.94520  0.38050  0.01496  1.0000 -0.1397894044
C   C222      1.0  0.05480  0.11950  0.51496  1.0000 -0.1397894044
C   C223      1.0  0.44520  0.61950  0.48504  1.0000 -0.1397894044
C   C224      1.0  0.55480  0.88050  0.98504  1.0000 -0.1397894044
C   C225      1.0  0.04040  0.39670  0.01964  1.0000 0.0611353814
C   C226      1.0  0.95960  0.10330  0.51964  1.0000 0.0611353814
C   C227      1.0  0.54040  0.60330  0.48036  1.0000 0.0611353814
C   C228      1.0  0.45960  0.89670  0.98036  1.0000 0.0611353814
C   C229      1.0  0.08040  0.43050  0.00059  1.0000 -0.1397894044
C   C230      1.0  0.91960  0.06950  0.50059  1.0000 -0.1397894044
C   C231      1.0  0.58040  0.56950  0.49941  1.0000 -0.1397894044
C   C232      1.0  0.41960  0.93050  0.99941  1.0000 -0.1397894044
C   C233      1.0  0.02520  0.44690  0.97726  1.0000 0.0899684334
C   C234      1.0  0.97480  0.05310  0.47726  1.0000 0.0899684334
C   C235      1.0  0.52520  0.55310  0.52274  1.0000 0.0899684334
C   C236      1.0  0.47480  0.94690  0.02274  1.0000 0.0899684334
C   C237      1.0  0.03000  0.28690  0.16159  1.0000 0.0814327909
C   C238      1.0  0.97000  0.21310  0.66159  1.0000 0.0814327909
C   C239      1.0  0.53000  0.71310  0.33841  1.0000 0.0814327909
C   C240      1.0  0.47000  0.78690  0.83841  1.0000 0.0814327909
C   C241      1.0  0.08480  0.30760  0.13939  1.0000 -0.1265826561
C   C242      1.0  0.91520  0.19240  0.63939  1.0000 -0.1265826561
C   C243      1.0  0.58480  0.69240  0.36061  1.0000 -0.1265826561
C   C244      1.0  0.41520  0.80760  0.86061  1.0000 -0.1265826561
C   C245      1.0  0.03700  0.32730  0.11558  1.0000 0.0611353814
C   C246      1.0  0.96300  0.17270  0.61558  1.0000 0.0611353814
C   C247      1.0  0.53700  0.67270  0.38442  1.0000 0.0611353814
C   C248      1.0  0.46300  0.82730  0.88442  1.0000 0.0611353814
C   C249      1.0  0.93560  0.32660  0.11515  1.0000 -0.1216923163
C   C250      1.0  0.06440  0.17340  0.61515  1.0000 -0.1216923163
C   C251      1.0  0.43560  0.67340  0.38485  1.0000 -0.1216923163
C   C252      1.0  0.56440  0.82660  0.88485  1.0000 -0.1216923163
C   C253      1.0  0.88620  0.30530  0.13818  1.0000 0.0899684334
C   C254      1.0  0.11380  0.19470  0.63818  1.0000 0.0899684334
C   C255      1.0  0.38620  0.69470  0.36182  1.0000 0.0899684334
C   C256      1.0  0.61380  0.80530  0.86182  1.0000 0.0899684334
C   C257      1.0  0.48790  0.42390  0.06066  1.0000 0.0899684334
C   C258      1.0  0.51210  0.07610  0.56066  1.0000 0.0899684334
C   C259      1.0  0.98790  0.57610  0.43934  1.0000 0.0899684334
C   C260      1.0  0.01210  0.92390  0.93934  1.0000 0.0899684334
C   C261      1.0  0.39370  0.40700  0.05496  1.0000 -0.1265826561
C   C262      1.0  0.60630  0.09300  0.55496  1.0000 -0.1265826561
C   C263      1.0  0.89370  0.59300  0.44504  1.0000 -0.1265826561
C   C264      1.0  0.10630  0.90700  0.94504  1.0000 -0.1265826561
C   C265      1.0  0.33140  0.39890  0.07827  1.0000 0.0705386909
C   C266      1.0  0.66860  0.10110  0.57827  1.0000 0.0705386909
C   C267      1.0  0.83140  0.60110  0.42173  1.0000 0.0705386909
C   C268      1.0  0.16860  0.89890  0.92173  1.0000 0.0705386909
C   C269      1.0  0.36480  0.40840  0.10601  1.0000 -0.1265826561
C   C270      1.0  0.63520  0.09160  0.60601  1.0000 -0.1265826561
C   C271      1.0  0.86480  0.59160  0.39399  1.0000 -0.1216923163
C   C272      1.0  0.13520  0.90840  0.89399  1.0000 -0.1265826561
C   C273      1.0  0.45740  0.42580  0.10965  1.0000 0.0814327909
C   C274      1.0  0.54260  0.07420  0.60965  1.0000 0.0814327909
C   C275      1.0  0.95740  0.57420  0.39035  1.0000 0.0814327909
C   C276      1.0  0.04260  0.92580  0.89035  1.0000 0.0814327909
C   C277      1.0  0.09460  0.37990  0.04580  1.0000 0.3777764975
C   C278      1.0  0.90540  0.12010  0.54580  1.0000 0.3725858681
C   C279      1.0  0.59460  0.62010  0.45420  1.0000 0.3777764975
C   C280      1.0  0.40540  0.87990  0.95420  1.0000 0.3725858681
C   C281      1.0  0.09220  0.34980  0.09118  1.0000 0.3725858681
C   C282      1.0  0.90780  0.15020  0.59118  1.0000 0.3725858681
C   C283      1.0  0.59220  0.65020  0.40882  1.0000 0.3725858681
C   C284      1.0  0.40780  0.84980  0.90882  1.0000 0.3725858681
C   C285      1.0  0.22970  0.38270  0.07351  1.0000 0.3725858681
C   C286      1.0  0.77030  0.11730  0.57351  1.0000 0.3725858681
C   C287      1.0  0.72970  0.61730  0.42649  1.0000 0.3725858681
C   C288      1.0  0.27030  0.88270  0.92649  1.0000 0.3725858681
I   I1        1.0  0.29735  0.69729  0.79912  1.0000 -0.457400172
I   I2        1.0  0.70265  0.80271  0.29912  1.0000 -0.457400172
I   I3        1.0  0.79735  0.30271  0.70088  1.0000 -0.457400172
I   I4        1.0  0.20265  0.19729  0.20088  1.0000 -0.457400172
I   I5        1.0  0.16188  0.84194  0.81877  1.0000 -0.457400172
I   I6        1.0  0.83812  0.65806  0.31877  1.0000 -0.457400172
I   I7        1.0  0.66188  0.15806  0.68123  1.0000 -0.457400172
I   I8        1.0  0.33812  0.34194  0.18123  1.0000 -0.457400172
I   I9        1.0  0.75766  0.47430  0.54738  1.0000 -0.457400172
I   I10       1.0  0.24234  0.02570  0.04738  1.0000 -0.457400172
I   I11       1.0  0.25766  0.52570  0.95262  1.0000 -0.457400172
I   I12       1.0  0.74234  0.97430  0.45262  1.0000 -0.457400172
I   I13       1.0  0.77142  0.41986  0.63895  1.0000 -0.4403966591
I   I14       1.0  0.22858  0.08014  0.13895  1.0000 -0.4403966591
I   I15       1.0  0.27142  0.58014  0.86105  1.0000 -0.4403966591
I   I16       1.0  0.72858  0.91986  0.36105  1.0000 -0.4403966591
I   I17       1.0  0.94634  0.01784  0.59185  1.0000 -0.4180325655
I   I18       1.0  0.05366  0.48216  0.09185  1.0000 -0.4180325655
I   I19       1.0  0.44634  0.98216  0.90815  1.0000 -0.4141744078
I   I20       1.0  0.55366  0.51784  0.40815  1.0000 -0.4180325655
I   I21       1.0  0.67950  0.95903  0.54843  1.0000 -0.457400172
I   I22       1.0  0.32050  0.54097  0.04843  1.0000 -0.457400172
I   I23       1.0  0.17950  0.04097  0.95157  1.0000 -0.4524460137
I   I24       1.0  0.82050  0.45903  0.45157  1.0000 -0.457400172
I   I25       1.0  0.70265  0.30271  0.20088  1.0000 -0.457400172
I   I26       1.0  0.29735  0.19729  0.70088  1.0000 -0.457400172
I   I27       1.0  0.20265  0.69729  0.29912  1.0000 -0.457400172
I   I28       1.0  0.79735  0.80271  0.79912  1.0000 -0.457400172
I   I29       1.0  0.83812  0.15806  0.18123  1.0000 -0.457400172
I   I30       1.0  0.16188  0.34194  0.68123  1.0000 -0.457400172
I   I31       1.0  0.33812  0.84194  0.31877  1.0000 -0.457400172
I   I32       1.0  0.66188  0.65806  0.81877  1.0000 -0.457400172
I   I33       1.0  0.24234  0.52570  0.45262  1.0000 -0.457400172
I   I34       1.0  0.75766  0.97430  0.95262  1.0000 -0.457400172
I   I35       1.0  0.74234  0.47430  0.04738  1.0000 -0.457400172
I   I36       1.0  0.25766  0.02570  0.54738  1.0000 -0.457400172
I   I37       1.0  0.22858  0.58014  0.36105  1.0000 -0.4403966591
I   I38       1.0  0.77142  0.91986  0.86105  1.0000 -0.4403966591
I   I39       1.0  0.72858  0.41986  0.13895  1.0000 -0.4403966591
I   I40       1.0  0.27142  0.08014  0.63895  1.0000 -0.4403966591
I   I41       1.0  0.05366  0.98216  0.40815  1.0000 -0.4141744078
I   I42       1.0  0.94634  0.51784  0.90815  1.0000 -0.4180325655
I   I43       1.0  0.55366  0.01784  0.09185  1.0000 -0.4180325655
I   I44       1.0  0.44634  0.48216  0.59185  1.0000 -0.4180325655
I   I45       1.0  0.32050  0.04097  0.45157  1.0000 -0.4524460137
I   I46       1.0  0.67950  0.45903  0.95157  1.0000 -0.457400172
I   I47       1.0  0.82050  0.95903  0.04843  1.0000 -0.457400172
I   I48       1.0  0.17950  0.54097  0.54843  1.0000 -0.457400172
N   N1        1.0  0.06240  0.74310  0.77055  1.0000 -0.1812209722
N   N2        1.0  0.93760  0.75690  0.27055  1.0000 -0.1812209722
N   N3        1.0  0.56240  0.25690  0.72945  1.0000 -0.1812209722
N   N4        1.0  0.43760  0.24310  0.22945  1.0000 -0.1812209722
N   N5        1.0  0.88330  0.53290  0.61180  1.0000 -0.1863033399
N   N6        1.0  0.11670  0.96710  0.11180  1.0000 -0.1863033399
N   N7        1.0  0.38330  0.46710  0.88820  1.0000 -0.1863033399
N   N8        1.0  0.61670  0.03290  0.38820  1.0000 -0.1863033399
N   N9        1.0  0.87620  0.88773  0.58934  1.0000 -0.1812209722
N   N10       1.0  0.12380  0.61227  0.08934  1.0000 -0.1812209722
N   N11       1.0  0.37620  0.11227  0.91066  1.0000 -0.1812209722
N   N12       1.0  0.62380  0.38773  0.41066  1.0000 -0.1812209722
N   N13       1.0  0.94700  0.68040  0.67422  1.0000 -0.4180325655
N   N14       1.0  0.05300  0.81960  0.17422  1.0000 -0.4141744078
N   N15       1.0  0.44700  0.31960  0.82578  1.0000 -0.4141744078
N   N16       1.0  0.55300  0.18040  0.32578  1.0000 -0.4141744078
N   N17       1.0  0.90790  0.71570  0.62867  1.0000 -0.4180325655
N   N18       1.0  0.09210  0.78430  0.12867  1.0000 -0.4180325655
N   N19       1.0  0.40790  0.28430  0.87133  1.0000 -0.4180325655
N   N20       1.0  0.59210  0.21570  0.37133  1.0000 -0.4180325655
N   N21       1.0  0.94230  0.76726  0.66913  1.0000 -0.4180325655
N   N22       1.0  0.05770  0.73274  0.16913  1.0000 -0.4180325655
N   N23       1.0  0.44230  0.23274  0.83087  1.0000 -0.4180325655
N   N24       1.0  0.55770  0.26726  0.33087  1.0000 -0.4180325655
N   N25       1.0  0.06630  0.56905  0.02739  1.0000 -0.1812209722
N   N26       1.0  0.93370  0.93095  0.52739  1.0000 -0.1812209722
N   N27       1.0  0.56630  0.43095  0.47261  1.0000 -0.1812209722
N   N28       1.0  0.43370  0.06905  0.97261  1.0000 -0.1812209722
N   N29       1.0  0.06750  0.71480  0.83921  1.0000 -0.1812209722
N   N30       1.0  0.93250  0.78520  0.33921  1.0000 -0.1812209722
N   N31       1.0  0.56750  0.28520  0.66079  1.0000 -0.1812209722
N   N32       1.0  0.43250  0.21480  0.16079  1.0000 -0.1812209722
N   N33       1.0  0.48120  0.56620  0.91264  1.0000 -0.1812209722
N   N34       1.0  0.51880  0.93380  0.41264  1.0000 -0.1812209722
N   N35       1.0  0.98120  0.43380  0.58736  1.0000 -0.1812209722
N   N36       1.0  0.01880  0.06620  0.08736  1.0000 -0.1812209722
N   N37       1.0  0.95690  0.64290  0.93354  1.0000 -0.3888225407
N   N38       1.0  0.04310  0.85710  0.43354  1.0000 -0.3888225407
N   N39       1.0  0.45690  0.35710  0.56646  1.0000 -0.3888225407
N   N40       1.0  0.54310  0.14290  0.06646  1.0000 -0.3888225407
N   N41       1.0  0.81560  0.63820  0.90403  1.0000 -0.3800651022
N   N42       1.0  0.18440  0.86180  0.40403  1.0000 -0.3800651022
N   N43       1.0  0.31560  0.36180  0.59597  1.0000 -0.3800651022
N   N44       1.0  0.68440  0.13820  0.09597  1.0000 -0.3800651022
N   N45       1.0  0.81070  0.60810  0.95254  1.0000 -0.3800651022
N   N46       1.0  0.18930  0.89190  0.45254  1.0000 -0.3800651022
N   N47       1.0  0.31070  0.39190  0.54746  1.0000 -0.3800651022
N   N48       1.0  0.68930  0.10810  0.04746  1.0000 -0.3800651022
N   N49       1.0  0.93760  0.25690  0.22945  1.0000 -0.1812209722
N   N50       1.0  0.06240  0.24310  0.72945  1.0000 -0.1812209722
N   N51       1.0  0.43760  0.74310  0.27055  1.0000 -0.1812209722
N   N52       1.0  0.56240  0.75690  0.77055  1.0000 -0.1812209722
N   N53       1.0  0.11670  0.46710  0.38820  1.0000 -0.1863033399
N   N54       1.0  0.88330  0.03290  0.88820  1.0000 -0.1863033399
N   N55       1.0  0.61670  0.53290  0.11180  1.0000 -0.1863033399
N   N56       1.0  0.38330  0.96710  0.61180  1.0000 -0.1863033399
N   N57       1.0  0.12380  0.11227  0.41066  1.0000 -0.1812209722
N   N58       1.0  0.87620  0.38773  0.91066  1.0000 -0.1812209722
N   N59       1.0  0.62380  0.88773  0.08934  1.0000 -0.1812209722
N   N60       1.0  0.37620  0.61227  0.58934  1.0000 -0.1812209722
N   N61       1.0  0.05300  0.31960  0.32578  1.0000 -0.4141744078
N   N62       1.0  0.94700  0.18040  0.82578  1.0000 -0.4141744078
N   N63       1.0  0.55300  0.68040  0.17422  1.0000 -0.4180325655
N   N64       1.0  0.44700  0.81960  0.67422  1.0000 -0.4141744078
N   N65       1.0  0.09210  0.28430  0.37133  1.0000 -0.4180325655
N   N66       1.0  0.90790  0.21570  0.87133  1.0000 -0.4180325655
N   N67       1.0  0.59210  0.71570  0.12867  1.0000 -0.4180325655
N   N68       1.0  0.40790  0.78430  0.62867  1.0000 -0.4180325655
N   N69       1.0  0.05770  0.23274  0.33087  1.0000 -0.4180325655
N   N70       1.0  0.94230  0.26726  0.83087  1.0000 -0.4180325655
N   N71       1.0  0.55770  0.76726  0.16913  1.0000 -0.4180325655
N   N72       1.0  0.44230  0.73274  0.66913  1.0000 -0.4180325655
N   N73       1.0  0.93370  0.43095  0.97261  1.0000 -0.1812209722
N   N74       1.0  0.06630  0.06905  0.47261  1.0000 -0.1812209722
N   N75       1.0  0.43370  0.56905  0.52739  1.0000 -0.1812209722
N   N76       1.0  0.56630  0.93095  0.02739  1.0000 -0.1812209722
N   N77       1.0  0.93250  0.28520  0.16079  1.0000 -0.1812209722
N   N78       1.0  0.06750  0.21480  0.66079  1.0000 -0.1812209722
N   N79       1.0  0.43250  0.71480  0.33921  1.0000 -0.1812209722
N   N80       1.0  0.56750  0.78520  0.83921  1.0000 -0.1812209722
N   N81       1.0  0.51880  0.43380  0.08736  1.0000 -0.1812209722
N   N82       1.0  0.48120  0.06620  0.58736  1.0000 -0.1812209722
N   N83       1.0  0.01880  0.56620  0.41264  1.0000 -0.1812209722
N   N84       1.0  0.98120  0.93380  0.91264  1.0000 -0.1812209722
N   N85       1.0  0.04310  0.35710  0.06646  1.0000 -0.3888225407
N   N86       1.0  0.95690  0.14290  0.56646  1.0000 -0.3888225407
N   N87       1.0  0.54310  0.64290  0.43354  1.0000 -0.3888225407
N   N88       1.0  0.45690  0.85710  0.93354  1.0000 -0.3888225407
N   N89       1.0  0.18440  0.36180  0.09597  1.0000 -0.3800651022
N   N90       1.0  0.81560  0.13820  0.59597  1.0000 -0.3800651022
N   N91       1.0  0.68440  0.63820  0.40403  1.0000 -0.3800651022
N   N92       1.0  0.31560  0.86180  0.90403  1.0000 -0.3800651022
N   N93       1.0  0.18930  0.39190  0.04746  1.0000 -0.3800651022
N   N94       1.0  0.81070  0.10810  0.54746  1.0000 -0.3800651022
N   N95       1.0  0.68930  0.60810  0.45254  1.0000 -0.3800651022
N   N96       1.0  0.31070  0.89190  0.95254  1.0000 -0.3800651022
