# DDEC6 charges by PACMAN v1.1 (https://github.com/mtap-research/PACMAN-charge/)
data_2011[La][nan]3[ASR]1
_chemical_formula_sum              "La8 H16 C56 N16 O48"
_cell_length_a       11.0417
_cell_length_b       12.135
_cell_length_c       19.6509
_cell_angle_alpha    90
_cell_angle_beta     90
_cell_angle_gamma    90

_symmetry_space_group_name_H-M    "P 1"
_symmetry_Int_Tables_number       1

loop_
  _symmetry_equiv_pos_as_xyz
  'x, y, z'

loop_
  _atom_site_type_symbol
  _atom_site_label
  _atom_site_symmetry_multiplicity
  _atom_site_fract_x
  _atom_site_fract_y
  _atom_site_fract_z
  _atom_site_occupancy
  _atom_site_charge
La  La1       1.0  0.36417  0.84041  0.87864  1.0000 1.7214092699
La  La2       1.0  0.63583  0.15959  0.37864  1.0000 1.7214092699
La  La3       1.0  0.86417  0.65959  0.37864  1.0000 1.7214092699
La  La4       1.0  0.13583  0.34041  0.87864  1.0000 1.7214092699
La  La5       1.0  0.88359  0.01807  0.66487  1.0000 1.7518801478
La  La6       1.0  0.11641  0.98193  0.16487  1.0000 1.7518801478
La  La7       1.0  0.38359  0.48193  0.16487  1.0000 1.7518801478
La  La8       1.0  0.61641  0.51807  0.66487  1.0000 1.7518801478
H   H1        1.0  0.15500  0.98750  0.76780  1.0000 0.1038787601
H   H2        1.0  0.84500  0.01250  0.26780  1.0000 0.1038787601
H   H3        1.0  0.65500  0.51250  0.26780  1.0000 0.1038787601
H   H4        1.0  0.34500  0.48750  0.76780  1.0000 0.1038787601
H   H5        1.0  0.26630  0.73220  0.61200  1.0000 0.1716586736
H   H6        1.0  0.73370  0.26780  0.11200  1.0000 0.1716586736
H   H7        1.0  0.76630  0.76780  0.11200  1.0000 0.1716586736
H   H8        1.0  0.23370  0.23220  0.61200  1.0000 0.1716586736
H   H9        1.0  0.62970  0.90020  0.76840  1.0000 0.1094336746
H   H10       1.0  0.37030  0.09980  0.26840  1.0000 0.1094336746
H   H11       1.0  0.12970  0.59980  0.26840  1.0000 0.1094336746
H   H12       1.0  0.87030  0.40020  0.76840  1.0000 0.1094336746
H   H13       1.0  0.49240  0.25260  0.77580  1.0000 0.1503186139
H   H14       1.0  0.50760  0.74740  0.27580  1.0000 0.1503186139
H   H15       1.0  0.99240  0.24740  0.27580  1.0000 0.1503186139
H   H16       1.0  0.00760  0.75260  0.77580  1.0000 0.1503186139
C   C1        1.0  0.17630  0.93270  0.73700  1.0000 0.2506050455
C   C2        1.0  0.82370  0.06730  0.23700  1.0000 0.2506050455
C   C3        1.0  0.67630  0.56730  0.23700  1.0000 0.2506050455
C   C4        1.0  0.32370  0.43270  0.73700  1.0000 0.2506050455
C   C5        1.0  0.13750  0.84240  0.63730  1.0000 0.1585795724
C   C6        1.0  0.86250  0.15760  0.13730  1.0000 0.1585795724
C   C7        1.0  0.63750  0.65760  0.13730  1.0000 0.1585795724
C   C8        1.0  0.36250  0.34240  0.63730  1.0000 0.1585795724
C   C9        1.0  0.24130  0.78200  0.64510  1.0000 -0.1587568435
C   C10       1.0  0.75870  0.21800  0.14510  1.0000 -0.1587568435
C   C11       1.0  0.74130  0.71800  0.14510  1.0000 -0.1587568435
C   C12       1.0  0.25870  0.28200  0.64510  1.0000 -0.1587568435
C   C13       1.0  0.30730  0.79780  0.70370  1.0000 0.1503186139
C   C14       1.0  0.69270  0.20220  0.20370  1.0000 0.1503186139
C   C15       1.0  0.80730  0.70220  0.20370  1.0000 0.1503186139
C   C16       1.0  0.19270  0.29780  0.70370  1.0000 0.1503186139
C   C17       1.0  0.41350  0.72420  0.72250  1.0000 0.5646208314
C   C18       1.0  0.58650  0.27580  0.22250  1.0000 0.5646208314
C   C19       1.0  0.91350  0.77580  0.22250  1.0000 0.5646208314
C   C20       1.0  0.08650  0.22420  0.72250  1.0000 0.5646208314
C   C21       1.0  0.05270  0.82400  0.57770  1.0000 0.5399867979
C   C22       1.0  0.94730  0.17600  0.07770  1.0000 0.5399867979
C   C23       1.0  0.55270  0.67600  0.07770  1.0000 0.5399867979
C   C24       1.0  0.44730  0.32400  0.57770  1.0000 0.5399867979
C   C25       1.0  0.60170  0.97250  0.76940  1.0000 0.2553590921
C   C26       1.0  0.39830  0.02750  0.26940  1.0000 0.2506050455
C   C27       1.0  0.10170  0.52750  0.26940  1.0000 0.2553590921
C   C28       1.0  0.89830  0.47250  0.76940  1.0000 0.2506050455
C   C29       1.0  0.62660  0.15010  0.73940  1.0000 0.1585795724
C   C30       1.0  0.37340  0.84990  0.23940  1.0000 0.1585795724
C   C31       1.0  0.12660  0.34990  0.23940  1.0000 0.1585795724
C   C32       1.0  0.87340  0.65010  0.73940  1.0000 0.1585795724
C   C33       1.0  0.51960  0.18020  0.77360  1.0000 -0.1722602273
C   C34       1.0  0.48040  0.81980  0.27360  1.0000 -0.1722602273
C   C35       1.0  0.01960  0.31980  0.27360  1.0000 -0.1722602273
C   C36       1.0  0.98040  0.68020  0.77360  1.0000 -0.1722602273
C   C37       1.0  0.45870  0.09410  0.80350  1.0000 0.1503186139
C   C38       1.0  0.54130  0.90590  0.30350  1.0000 0.1503186139
C   C39       1.0  0.95870  0.40590  0.30350  1.0000 0.1503186139
C   C40       1.0  0.04130  0.59410  0.80350  1.0000 0.1503186139
C   C41       1.0  0.33870  0.11540  0.84190  1.0000 0.5673556713
C   C42       1.0  0.66130  0.88460  0.34190  1.0000 0.5673556713
C   C43       1.0  0.83870  0.38460  0.34190  1.0000 0.5673556713
C   C44       1.0  0.16130  0.61540  0.84190  1.0000 0.5673556713
C   C45       1.0  0.70420  0.23900  0.70620  1.0000 0.5795646694
C   C46       1.0  0.29580  0.76100  0.20620  1.0000 0.5795646694
C   C47       1.0  0.20420  0.26100  0.20620  1.0000 0.5795646694
C   C48       1.0  0.79580  0.73900  0.70620  1.0000 0.5795646694
C   C49       1.0  0.82200  0.11280  0.50880  1.0000 0.493880072
C   C50       1.0  0.17800  0.88720  0.00880  1.0000 0.493880072
C   C51       1.0  0.32200  0.38720  0.00880  1.0000 0.493880072
C   C52       1.0  0.67800  0.61280  0.50880  1.0000 0.493880072
C   C53       1.0  0.70080  0.06160  0.53200  1.0000 0.5066811827
C   C54       1.0  0.29920  0.93840  0.03200  1.0000 0.5066811827
C   C55       1.0  0.20080  0.43840  0.03200  1.0000 0.5066811827
C   C56       1.0  0.79920  0.56160  0.53200  1.0000 0.5066811827
N   N1        1.0  0.27490  0.87360  0.75030  1.0000 -0.3306371893
N   N2        1.0  0.72510  0.12640  0.25030  1.0000 -0.3306371893
N   N3        1.0  0.77490  0.62640  0.25030  1.0000 -0.3306371893
N   N4        1.0  0.22510  0.37360  0.75030  1.0000 -0.3306371893
N   N5        1.0  0.10660  0.91920  0.68300  1.0000 -0.3511774453
N   N6        1.0  0.89340  0.08080  0.18300  1.0000 -0.3511774453
N   N7        1.0  0.60660  0.58080  0.18300  1.0000 -0.3511774453
N   N8        1.0  0.39340  0.41920  0.68300  1.0000 -0.3511774453
N   N9        1.0  0.50000  0.99110  0.80370  1.0000 -0.3511774453
N   N10       1.0  0.50000  0.00890  0.30370  1.0000 -0.3511774453
N   N11       1.0  0.00000  0.50890  0.30370  1.0000 -0.3511774453
N   N12       1.0  0.00000  0.49110  0.80370  1.0000 -0.3511774453
N   N13       1.0  0.66720  0.04690  0.73640  1.0000 -0.3306371893
N   N14       1.0  0.33280  0.95310  0.23640  1.0000 -0.3306371893
N   N15       1.0  0.16720  0.45310  0.23640  1.0000 -0.3306371893
N   N16       1.0  0.83280  0.54690  0.73640  1.0000 -0.3306371893
O   O1        1.0  0.45690  0.73610  0.78100  1.0000 -0.6090139362
O   O2        1.0  0.54310  0.26390  0.28100  1.0000 -0.6090139362
O   O3        1.0  0.95690  0.76390  0.28100  1.0000 -0.6090139362
O   O4        1.0  0.04310  0.23610  0.78100  1.0000 -0.6090139362
O   O5        1.0  0.44700  0.65630  0.67830  1.0000 -0.5667739622
O   O6        1.0  0.55300  0.34370  0.17830  1.0000 -0.5667739622
O   O7        1.0  0.94700  0.84370  0.17830  1.0000 -0.5667739622
O   O8        1.0  0.05300  0.15630  0.67830  1.0000 -0.5667739622
O   O9        1.0  0.96150  0.88450  0.57390  1.0000 -0.5597118112
O   O10       1.0  0.03850  0.11550  0.07390  1.0000 -0.5597118112
O   O11       1.0  0.46150  0.61550  0.07390  1.0000 -0.5597118112
O   O12       1.0  0.53850  0.38450  0.57390  1.0000 -0.5597118112
O   O13       1.0  0.08270  0.75070  0.53690  1.0000 -0.5105400222
O   O14       1.0  0.91730  0.24930  0.03690  1.0000 -0.5105400222
O   O15       1.0  0.58270  0.74930  0.03690  1.0000 -0.5105400222
O   O16       1.0  0.41730  0.25070  0.53690  1.0000 -0.5105400222
O   O17       1.0  0.29020  0.03450  0.87140  1.0000 -0.577933124
O   O18       1.0  0.70980  0.96550  0.37140  1.0000 -0.577933124
O   O19       1.0  0.79020  0.46550  0.37140  1.0000 -0.577933124
O   O20       1.0  0.20980  0.53450  0.87140  1.0000 -0.577933124
O   O21       1.0  0.29730  0.21030  0.83730  1.0000 -0.5597118112
O   O22       1.0  0.70270  0.78970  0.33730  1.0000 -0.5667739622
O   O23       1.0  0.79730  0.28970  0.33730  1.0000 -0.5667739622
O   O24       1.0  0.20270  0.71030  0.83730  1.0000 -0.5597118112
O   O25       1.0  0.79920  0.20820  0.67780  1.0000 -0.5481948468
O   O26       1.0  0.20080  0.79180  0.17780  1.0000 -0.5481948468
O   O27       1.0  0.29920  0.29180  0.17780  1.0000 -0.5481948468
O   O28       1.0  0.70080  0.70820  0.67780  1.0000 -0.5481948468
O   O29       1.0  0.66710  0.33720  0.71060  1.0000 -0.6299705717
O   O30       1.0  0.33290  0.66280  0.21060  1.0000 -0.6299705717
O   O31       1.0  0.16710  0.16280  0.21060  1.0000 -0.6299705717
O   O32       1.0  0.83290  0.83720  0.71060  1.0000 -0.6299705717
O   O33       1.0  0.90880  0.11470  0.55170  1.0000 -0.5207599017
O   O34       1.0  0.09120  0.88530  0.05170  1.0000 -0.5207599017
O   O35       1.0  0.40880  0.38530  0.05170  1.0000 -0.5207599017
O   O36       1.0  0.59120  0.61470  0.55170  1.0000 -0.5207599017
O   O37       1.0  0.82630  0.14980  0.44950  1.0000 -0.5310126158
O   O38       1.0  0.17370  0.85020  0.94950  1.0000 -0.5310126158
O   O39       1.0  0.32630  0.35020  0.94950  1.0000 -0.5310126158
O   O40       1.0  0.67370  0.64980  0.44950  1.0000 -0.5310126158
O   O41       1.0  0.70410  0.00570  0.58690  1.0000 -0.5597118112
O   O42       1.0  0.29590  0.99430  0.08690  1.0000 -0.5597118112
O   O43       1.0  0.20410  0.49430  0.08690  1.0000 -0.5597118112
O   O44       1.0  0.79590  0.50570  0.58690  1.0000 -0.5597118112
O   O45       1.0  0.61270  0.07540  0.49550  1.0000 -0.5105400222
O   O46       1.0  0.38730  0.92460  0.99550  1.0000 -0.5105400222
O   O47       1.0  0.11270  0.42460  0.99550  1.0000 -0.5105400222
O   O48       1.0  0.88730  0.57540  0.49550  1.0000 -0.5105400222
