# DDEC6 charges by PACMAN v1.1 (https://github.com/mtap-research/PACMAN-charge/)
data_2011[Zn][sra]3[ASR]2
_chemical_formula_sum              "Zn8 H32 C68 O40"
_cell_length_a       11.2562
_cell_length_b       13.1744
_cell_length_c       20.3965
_cell_angle_alpha    90
_cell_angle_beta     90
_cell_angle_gamma    90

_symmetry_space_group_name_H-M    "P 1"
_symmetry_Int_Tables_number       1

loop_
  _symmetry_equiv_pos_as_xyz
  'x, y, z'

loop_
  _atom_site_type_symbol
  _atom_site_label
  _atom_site_symmetry_multiplicity
  _atom_site_fract_x
  _atom_site_fract_y
  _atom_site_fract_z
  _atom_site_occupancy
  _atom_site_charge
Zn  Zn1       1.0  0.32282  0.02153  0.53225  1.0000 1.0061694458
Zn  Zn2       1.0  0.17718  0.97847  0.03225  1.0000 1.0061694458
Zn  Zn3       1.0  0.67718  0.52153  0.96775  1.0000 1.0061694458
Zn  Zn4       1.0  0.82282  0.47847  0.46775  1.0000 1.0061694458
Zn  Zn5       1.0  0.11040  0.92795  0.64066  1.0000 0.9309873357
Zn  Zn6       1.0  0.38960  0.07205  0.14066  1.0000 0.9309873357
Zn  Zn7       1.0  0.88960  0.42795  0.85934  1.0000 0.9309873357
Zn  Zn8       1.0  0.61040  0.57205  0.35934  1.0000 0.9309873357
H   H1        1.0  0.37070  0.70570  0.71010  1.0000 0.1465832442
H   H2        1.0  0.12930  0.29430  0.21010  1.0000 0.1465832442
H   H3        1.0  0.62930  0.20570  0.78990  1.0000 0.1465832442
H   H4        1.0  0.87070  0.79430  0.28990  1.0000 0.1465832442
H   H5        1.0  0.45170  0.72560  0.51670  1.0000 0.1392728363
H   H6        1.0  0.04830  0.27440  0.01670  1.0000 0.1392728363
H   H7        1.0  0.54830  0.22560  0.98330  1.0000 0.1392728363
H   H8        1.0  0.95170  0.77440  0.48330  1.0000 0.1392728363
H   H9        1.0  0.59860  0.50230  0.62900  1.0000 0.1339693335
H   H10       1.0  0.90140  0.49770  0.12900  1.0000 0.1339693335
H   H11       1.0  0.40140  0.00230  0.87100  1.0000 0.1339693335
H   H12       1.0  0.09860  0.99770  0.37100  1.0000 0.1339693335
H   H13       1.0  0.64010  0.47720  0.74070  1.0000 0.1196744895
H   H14       1.0  0.85990  0.52280  0.24070  1.0000 0.1196744895
H   H15       1.0  0.35990  0.97720  0.75930  1.0000 0.1196744895
H   H16       1.0  0.14010  0.02280  0.25930  1.0000 0.1196744895
H   H17       1.0  0.55110  0.44520  0.79820  1.0000 0.1196744895
H   H18       1.0  0.94890  0.55480  0.29820  1.0000 0.1196744895
H   H19       1.0  0.44890  0.94520  0.70180  1.0000 0.1196744895
H   H20       1.0  0.05110  0.05480  0.20180  1.0000 0.1196744895
H   H21       1.0  0.33240  0.45040  0.78510  1.0000 0.1392728363
H   H22       1.0  0.16760  0.54960  0.28510  1.0000 0.1339693335
H   H23       1.0  0.66760  0.95040  0.71490  1.0000 0.1339693335
H   H24       1.0  0.83240  0.04960  0.21490  1.0000 0.1339693335
H   H25       1.0  0.10390  0.22120  0.74090  1.0000 0.1392728363
H   H26       1.0  0.39610  0.77880  0.24090  1.0000 0.1392728363
H   H27       1.0  0.89610  0.72120  0.75910  1.0000 0.1392728363
H   H28       1.0  0.60390  0.27880  0.25910  1.0000 0.1392728363
H   H29       1.0  0.43790  0.22180  0.66420  1.0000 0.1465832442
H   H30       1.0  0.06210  0.77820  0.16420  1.0000 0.1465832442
H   H31       1.0  0.56210  0.72180  0.83580  1.0000 0.1465832442
H   H32       1.0  0.93790  0.27820  0.33580  1.0000 0.1465832442
C   C1        1.0  0.48580  0.59630  0.67844  1.0000 0.2550217881
C   C2        1.0  0.01420  0.40370  0.17844  1.0000 0.253597858
C   C3        1.0  0.51420  0.09630  0.82156  1.0000 0.253597858
C   C4        1.0  0.98580  0.90370  0.32156  1.0000 0.2550217881
C   C5        1.0  0.41230  0.68100  0.67289  1.0000 -0.2103723235
C   C6        1.0  0.08770  0.31900  0.17289  1.0000 -0.2103723235
C   C7        1.0  0.58770  0.18100  0.82711  1.0000 -0.2103723235
C   C8        1.0  0.91230  0.81900  0.32711  1.0000 -0.2103723235
C   C9        1.0  0.40020  0.72950  0.61255  1.0000 -0.009612726
C   C10       1.0  0.09980  0.27050  0.11255  1.0000 -0.009612726
C   C11       1.0  0.59980  0.22950  0.88745  1.0000 -0.009612726
C   C12       1.0  0.90020  0.77050  0.38745  1.0000 -0.009612726
C   C13       1.0  0.45970  0.69240  0.55776  1.0000 -0.1317624413
C   C14       1.0  0.04030  0.30760  0.05776  1.0000 -0.1317624413
C   C15       1.0  0.54030  0.19240  0.94224  1.0000 -0.1317624413
C   C16       1.0  0.95970  0.80760  0.44224  1.0000 -0.1317624413
C   C17       1.0  0.53080  0.60650  0.56331  1.0000 0.0150928292
C   C18       1.0  0.96920  0.39350  0.06331  1.0000 0.014063837
C   C19       1.0  0.46920  0.10650  0.93669  1.0000 0.014063837
C   C20       1.0  0.03080  0.89350  0.43669  1.0000 0.014063837
C   C21       1.0  0.54680  0.55890  0.62467  1.0000 -0.2415765208
C   C22       1.0  0.95320  0.44110  0.12467  1.0000 -0.2415765208
C   C23       1.0  0.45320  0.05890  0.87533  1.0000 -0.2415765208
C   C24       1.0  0.04680  0.94110  0.37533  1.0000 -0.2415765208
C   C25       1.0  0.32020  0.82060  0.60605  1.0000 0.5915251448
C   C26       1.0  0.17980  0.17940  0.10605  1.0000 0.5915251448
C   C27       1.0  0.67980  0.32060  0.89395  1.0000 0.5915251448
C   C28       1.0  0.82020  0.67940  0.39395  1.0000 0.5915251448
C   C29       1.0  0.58790  0.56350  0.50290  1.0000 0.6076875403
C   C30       1.0  0.91210  0.43650  0.00290  1.0000 0.6076875403
C   C31       1.0  0.41210  0.06350  0.99710  1.0000 0.6076875403
C   C32       1.0  0.08790  0.93650  0.49710  1.0000 0.6076875403
C   C33       1.0  0.55570  0.46400  0.75127  1.0000 0.1196744895
C   C34       1.0  0.94430  0.53600  0.25127  1.0000 0.1196744895
C   C35       1.0  0.44430  0.96400  0.74873  1.0000 0.1196744895
C   C36       1.0  0.05570  0.03600  0.24873  1.0000 0.1196744895
C   C37       1.0  0.40250  0.34300  0.72419  1.0000 0.253597858
C   C38       1.0  0.09750  0.65700  0.22419  1.0000 0.253597858
C   C39       1.0  0.59750  0.84300  0.77581  1.0000 0.253597858
C   C40       1.0  0.90250  0.15700  0.27581  1.0000 0.253597858
C   C41       1.0  0.31580  0.38890  0.76253  1.0000 -0.2415765208
C   C42       1.0  0.18420  0.61110  0.26253  1.0000 -0.2415765208
C   C43       1.0  0.68420  0.88890  0.73747  1.0000 -0.2415765208
C   C44       1.0  0.81580  0.11110  0.23747  1.0000 -0.2415765208
C   C45       1.0  0.20370  0.34350  0.76758  1.0000 0.030333504
C   C46       1.0  0.29630  0.65650  0.26758  1.0000 0.030333504
C   C47       1.0  0.79630  0.84350  0.73242  1.0000 0.030333504
C   C48       1.0  0.70370  0.15650  0.23242  1.0000 0.030333504
C   C49       1.0  0.17950  0.25240  0.73604  1.0000 -0.1317624413
C   C50       1.0  0.32050  0.74760  0.23604  1.0000 -0.1317624413
C   C51       1.0  0.82050  0.75240  0.76396  1.0000 -0.1317624413
C   C52       1.0  0.67950  0.24760  0.26396  1.0000 -0.1317624413
C   C53       1.0  0.26660  0.20680  0.69721  1.0000 -0.009612726
C   C54       1.0  0.23340  0.79320  0.19721  1.0000 -0.009612726
C   C55       1.0  0.73340  0.70680  0.80279  1.0000 -0.009612726
C   C56       1.0  0.76660  0.29320  0.30279  1.0000 -0.009612726
C   C57       1.0  0.37860  0.25230  0.69091  1.0000 -0.2103723235
C   C58       1.0  0.12140  0.74770  0.19091  1.0000 -0.2103723235
C   C59       1.0  0.62140  0.75230  0.80909  1.0000 -0.2103723235
C   C60       1.0  0.87860  0.24770  0.30909  1.0000 -0.2103723235
C   C61       1.0  0.10750  0.39780  0.80611  1.0000 0.5482467338
C   C62       1.0  0.39250  0.60220  0.30611  1.0000 0.5482467338
C   C63       1.0  0.89250  0.89780  0.69389  1.0000 0.5482467338
C   C64       1.0  0.60750  0.10220  0.19389  1.0000 0.5482467338
C   C65       1.0  0.24250  0.11100  0.66028  1.0000 0.5915251448
C   C66       1.0  0.25750  0.88900  0.16028  1.0000 0.5915251448
C   C67       1.0  0.75750  0.61100  0.83972  1.0000 0.5915251448
C   C68       1.0  0.74250  0.38900  0.33972  1.0000 0.5915251448
O   O1        1.0  0.25310  0.84177  0.65422  1.0000 -0.5425644219
O   O2        1.0  0.24690  0.15823  0.15422  1.0000 -0.5425644219
O   O3        1.0  0.74690  0.34177  0.84578  1.0000 -0.5425644219
O   O4        1.0  0.75310  0.65823  0.34578  1.0000 -0.5425644219
O   O5        1.0  0.32480  0.86905  0.55265  1.0000 -0.5869706647
O   O6        1.0  0.17520  0.13095  0.05265  1.0000 -0.5869706647
O   O7        1.0  0.67520  0.36905  0.94735  1.0000 -0.5869706647
O   O8        1.0  0.82480  0.63095  0.44735  1.0000 -0.5869706647
O   O9        1.0  0.55588  0.60034  0.44912  1.0000 -0.5202774928
O   O10       1.0  0.94412  0.39966  0.94912  1.0000 -0.5202774928
O   O11       1.0  0.44412  0.10034  0.05088  1.0000 -0.5202774928
O   O12       1.0  0.05588  0.89966  0.55088  1.0000 -0.5202774928
O   O13       1.0  0.66260  0.49210  0.51036  1.0000 -0.584059991
O   O14       1.0  0.83740  0.50790  0.01036  1.0000 -0.584059991
O   O15       1.0  0.33740  0.99210  0.98964  1.0000 -0.584059991
O   O16       1.0  0.16260  0.00790  0.48964  1.0000 -0.584059991
O   O17       1.0  0.48922  0.55461  0.74102  1.0000 -0.2159986869
O   O18       1.0  0.01078  0.44539  0.24102  1.0000 -0.2103723235
O   O19       1.0  0.51078  0.05461  0.75898  1.0000 -0.2159986869
O   O20       1.0  0.98922  0.94539  0.25898  1.0000 -0.2103723235
O   O21       1.0  0.51506  0.38160  0.71297  1.0000 -0.2103723235
O   O22       1.0  0.98494  0.61840  0.21297  1.0000 -0.2103723235
O   O23       1.0  0.48494  0.88160  0.78703  1.0000 -0.2103723235
O   O24       1.0  0.01506  0.11840  0.28703  1.0000 -0.2103723235
O   O25       1.0  0.13001  0.47767  0.83474  1.0000 -0.5093042181
O   O26       1.0  0.36999  0.52233  0.33474  1.0000 -0.5093042181
O   O27       1.0  0.86999  0.97767  0.66526  1.0000 -0.5093042181
O   O28       1.0  0.63001  0.02233  0.16526  1.0000 -0.5093042181
O   O29       1.0  0.00425  0.35644  0.80428  1.0000 -0.5425644219
O   O30       1.0  0.49575  0.64356  0.30428  1.0000 -0.5425644219
O   O31       1.0  0.99575  0.85644  0.69572  1.0000 -0.5425644219
O   O32       1.0  0.50425  0.14356  0.19572  1.0000 -0.5425644219
O   O33       1.0  0.14499  0.06646  0.67100  1.0000 -0.5257362351
O   O34       1.0  0.35501  0.93354  0.17100  1.0000 -0.5257362351
O   O35       1.0  0.85501  0.56646  0.82900  1.0000 -0.5257362351
O   O36       1.0  0.64499  0.43354  0.32900  1.0000 -0.5257362351
O   O37       1.0  0.32214  0.08120  0.62123  1.0000 -0.6070204899
O   O38       1.0  0.17786  0.91880  0.12123  1.0000 -0.6070204899
O   O39       1.0  0.67786  0.58120  0.87877  1.0000 -0.6070204899
O   O40       1.0  0.82214  0.41880  0.37877  1.0000 -0.6070204899
