# DDEC6 charges by PACMAN v1.1 (https://github.com/mtap-research/PACMAN-charge/)
data_2011[CuW][ths]3[ASR]1
_chemical_formula_sum              "Cu24 H128 W8 C160 S24 N32 Cl8"
_cell_length_a       32.8316
_cell_length_b       31.9649
_cell_length_c       19.5716
_cell_angle_alpha    74.8553
_cell_angle_beta     70.0159
_cell_angle_gamma    35.1287

_symmetry_space_group_name_H-M    "P 1"
_symmetry_Int_Tables_number       1

loop_
  _symmetry_equiv_pos_as_xyz
  'x, y, z'

loop_
  _atom_site_type_symbol
  _atom_site_label
  _atom_site_symmetry_multiplicity
  _atom_site_fract_x
  _atom_site_fract_y
  _atom_site_fract_z
  _atom_site_occupancy
  _atom_site_charge
Cu  Cu1       1.0  0.38709  0.84783  0.99325  1.0000 0.2713288137
Cu  Cu2       1.0  0.77183  0.99325  0.84783  1.0000 0.2713288137
Cu  Cu3       1.0  0.86291  0.40217  0.25675  1.0000 0.2713288137
Cu  Cu4       1.0  0.47817  0.25675  0.40217  1.0000 0.2713288137
Cu  Cu5       1.0  0.35586  0.93164  0.80962  1.0000 0.3896892995
Cu  Cu6       1.0  0.90288  0.80962  0.93164  1.0000 0.3896892995
Cu  Cu7       1.0  0.89414  0.31836  0.44038  1.0000 0.3896892995
Cu  Cu8       1.0  0.34712  0.44038  0.31836  1.0000 0.3896892995
Cu  Cu9       1.0  0.26442  0.90352  0.91100  1.0000 0.2788019658
Cu  Cu10      1.0  0.92106  0.91100  0.90352  1.0000 0.2788019658
Cu  Cu11      1.0  0.98558  0.34648  0.33900  1.0000 0.2788019658
Cu  Cu12      1.0  0.32894  0.33900  0.34648  1.0000 0.2788019658
Cu  Cu13      1.0  0.84783  0.38709  0.77183  1.0000 0.2713288137
Cu  Cu14      1.0  0.99325  0.77183  0.38709  1.0000 0.2713288137
Cu  Cu15      1.0  0.40217  0.86291  0.47817  1.0000 0.2713288137
Cu  Cu16      1.0  0.25675  0.47817  0.86291  1.0000 0.2713288137
Cu  Cu17      1.0  0.93164  0.35586  0.90288  1.0000 0.3896892995
Cu  Cu18      1.0  0.80962  0.90288  0.35586  1.0000 0.3896892995
Cu  Cu19      1.0  0.31836  0.89414  0.34712  1.0000 0.3896892995
Cu  Cu20      1.0  0.44038  0.34712  0.89414  1.0000 0.3896892995
Cu  Cu21      1.0  0.90352  0.26442  0.92106  1.0000 0.2788019658
Cu  Cu22      1.0  0.91100  0.92106  0.26442  1.0000 0.2788019658
Cu  Cu23      1.0  0.34648  0.98558  0.32894  1.0000 0.2788019658
Cu  Cu24      1.0  0.33900  0.32894  0.98558  1.0000 0.2788019658
H   H1        1.0  0.09090  0.27390  0.19850  1.0000 0.1004424027
H   H2        1.0  0.43670  0.19850  0.27390  1.0000 0.1004424027
H   H3        1.0  0.15910  0.97610  0.05150  1.0000 0.1004424027
H   H4        1.0  0.81330  0.05150  0.97610  1.0000 0.1004424027
H   H5        1.0  0.17340  0.17600  0.12500  1.0000 0.1283619928
H   H6        1.0  0.52560  0.12500  0.17600  1.0000 0.1283619928
H   H7        1.0  0.07660  0.07400  0.12500  1.0000 0.1283619928
H   H8        1.0  0.72440  0.12500  0.07400  1.0000 0.1283619928
H   H9        1.0  0.13040  0.10000  0.28260  1.0000 0.142120668
H   H10       1.0  0.48700  0.28260  0.10000  1.0000 0.142120668
H   H11       1.0  0.11960  0.15000  0.96740  1.0000 0.142120668
H   H12       1.0  0.76300  0.96740  0.15000  1.0000 0.142120668
H   H13       1.0  0.05540  0.19800  0.35300  1.0000 0.1089409717
H   H14       1.0  0.39360  0.35300  0.19800  1.0000 0.1089409717
H   H15       1.0  0.19460  0.05200  0.89700  1.0000 0.1089409717
H   H16       1.0  0.85640  0.89700  0.05200  1.0000 0.1089409717
H   H17       1.0  0.25530  0.07930  0.06830  1.0000 0.1283619928
H   H18       1.0  0.59710  0.06830  0.07930  1.0000 0.1283619928
H   H19       1.0  0.99470  0.17070  0.18170  1.0000 0.1283619928
H   H20       1.0  0.65290  0.18170  0.17070  1.0000 0.1283619928
H   H21       1.0  0.32700  0.98100  0.99060  1.0000 0.1089409717
H   H22       1.0  0.70140  0.99060  0.98100  1.0000 0.1089409717
H   H23       1.0  0.92300  0.26900  0.25940  1.0000 0.1089409717
H   H24       1.0  0.54860  0.25940  0.26900  1.0000 0.1089409717
H   H25       1.0  0.28090  0.91390  0.13730  1.0000 0.1089409717
H   H26       1.0  0.66790  0.13730  0.91390  1.0000 0.1089409717
H   H27       1.0  0.96910  0.33610  0.11270  1.0000 0.1089409717
H   H28       1.0  0.58210  0.11270  0.33610  1.0000 0.1089409717
H   H29       1.0  0.20250  0.00950  0.21270  1.0000 0.142120668
H   H30       1.0  0.57530  0.21270  0.00950  1.0000 0.142120668
H   H31       1.0  0.04750  0.24050  0.03730  1.0000 0.142120668
H   H32       1.0  0.67470  0.03730  0.24050  1.0000 0.142120668
H   H33       1.0  0.14660  0.98520  0.85120  1.0000 0.1004424027
H   H34       1.0  0.01700  0.85120  0.98520  1.0000 0.1004424027
H   H35       1.0  0.10340  0.26480  0.39880  1.0000 0.1004424027
H   H36       1.0  0.23300  0.39880  0.26480  1.0000 0.1004424027
H   H37       1.0  0.06980  0.99120  0.84660  1.0000 0.1283619928
H   H38       1.0  0.09240  0.84660  0.99120  1.0000 0.1283619928
H   H39       1.0  0.18020  0.25880  0.40340  1.0000 0.1283619928
H   H40       1.0  0.15760  0.40340  0.25880  1.0000 0.1283619928
H   H41       1.0  0.16430  0.83610  0.98050  1.0000 0.1283619928
H   H42       1.0  0.01910  0.98050  0.83610  1.0000 0.1283619928
H   H43       1.0  0.08570  0.41390  0.26950  1.0000 0.1283619928
H   H44       1.0  0.23090  0.26950  0.41390  1.0000 0.1283619928
H   H45       1.0  0.24870  0.81950  0.97070  1.0000 0.1004424027
H   H46       1.0  0.96110  0.97070  0.81950  1.0000 0.1004424027
H   H47       1.0  0.00130  0.43050  0.27930  1.0000 0.1004424027
H   H48       1.0  0.28890  0.27930  0.43050  1.0000 0.1004424027
H   H49       1.0  0.52230  0.68830  0.98890  1.0000 0.1089409717
H   H50       1.0  0.80050  0.98890  0.68830  1.0000 0.1089409717
H   H51       1.0  0.72770  0.56170  0.26110  1.0000 0.1089409717
H   H52       1.0  0.44950  0.26110  0.56170  1.0000 0.1089409717
H   H53       1.0  0.62430  0.59610  0.03470  1.0000 0.1283619928
H   H54       1.0  0.74490  0.03470  0.59610  1.0000 0.1283619928
H   H55       1.0  0.62570  0.65390  0.21530  1.0000 0.1283619928
H   H56       1.0  0.50510  0.21530  0.65390  1.0000 0.1283619928
H   H57       1.0  0.53390  0.73750  0.17170  1.0000 0.1283619928
H   H58       1.0  0.55690  0.17170  0.73750  1.0000 0.1283619928
H   H59       1.0  0.71610  0.51250  0.07830  1.0000 0.1283619928
H   H60       1.0  0.69310  0.07830  0.51250  1.0000 0.1283619928
H   H61       1.0  0.44000  0.82720  0.11780  1.0000 0.1163499451
H   H62       1.0  0.61500  0.11780  0.82720  1.0000 0.1163499451
H   H63       1.0  0.81000  0.42280  0.13220  1.0000 0.1163499451
H   H64       1.0  0.63500  0.13220  0.42280  1.0000 0.1163499451
H   H65       1.0  0.27390  0.09090  0.43670  1.0000 0.1004424027
H   H66       1.0  0.19850  0.43670  0.09090  1.0000 0.1004424027
H   H67       1.0  0.97610  0.15910  0.81330  1.0000 0.1004424027
H   H68       1.0  0.05150  0.81330  0.15910  1.0000 0.1004424027
H   H69       1.0  0.17600  0.17340  0.52560  1.0000 0.1283619928
H   H70       1.0  0.12500  0.52560  0.17340  1.0000 0.1283619928
H   H71       1.0  0.07400  0.07660  0.72440  1.0000 0.1283619928
H   H72       1.0  0.12500  0.72440  0.07660  1.0000 0.1283619928
H   H73       1.0  0.10000  0.13040  0.48700  1.0000 0.142120668
H   H74       1.0  0.28260  0.48700  0.13040  1.0000 0.142120668
H   H75       1.0  0.15000  0.11960  0.76300  1.0000 0.142120668
H   H76       1.0  0.96740  0.76300  0.11960  1.0000 0.142120668
H   H77       1.0  0.19800  0.05540  0.39360  1.0000 0.1089409717
H   H78       1.0  0.35300  0.39360  0.05540  1.0000 0.1089409717
H   H79       1.0  0.05200  0.19460  0.85640  1.0000 0.1089409717
H   H80       1.0  0.89700  0.85640  0.19460  1.0000 0.1089409717
H   H81       1.0  0.07930  0.25530  0.59710  1.0000 0.1283619928
H   H82       1.0  0.06830  0.59710  0.25530  1.0000 0.1283619928
H   H83       1.0  0.17070  0.99470  0.65290  1.0000 0.1283619928
H   H84       1.0  0.18170  0.65290  0.99470  1.0000 0.1283619928
H   H85       1.0  0.98100  0.32700  0.70140  1.0000 0.1089409717
H   H86       1.0  0.99060  0.70140  0.32700  1.0000 0.1089409717
H   H87       1.0  0.26900  0.92300  0.54860  1.0000 0.1089409717
H   H88       1.0  0.25940  0.54860  0.92300  1.0000 0.1089409717
H   H89       1.0  0.91390  0.28090  0.66790  1.0000 0.1089409717
H   H90       1.0  0.13730  0.66790  0.28090  1.0000 0.1089409717
H   H91       1.0  0.33610  0.96910  0.58210  1.0000 0.1089409717
H   H92       1.0  0.11270  0.58210  0.96910  1.0000 0.1089409717
H   H93       1.0  0.00950  0.20250  0.57530  1.0000 0.142120668
H   H94       1.0  0.21270  0.57530  0.20250  1.0000 0.142120668
H   H95       1.0  0.24050  0.04750  0.67470  1.0000 0.142120668
H   H96       1.0  0.03730  0.67470  0.04750  1.0000 0.142120668
H   H97       1.0  0.98520  0.14660  0.01700  1.0000 0.1004424027
H   H98       1.0  0.85120  0.01700  0.14660  1.0000 0.1004424027
H   H99       1.0  0.26480  0.10340  0.23300  1.0000 0.1004424027
H   H100      1.0  0.39880  0.23300  0.10340  1.0000 0.1004424027
H   H101      1.0  0.99120  0.06980  0.09240  1.0000 0.1283619928
H   H102      1.0  0.84660  0.09240  0.06980  1.0000 0.1283619928
H   H103      1.0  0.25880  0.18020  0.15760  1.0000 0.1283619928
H   H104      1.0  0.40340  0.15760  0.18020  1.0000 0.1283619928
H   H105      1.0  0.83610  0.16430  0.01910  1.0000 0.1283619928
H   H106      1.0  0.98050  0.01910  0.16430  1.0000 0.1283619928
H   H107      1.0  0.41390  0.08570  0.23090  1.0000 0.1283619928
H   H108      1.0  0.26950  0.23090  0.08570  1.0000 0.1283619928
H   H109      1.0  0.81950  0.24870  0.96110  1.0000 0.1004424027
H   H110      1.0  0.97070  0.96110  0.24870  1.0000 0.1004424027
H   H111      1.0  0.43050  0.00130  0.28890  1.0000 0.1004424027
H   H112      1.0  0.27930  0.28890  0.00130  1.0000 0.1004424027
H   H113      1.0  0.68830  0.52230  0.80050  1.0000 0.1089409717
H   H114      1.0  0.98890  0.80050  0.52230  1.0000 0.1089409717
H   H115      1.0  0.56170  0.72770  0.44950  1.0000 0.1089409717
H   H116      1.0  0.26110  0.44950  0.72770  1.0000 0.1089409717
H   H117      1.0  0.59610  0.62430  0.74490  1.0000 0.1283619928
H   H118      1.0  0.03470  0.74490  0.62430  1.0000 0.1283619928
H   H119      1.0  0.65390  0.62570  0.50510  1.0000 0.1283619928
H   H120      1.0  0.21530  0.50510  0.62570  1.0000 0.1283619928
H   H121      1.0  0.73750  0.53390  0.55690  1.0000 0.1283619928
H   H122      1.0  0.17170  0.55690  0.53390  1.0000 0.1283619928
H   H123      1.0  0.51250  0.71610  0.69310  1.0000 0.1283619928
H   H124      1.0  0.07830  0.69310  0.71610  1.0000 0.1283619928
H   H125      1.0  0.82720  0.44000  0.61500  1.0000 0.1163499451
H   H126      1.0  0.11780  0.61500  0.44000  1.0000 0.1163499451
H   H127      1.0  0.42280  0.81000  0.63500  1.0000 0.1163499451
H   H128      1.0  0.13220  0.63500  0.81000  1.0000 0.1163499451
W   W1        1.0  0.40493  0.81395  0.86507  1.0000 0.6901911491
W   W2        1.0  0.91605  0.86507  0.81395  1.0000 0.6901911491
W   W3        1.0  0.84507  0.43605  0.38493  1.0000 0.6901911491
W   W4        1.0  0.33395  0.38493  0.43605  1.0000 0.6901911491
W   W5        1.0  0.81395  0.40493  0.91605  1.0000 0.6901911491
W   W6        1.0  0.86507  0.91605  0.40493  1.0000 0.6901911491
W   W7        1.0  0.43605  0.84507  0.33395  1.0000 0.6901911491
W   W8        1.0  0.38493  0.33395  0.84507  1.0000 0.6901911491
C   C1        1.0  0.10060  0.23700  0.21660  1.0000 0.0567284583
C   C2        1.0  0.44580  0.21660  0.23700  1.0000 0.0567284583
C   C3        1.0  0.14940  0.01300  0.03340  1.0000 0.0567284583
C   C4        1.0  0.80420  0.03340  0.01300  1.0000 0.0567284583
C   C5        1.0  0.15000  0.17860  0.17080  1.0000 -0.2182039132
C   C6        1.0  0.50060  0.17080  0.17860  1.0000 -0.2182039132
C   C7        1.0  0.10000  0.07140  0.07920  1.0000 -0.2182039132
C   C8        1.0  0.74940  0.07920  0.07140  1.0000 -0.2182039132
C   C9        1.0  0.16520  0.12140  0.19480  1.0000 0.1089409717
C   C10       1.0  0.51860  0.19480  0.12140  1.0000 0.1089409717
C   C11       1.0  0.08480  0.12860  0.05520  1.0000 0.1089409717
C   C12       1.0  0.73140  0.05520  0.12860  1.0000 0.1089409717
C   C13       1.0  0.12520  0.13380  0.26420  1.0000 -0.1796588643
C   C14       1.0  0.47680  0.26420  0.13380  1.0000 -0.1796588643
C   C15       1.0  0.12480  0.11620  0.98580  1.0000 -0.1796588643
C   C16       1.0  0.77320  0.98580  0.11620  1.0000 -0.1796588643
C   C17       1.0  0.07870  0.19410  0.30610  1.0000 0.0477936941
C   C18       1.0  0.42110  0.30610  0.19410  1.0000 0.0477936941
C   C19       1.0  0.17130  0.05590  0.94390  1.0000 0.0477936941
C   C20       1.0  0.82890  0.94390  0.05590  1.0000 0.0477936941
C   C21       1.0  0.21460  0.05920  0.14860  1.0000 0.1004424027
C   C22       1.0  0.57760  0.14860  0.05920  1.0000 0.1004424027
C   C23       1.0  0.03540  0.19080  0.10140  1.0000 0.1004424027
C   C24       1.0  0.67240  0.10140  0.19080  1.0000 0.1004424027
C   C25       1.0  0.25660  0.04820  0.08280  1.0000 -0.2096685597
C   C26       1.0  0.61240  0.08280  0.04820  1.0000 -0.2096685597
C   C27       1.0  0.99340  0.20180  0.16720  1.0000 -0.2096685597
C   C28       1.0  0.63760  0.16720  0.20180  1.0000 -0.2096685597
C   C29       1.0  0.30290  0.98570  0.03710  1.0000 0.1004424027
C   C30       1.0  0.67430  0.03710  0.98570  1.0000 0.1004424027
C   C31       1.0  0.94710  0.26430  0.21290  1.0000 0.1004424027
C   C32       1.0  0.57570  0.21290  0.26430  1.0000 0.1004424027
C   C33       1.0  0.27450  0.94890  0.12130  1.0000 0.0477936941
C   C34       1.0  0.65530  0.12130  0.94890  1.0000 0.0477936941
C   C35       1.0  0.97550  0.30110  0.12870  1.0000 0.0477936941
C   C36       1.0  0.59470  0.12870  0.30110  1.0000 0.0477936941
C   C37       1.0  0.22680  0.00660  0.16760  1.0000 -0.1733271911
C   C38       1.0  0.59900  0.16760  0.00660  1.0000 -0.1733271911
C   C39       1.0  0.02320  0.24340  0.08240  1.0000 -0.1733271911
C   C40       1.0  0.65100  0.08240  0.24340  1.0000 -0.1733271911
C   C41       1.0  0.15260  0.95200  0.87700  1.0000 0.0806018899
C   C42       1.0  0.01840  0.87700  0.95200  1.0000 0.0806018899
C   C43       1.0  0.09740  0.29800  0.37300  1.0000 0.0806018899
C   C44       1.0  0.23160  0.37300  0.29800  1.0000 0.0806018899
C   C45       1.0  0.10440  0.95620  0.87460  1.0000 -0.2182039132
C   C46       1.0  0.06480  0.87460  0.95620  1.0000 -0.2182039132
C   C47       1.0  0.14560  0.29380  0.37540  1.0000 -0.2182039132
C   C48       1.0  0.18520  0.37540  0.29380  1.0000 -0.2182039132
C   C49       1.0  0.10930  0.91210  0.91090  1.0000 0.1004424027
C   C50       1.0  0.06770  0.91090  0.91210  1.0000 0.1004424027
C   C51       1.0  0.14070  0.33790  0.33910  1.0000 0.1004424027
C   C52       1.0  0.18230  0.33910  0.33790  1.0000 0.1004424027
C   C53       1.0  0.16100  0.86600  0.94920  1.0000 -0.2345304868
C   C54       1.0  0.02380  0.94920  0.86600  1.0000 -0.2352826825
C   C55       1.0  0.08900  0.38400  0.30080  1.0000 -0.2345304868
C   C56       1.0  0.22620  0.30080  0.38400  1.0000 -0.2345304868
C   C57       1.0  0.21060  0.85760  0.94760  1.0000 0.0873797632
C   C58       1.0  0.98420  0.94760  0.85760  1.0000 0.0873797632
C   C59       1.0  0.03940  0.39240  0.30240  1.0000 0.0873797632
C   C60       1.0  0.26580  0.30240  0.39240  1.0000 0.0873797632
C   C61       1.0  0.52500  0.69920  0.02540  1.0000 0.0709570575
C   C62       1.0  0.75040  0.02540  0.69920  1.0000 0.0709570575
C   C63       1.0  0.72500  0.55080  0.22460  1.0000 0.0709570575
C   C64       1.0  0.49960  0.22460  0.55080  1.0000 0.0709570575
C   C65       1.0  0.58640  0.64300  0.05420  1.0000 -0.1986833326
C   C66       1.0  0.71640  0.05420  0.64300  1.0000 -0.1986833326
C   C67       1.0  0.66360  0.60700  0.19580  1.0000 -0.1986833326
C   C68       1.0  0.53360  0.19580  0.60700  1.0000 -0.1986833326
C   C69       1.0  0.59270  0.65410  0.10990  1.0000 0.1004424027
C   C70       1.0  0.64330  0.10990  0.65410  1.0000 0.1004424027
C   C71       1.0  0.65730  0.59590  0.14010  1.0000 0.1004424027
C   C72       1.0  0.60670  0.14010  0.59590  1.0000 0.1004424027
C   C73       1.0  0.53410  0.72570  0.13270  1.0000 -0.1986833326
C   C74       1.0  0.60750  0.13270  0.72570  1.0000 -0.1948195032
C   C75       1.0  0.71590  0.52430  0.11730  1.0000 -0.1986833326
C   C76       1.0  0.64250  0.11730  0.52430  1.0000 -0.1986833326
C   C77       1.0  0.47690  0.77950  0.10150  1.0000 0.0477936941
C   C78       1.0  0.64210  0.10150  0.77950  1.0000 0.0477936941
C   C79       1.0  0.77310  0.47050  0.14850  1.0000 0.0477936941
C   C80       1.0  0.60790  0.14850  0.47050  1.0000 0.0477936941
C   C81       1.0  0.23700  0.10060  0.44580  1.0000 0.0567284583
C   C82       1.0  0.21660  0.44580  0.10060  1.0000 0.0567284583
C   C83       1.0  0.01300  0.14940  0.80420  1.0000 0.0567284583
C   C84       1.0  0.03340  0.80420  0.14940  1.0000 0.0567284583
C   C85       1.0  0.17860  0.15000  0.50060  1.0000 -0.2182039132
C   C86       1.0  0.17080  0.50060  0.15000  1.0000 -0.2182039132
C   C87       1.0  0.07140  0.10000  0.74940  1.0000 -0.2182039132
C   C88       1.0  0.07920  0.74940  0.10000  1.0000 -0.2182039132
C   C89       1.0  0.12140  0.16520  0.51860  1.0000 0.1089409717
C   C90       1.0  0.19480  0.51860  0.16520  1.0000 0.1089409717
C   C91       1.0  0.12860  0.08480  0.73140  1.0000 0.1089409717
C   C92       1.0  0.05520  0.73140  0.08480  1.0000 0.1089409717
C   C93       1.0  0.13380  0.12520  0.47680  1.0000 -0.1796588643
C   C94       1.0  0.26420  0.47680  0.12520  1.0000 -0.1796588643
C   C95       1.0  0.11620  0.12480  0.77320  1.0000 -0.1796588643
C   C96       1.0  0.98580  0.77320  0.12480  1.0000 -0.1796588643
C   C97       1.0  0.19410  0.07870  0.42110  1.0000 0.0477936941
C   C98       1.0  0.30610  0.42110  0.07870  1.0000 0.0477936941
C   C99       1.0  0.05590  0.17130  0.82890  1.0000 0.0477936941
C   C100      1.0  0.94390  0.82890  0.17130  1.0000 0.0477936941
C   C101      1.0  0.05920  0.21460  0.57760  1.0000 0.1004424027
C   C102      1.0  0.14860  0.57760  0.21460  1.0000 0.1004424027
C   C103      1.0  0.19080  0.03540  0.67240  1.0000 0.1004424027
C   C104      1.0  0.10140  0.67240  0.03540  1.0000 0.1004424027
C   C105      1.0  0.04820  0.25660  0.61240  1.0000 -0.2096685597
C   C106      1.0  0.08280  0.61240  0.25660  1.0000 -0.2096685597
C   C107      1.0  0.20180  0.99340  0.63760  1.0000 -0.2096685597
C   C108      1.0  0.16720  0.63760  0.99340  1.0000 -0.2096685597
C   C109      1.0  0.98570  0.30290  0.67430  1.0000 0.1004424027
C   C110      1.0  0.03710  0.67430  0.30290  1.0000 0.1004424027
C   C111      1.0  0.26430  0.94710  0.57570  1.0000 0.1004424027
C   C112      1.0  0.21290  0.57570  0.94710  1.0000 0.1004424027
C   C113      1.0  0.94890  0.27450  0.65530  1.0000 0.0477936941
C   C114      1.0  0.12130  0.65530  0.27450  1.0000 0.0477936941
C   C115      1.0  0.30110  0.97550  0.59470  1.0000 0.0477936941
C   C116      1.0  0.12870  0.59470  0.97550  1.0000 0.0477936941
C   C117      1.0  0.00660  0.22680  0.59900  1.0000 -0.1733271911
C   C118      1.0  0.16760  0.59900  0.22680  1.0000 -0.1733271911
C   C119      1.0  0.24340  0.02320  0.65100  1.0000 -0.1733271911
C   C120      1.0  0.08240  0.65100  0.02320  1.0000 -0.1733271911
C   C121      1.0  0.95200  0.15260  0.01840  1.0000 0.0806018899
C   C122      1.0  0.87700  0.01840  0.15260  1.0000 0.0806018899
C   C123      1.0  0.29800  0.09740  0.23160  1.0000 0.0806018899
C   C124      1.0  0.37300  0.23160  0.09740  1.0000 0.0806018899
C   C125      1.0  0.95620  0.10440  0.06480  1.0000 -0.2182039132
C   C126      1.0  0.87460  0.06480  0.10440  1.0000 -0.2182039132
C   C127      1.0  0.29380  0.14560  0.18520  1.0000 -0.2182039132
C   C128      1.0  0.37540  0.18520  0.14560  1.0000 -0.2182039132
C   C129      1.0  0.91210  0.10930  0.06770  1.0000 0.1004424027
C   C130      1.0  0.91090  0.06770  0.10930  1.0000 0.1004424027
C   C131      1.0  0.33790  0.14070  0.18230  1.0000 0.1004424027
C   C132      1.0  0.33910  0.18230  0.14070  1.0000 0.1004424027
C   C133      1.0  0.86600  0.16100  0.02380  1.0000 -0.2352826825
C   C134      1.0  0.94920  0.02380  0.16100  1.0000 -0.2352826825
C   C135      1.0  0.38400  0.08900  0.22620  1.0000 -0.2352826825
C   C136      1.0  0.30080  0.22620  0.08900  1.0000 -0.2352826825
C   C137      1.0  0.85760  0.21060  0.98420  1.0000 0.0873797632
C   C138      1.0  0.94760  0.98420  0.21060  1.0000 0.0873797632
C   C139      1.0  0.39240  0.03940  0.26580  1.0000 0.0873797632
C   C140      1.0  0.30240  0.26580  0.03940  1.0000 0.0873797632
C   C141      1.0  0.69920  0.52500  0.75040  1.0000 0.0709570575
C   C142      1.0  0.02540  0.75040  0.52500  1.0000 0.0709570575
C   C143      1.0  0.55080  0.72500  0.49960  1.0000 0.0709570575
C   C144      1.0  0.22460  0.49960  0.72500  1.0000 0.0709570575
C   C145      1.0  0.64300  0.58640  0.71640  1.0000 -0.1986833326
C   C146      1.0  0.05420  0.71640  0.58640  1.0000 -0.1986833326
C   C147      1.0  0.60700  0.66360  0.53360  1.0000 -0.1986833326
C   C148      1.0  0.19580  0.53360  0.66360  1.0000 -0.1986833326
C   C149      1.0  0.65410  0.59270  0.64330  1.0000 0.1004424027
C   C150      1.0  0.10990  0.64330  0.59270  1.0000 0.1004424027
C   C151      1.0  0.59590  0.65730  0.60670  1.0000 0.1004424027
C   C152      1.0  0.14010  0.60670  0.65730  1.0000 0.1004424027
C   C153      1.0  0.72570  0.53410  0.60750  1.0000 -0.1986833326
C   C154      1.0  0.13270  0.60750  0.53410  1.0000 -0.1986833326
C   C155      1.0  0.52430  0.71590  0.64250  1.0000 -0.1986833326
C   C156      1.0  0.11730  0.64250  0.71590  1.0000 -0.1986833326
C   C157      1.0  0.77950  0.47690  0.64210  1.0000 0.0477936941
C   C158      1.0  0.10150  0.64210  0.47690  1.0000 0.0477936941
C   C159      1.0  0.47050  0.77310  0.60790  1.0000 0.0477936941
C   C160      1.0  0.14850  0.60790  0.77310  1.0000 0.0477936941
S   S1        1.0  0.43723  0.85045  0.88081  1.0000 -0.5064231239
S   S2        1.0  0.83151  0.88081  0.85045  1.0000 -0.5064231239
S   S3        1.0  0.81277  0.39955  0.36919  1.0000 -0.5064231239
S   S4        1.0  0.41849  0.36919  0.39955  1.0000 -0.5064231239
S   S5        1.0  0.35348  0.81244  0.97460  1.0000 -0.5185124434
S   S6        1.0  0.85948  0.97460  0.81244  1.0000 -0.5185124434
S   S7        1.0  0.89652  0.43756  0.27540  1.0000 -0.5185124434
S   S8        1.0  0.39052  0.27540  0.43756  1.0000 -0.5185124434
S   S9        1.0  0.32157  0.89585  0.79679  1.0000 -0.5392144925
S   S10       1.0  0.98579  0.79679  0.89585  1.0000 -0.5392144925
S   S11       1.0  0.92843  0.35415  0.45321  1.0000 -0.5392144925
S   S12       1.0  0.26421  0.45321  0.35415  1.0000 -0.5392144925
S   S13       1.0  0.85045  0.43723  0.83151  1.0000 -0.5064231239
S   S14       1.0  0.88081  0.83151  0.43723  1.0000 -0.5064231239
S   S15       1.0  0.39955  0.81277  0.41849  1.0000 -0.5064231239
S   S16       1.0  0.36919  0.41849  0.81277  1.0000 -0.5064231239
S   S17       1.0  0.81244  0.35348  0.85948  1.0000 -0.5185124434
S   S18       1.0  0.97460  0.85948  0.35348  1.0000 -0.5185124434
S   S19       1.0  0.43756  0.89652  0.39052  1.0000 -0.5185124434
S   S20       1.0  0.27540  0.39052  0.89652  1.0000 -0.5185124434
S   S21       1.0  0.89585  0.32157  0.98579  1.0000 -0.5392144925
S   S22       1.0  0.79679  0.98579  0.32157  1.0000 -0.5392144925
S   S23       1.0  0.35415  0.92843  0.26421  1.0000 -0.5392144925
S   S24       1.0  0.45321  0.26421  0.92843  1.0000 -0.5392144925
N   N1        1.0  0.06460  0.24800  0.28320  1.0000 -0.2096685597
N   N2        1.0  0.40420  0.28320  0.24800  1.0000 -0.2096685597
N   N3        1.0  0.18540  0.00200  0.96680  1.0000 -0.2096685597
N   N4        1.0  0.84580  0.96680  0.00200  1.0000 -0.2096685597
N   N5        1.0  0.31220  0.93800  0.05640  1.0000 -0.1796588643
N   N6        1.0  0.69340  0.05640  0.93800  1.0000 -0.1796588643
N   N7        1.0  0.93780  0.31200  0.19360  1.0000 -0.1796588643
N   N8        1.0  0.55660  0.19360  0.31200  1.0000 -0.1796588643
N   N9        1.0  0.20210  0.90410  0.91330  1.0000 -0.1733271911
N   N10       1.0  0.98050  0.91330  0.90410  1.0000 -0.1733271911
N   N11       1.0  0.04790  0.34590  0.33670  1.0000 -0.1733271911
N   N12       1.0  0.26950  0.33670  0.34590  1.0000 -0.1733271911
N   N13       1.0  0.47160  0.76640  0.04780  1.0000 -0.1639855905
N   N14       1.0  0.71420  0.04780  0.76640  1.0000 -0.1639855905
N   N15       1.0  0.77840  0.48360  0.20220  1.0000 -0.1639855905
N   N16       1.0  0.53580  0.20220  0.48360  1.0000 -0.1639855905
N   N17       1.0  0.24800  0.06460  0.40420  1.0000 -0.2096685597
N   N18       1.0  0.28320  0.40420  0.06460  1.0000 -0.2096685597
N   N19       1.0  0.00200  0.18540  0.84580  1.0000 -0.2096685597
N   N20       1.0  0.96680  0.84580  0.18540  1.0000 -0.2096685597
N   N21       1.0  0.93800  0.31220  0.69340  1.0000 -0.1796588643
N   N22       1.0  0.05640  0.69340  0.31220  1.0000 -0.1796588643
N   N23       1.0  0.31200  0.93780  0.55660  1.0000 -0.1796588643
N   N24       1.0  0.19360  0.55660  0.93780  1.0000 -0.1796588643
N   N25       1.0  0.90410  0.20210  0.98050  1.0000 -0.1733271911
N   N26       1.0  0.91330  0.98050  0.20210  1.0000 -0.1733271911
N   N27       1.0  0.34590  0.04790  0.26950  1.0000 -0.1733271911
N   N28       1.0  0.33670  0.26950  0.04790  1.0000 -0.1733271911
N   N29       1.0  0.76640  0.47160  0.71420  1.0000 -0.1639855905
N   N30       1.0  0.04780  0.71420  0.47160  1.0000 -0.1733271911
N   N31       1.0  0.48360  0.77840  0.53580  1.0000 -0.1639855905
N   N32       1.0  0.20220  0.53580  0.77840  1.0000 -0.1639855905
Cl  Cl1       1.0  0.28955  0.04815  0.79325  1.0000 -0.5654380552
Cl  Cl2       1.0  0.86905  0.79325  0.04815  1.0000 -0.5654380552
Cl  Cl3       1.0  0.96045  0.20185  0.45675  1.0000 -0.5654380552
Cl  Cl4       1.0  0.38095  0.45675  0.20185  1.0000 -0.5635224215
Cl  Cl5       1.0  0.04815  0.28955  0.86905  1.0000 -0.5635224215
Cl  Cl6       1.0  0.79325  0.86905  0.28955  1.0000 -0.5654380552
Cl  Cl7       1.0  0.20185  0.96045  0.38095  1.0000 -0.5654380552
Cl  Cl8       1.0  0.45675  0.38095  0.96045  1.0000 -0.5635224215
