# DDEC6 charges by PACMAN v1.1 (https://github.com/mtap-research/PACMAN-charge/)
data_2011[Zn][bbf]3[ASR]1
_chemical_formula_sum              "Zn4 H76 C76 N16 O20"
_cell_length_a       7.2169
_cell_length_b       16.9389
_cell_length_c       17.9009
_cell_angle_alpha    90
_cell_angle_beta     108.146
_cell_angle_gamma    90

_symmetry_space_group_name_H-M    "P 1"
_symmetry_Int_Tables_number       1

loop_
  _symmetry_equiv_pos_as_xyz
  'x, y, z'

loop_
  _atom_site_type_symbol
  _atom_site_label
  _atom_site_symmetry_multiplicity
  _atom_site_fract_x
  _atom_site_fract_y
  _atom_site_fract_z
  _atom_site_occupancy
  _atom_site_charge
Zn  Zn1       1.0  0.62318  0.20081  0.69136  1.0000 0.7698823457
Zn  Zn2       1.0  0.37682  0.70081  0.80864  1.0000 0.7698823457
Zn  Zn3       1.0  0.37682  0.79919  0.30864  1.0000 0.7698823457
Zn  Zn4       1.0  0.62318  0.29919  0.19136  1.0000 0.7698823457
H   H1        1.0  0.16800  0.07220  0.57430  1.0000 0.1200520248
H   H2        1.0  0.83200  0.57220  0.92570  1.0000 0.1200520248
H   H3        1.0  0.83200  0.92780  0.42570  1.0000 0.1200520248
H   H4        1.0  0.16800  0.42780  0.07430  1.0000 0.1200520248
H   H5        1.0  0.48510  0.06110  0.55250  1.0000 0.1026813557
H   H6        1.0  0.51490  0.56110  0.94750  1.0000 0.1026813557
H   H7        1.0  0.51490  0.93890  0.44750  1.0000 0.1026813557
H   H8        1.0  0.48510  0.43890  0.05250  1.0000 0.1026813557
H   H9        1.0  0.36240  0.98240  0.53990  1.0000 0.1026813557
H   H10       1.0  0.63760  0.48240  0.96010  1.0000 0.1026813557
H   H11       1.0  0.63760  0.01760  0.46010  1.0000 0.1026813557
H   H12       1.0  0.36240  0.51760  0.03990  1.0000 0.1026813557
H   H13       1.0  0.81080  0.33333  0.56400  1.0000 0.1200520248
H   H14       1.0  0.18920  0.83333  0.93600  1.0000 0.1200520248
H   H15       1.0  0.18920  0.66667  0.43600  1.0000 0.1200520248
H   H16       1.0  0.81080  0.16667  0.06400  1.0000 0.1200520248
H   H17       1.0  0.90770  0.34280  0.65490  1.0000 0.1200520248
H   H18       1.0  0.09230  0.84280  0.84510  1.0000 0.1200520248
H   H19       1.0  0.09230  0.65720  0.34510  1.0000 0.1200520248
H   H20       1.0  0.90770  0.15720  0.15490  1.0000 0.1200520248
H   H21       1.0  0.69300  0.20070  0.46590  1.0000 0.1200520248
H   H22       1.0  0.30700  0.70070  0.03410  1.0000 0.1200520248
H   H23       1.0  0.30700  0.79930  0.53410  1.0000 0.1200520248
H   H24       1.0  0.69300  0.29930  0.96590  1.0000 0.1200520248
H   H25       1.0  0.05050  0.13150  0.34700  1.0000 0.1428277587
H   H26       1.0  0.94950  0.63150  0.15300  1.0000 0.1428277587
H   H27       1.0  0.94950  0.86850  0.65300  1.0000 0.1428277587
H   H28       1.0  0.05050  0.36850  0.84700  1.0000 0.1428277587
H   H29       1.0  0.27230  0.51380  0.80190  1.0000 0.1300704871
H   H30       1.0  0.72770  0.01380  0.69810  1.0000 0.1300704871
H   H31       1.0  0.72770  0.48620  0.19810  1.0000 0.1300704871
H   H32       1.0  0.27230  0.98620  0.30190  1.0000 0.1300704871
H   H33       1.0  0.02180  0.46890  0.62920  1.0000 0.1026813557
H   H34       1.0  0.97820  0.96890  0.87080  1.0000 0.1026813557
H   H35       1.0  0.97820  0.53110  0.37080  1.0000 0.1026813557
H   H36       1.0  0.02180  0.03110  0.12920  1.0000 0.1026813557
H   H37       1.0  0.89030  0.45900  0.54160  1.0000 0.1026813557
H   H38       1.0  0.10970  0.95900  0.95840  1.0000 0.1026813557
H   H39       1.0  0.10970  0.54100  0.45840  1.0000 0.1026813557
H   H40       1.0  0.89030  0.04100  0.04160  1.0000 0.1026813557
H   H41       1.0  0.40870  0.27530  0.52070  1.0000 0.1300704871
H   H42       1.0  0.59130  0.77530  0.97930  1.0000 0.1300704871
H   H43       1.0  0.59130  0.72470  0.47930  1.0000 0.1300704871
H   H44       1.0  0.40870  0.22470  0.02070  1.0000 0.1300704871
H   H45       1.0  0.09850  0.34750  0.48360  1.0000 0.1300704871
H   H46       1.0  0.90150  0.84750  0.01640  1.0000 0.1300704871
H   H47       1.0  0.90150  0.65250  0.51640  1.0000 0.1300704871
H   H48       1.0  0.09850  0.15250  0.98360  1.0000 0.1300704871
H   H49       1.0  0.23030  0.27890  0.70470  1.0000 0.1200520248
H   H50       1.0  0.76970  0.77890  0.79530  1.0000 0.1200520248
H   H51       1.0  0.76970  0.72110  0.29530  1.0000 0.1200520248
H   H52       1.0  0.23030  0.22110  0.20470  1.0000 0.1200520248
H   H53       1.0  0.61010  0.44860  0.58970  1.0000 0.1026813557
H   H54       1.0  0.38990  0.94860  0.91030  1.0000 0.1026813557
H   H55       1.0  0.38990  0.55140  0.41030  1.0000 0.1026813557
H   H56       1.0  0.61010  0.05140  0.08970  1.0000 0.1026813557
H   H57       1.0  0.70530  0.53290  0.60060  1.0000 0.1026813557
H   H58       1.0  0.29470  0.03290  0.89940  1.0000 0.1026813557
H   H59       1.0  0.29470  0.46710  0.39940  1.0000 0.1026813557
H   H60       1.0  0.70530  0.96710  0.10060  1.0000 0.1026813557
H   H61       1.0  0.88430  0.49890  0.73080  1.0000 0.1200520248
H   H62       1.0  0.11570  0.99890  0.76920  1.0000 0.1200520248
H   H63       1.0  0.11570  0.50110  0.26920  1.0000 0.1200520248
H   H64       1.0  0.88430  0.00110  0.23080  1.0000 0.1200520248
H   H65       1.0  0.77540  0.41760  0.71920  1.0000 0.1072651093
H   H66       1.0  0.22460  0.91760  0.78080  1.0000 0.1072651093
H   H67       1.0  0.22460  0.58240  0.28080  1.0000 0.1072651093
H   H68       1.0  0.77540  0.08240  0.21920  1.0000 0.1072651093
H   H69       1.0  0.65250  0.62490  0.72720  1.0000 0.1300704871
H   H70       1.0  0.34750  0.12490  0.77280  1.0000 0.1300704871
H   H71       1.0  0.34750  0.37510  0.27280  1.0000 0.1300704871
H   H72       1.0  0.65250  0.87510  0.22720  1.0000 0.1300704871
H   H73       1.0  0.45570  0.41380  0.75650  1.0000 0.1300704871
H   H74       1.0  0.54430  0.91380  0.74350  1.0000 0.1300704871
H   H75       1.0  0.54430  0.58620  0.24350  1.0000 0.1300704871
H   H76       1.0  0.45570  0.08620  0.25650  1.0000 0.1300704871
C   C1        1.0  0.08890  0.09730  0.52940  1.0000 -0.2432046625
C   C2        1.0  0.91110  0.59730  0.97060  1.0000 -0.2432046625
C   C3        1.0  0.91110  0.90270  0.47060  1.0000 -0.2432046625
C   C4        1.0  0.08890  0.40270  0.02940  1.0000 -0.2432046625
C   C5        1.0  0.13320  0.09430  0.45890  1.0000 0.2521182244
C   C6        1.0  0.86680  0.59430  0.04110  1.0000 0.2521182244
C   C7        1.0  0.86680  0.90570  0.54110  1.0000 0.2521182244
C   C8        1.0  0.13320  0.40570  0.95890  1.0000 0.2521182244
C   C9        1.0  0.42470  0.02030  0.51480  1.0000 -0.0410478496
C   C10       1.0  0.57530  0.52030  0.98520  1.0000 -0.0410478496
C   C11       1.0  0.57530  0.97970  0.48520  1.0000 -0.0410478496
C   C12       1.0  0.42470  0.47970  0.01480  1.0000 -0.0410478496
C   C13       1.0  0.91920  0.35730  0.60410  1.0000 -0.1210853959
C   C14       1.0  0.08080  0.85730  0.89590  1.0000 -0.1210853959
C   C15       1.0  0.08080  0.64270  0.39590  1.0000 -0.1210853959
C   C16       1.0  0.91920  0.14270  0.10410  1.0000 -0.1210853959
C   C17       1.0  0.80556  0.17498  0.46436  1.0000 -0.1583386156
C   C18       1.0  0.19444  0.67498  0.03564  1.0000 -0.1583386156
C   C19       1.0  0.19444  0.82502  0.53564  1.0000 -0.1583386156
C   C20       1.0  0.80556  0.32502  0.96436  1.0000 -0.1583386156
C   C21       1.0  0.01739  0.13280  0.39319  1.0000 -0.2346496749
C   C22       1.0  0.98261  0.63280  0.10681  1.0000 -0.2346496749
C   C23       1.0  0.98261  0.86720  0.60681  1.0000 -0.2346496749
C   C24       1.0  0.01739  0.36720  0.89319  1.0000 -0.2346496749
C   C25       1.0  0.92442  0.13865  0.53112  1.0000 -0.0121678299
C   C26       1.0  0.07558  0.63865  0.96888  1.0000 -0.0121678299
C   C27       1.0  0.07558  0.86135  0.46888  1.0000 -0.0121678299
C   C28       1.0  0.92442  0.36135  0.03112  1.0000 -0.0121678299
C   C29       1.0  0.87610  0.14350  0.60770  1.0000 0.5462309067
C   C30       1.0  0.12390  0.64350  0.89230  1.0000 0.5462309067
C   C31       1.0  0.12390  0.85650  0.39230  1.0000 0.5462309067
C   C32       1.0  0.87610  0.35650  0.10770  1.0000 0.5462309067
C   C33       1.0  0.37200  0.52380  0.78050  1.0000 -0.0410478496
C   C34       1.0  0.62800  0.02380  0.71950  1.0000 -0.0410478496
C   C35       1.0  0.62800  0.47620  0.21950  1.0000 -0.0410478496
C   C36       1.0  0.37200  0.97620  0.28050  1.0000 -0.0410478496
C   C37       1.0  0.85270  0.17340  0.39500  1.0000 -0.0121678299
C   C38       1.0  0.14730  0.67340  0.10500  1.0000 -0.0121678299
C   C39       1.0  0.14730  0.82660  0.60500  1.0000 -0.0121678299
C   C40       1.0  0.85270  0.32660  0.89500  1.0000 -0.0121678299
C   C41       1.0  0.90310  0.44490  0.59550  1.0000 -0.1881030182
C   C42       1.0  0.09690  0.94490  0.90450  1.0000 -0.1881030182
C   C43       1.0  0.09690  0.55510  0.40450  1.0000 -0.1881030182
C   C44       1.0  0.90310  0.05510  0.09550  1.0000 -0.1881030182
C   C45       1.0  0.73000  0.21690  0.32380  1.0000 0.5398304706
C   C46       1.0  0.27000  0.71690  0.17620  1.0000 0.5398304706
C   C47       1.0  0.27000  0.78310  0.67620  1.0000 0.5398304706
C   C48       1.0  0.73000  0.28310  0.82380  1.0000 0.5398304706
C   C49       1.0  0.33430  0.28540  0.55370  1.0000 -0.0410478496
C   C50       1.0  0.66570  0.78540  0.94630  1.0000 -0.0410478496
C   C51       1.0  0.66570  0.71460  0.44630  1.0000 -0.0410478496
C   C52       1.0  0.33430  0.21460  0.05370  1.0000 -0.0410478496
C   C53       1.0  0.16190  0.32500  0.53220  1.0000 -0.1108380313
C   C54       1.0  0.83810  0.82500  0.96780  1.0000 -0.1108380313
C   C55       1.0  0.83810  0.67500  0.46780  1.0000 -0.1108380313
C   C56       1.0  0.16190  0.17500  0.03220  1.0000 -0.1108380313
C   C57       1.0  0.23760  0.28690  0.65430  1.0000 0.0945017413
C   C58       1.0  0.76240  0.78690  0.84570  1.0000 0.0945017413
C   C59       1.0  0.76240  0.71310  0.34570  1.0000 0.0945017413
C   C60       1.0  0.23760  0.21310  0.15430  1.0000 0.0945017413
C   C61       1.0  0.72640  0.47820  0.61710  1.0000 -0.1881030182
C   C62       1.0  0.27360  0.97820  0.88290  1.0000 -0.1881030182
C   C63       1.0  0.27360  0.52180  0.38290  1.0000 -0.1881030182
C   C64       1.0  0.72640  0.02180  0.11710  1.0000 -0.1881030182
C   C65       1.0  0.76210  0.47270  0.70380  1.0000 -0.1210853959
C   C66       1.0  0.23790  0.97270  0.79620  1.0000 -0.1210853959
C   C67       1.0  0.23790  0.52730  0.29620  1.0000 -0.1210853959
C   C68       1.0  0.76210  0.02730  0.20380  1.0000 -0.1210853959
C   C69       1.0  0.57910  0.58490  0.73970  1.0000 0.1200520248
C   C70       1.0  0.42090  0.08490  0.76030  1.0000 0.1200520248
C   C71       1.0  0.42090  0.41510  0.26030  1.0000 0.1200520248
C   C72       1.0  0.57910  0.91510  0.23970  1.0000 0.1200520248
C   C73       1.0  0.47240  0.46820  0.75580  1.0000 -0.1210853959
C   C74       1.0  0.52760  0.96820  0.74420  1.0000 -0.1210853959
C   C75       1.0  0.52760  0.53180  0.24420  1.0000 -0.1210853959
C   C76       1.0  0.47240  0.03180  0.25580  1.0000 -0.1210853959
N   N1        1.0  0.10154  0.32474  0.59754  1.0000 0.043215925
N   N2        1.0  0.89846  0.82474  0.90246  1.0000 0.043215925
N   N3        1.0  0.89846  0.67526  0.40246  1.0000 0.043215925
N   N4        1.0  0.10154  0.17526  0.09754  1.0000 0.043215925
N   N5        1.0  0.38294  0.26251  0.63074  1.0000 -0.2888068947
N   N6        1.0  0.61706  0.76251  0.86926  1.0000 -0.2888068947
N   N7        1.0  0.61706  0.73749  0.36926  1.0000 -0.2888068947
N   N8        1.0  0.38294  0.23749  0.13074  1.0000 -0.2888068947
N   N9        1.0  0.43784  0.59693  0.76974  1.0000 -0.2888068947
N   N10       1.0  0.56216  0.09693  0.73026  1.0000 -0.2888068947
N   N11       1.0  0.56216  0.40307  0.23026  1.0000 -0.2888068947
N   N12       1.0  0.43784  0.90307  0.26974  1.0000 -0.2888068947
N   N13       1.0  0.60508  0.50852  0.72928  1.0000 0.0474235845
N   N14       1.0  0.39492  0.00852  0.77072  1.0000 0.0474235845
N   N15       1.0  0.39492  0.49148  0.27072  1.0000 0.0474235845
N   N16       1.0  0.60508  0.99148  0.22928  1.0000 0.0474235845
O   O1        1.0  0.72219  0.18457  0.60329  1.0000 -0.5770874972
O   O2        1.0  0.27781  0.68457  0.89671  1.0000 -0.5770874972
O   O3        1.0  0.27781  0.81543  0.39671  1.0000 -0.5770874972
O   O4        1.0  0.72219  0.31543  0.10329  1.0000 -0.5770874972
O   O5        1.0  0.28769  0.05333  0.44869  1.0000 -0.1703847254
O   O6        1.0  0.71231  0.55333  0.05131  1.0000 -0.1703847254
O   O7        1.0  0.71231  0.94667  0.55131  1.0000 -0.1703847254
O   O8        1.0  0.28769  0.44667  0.94869  1.0000 -0.1703847254
O   O9        1.0  0.56382  0.23930  0.31992  1.0000 -0.5717918034
O   O10       1.0  0.43618  0.73930  0.18008  1.0000 -0.5717918034
O   O11       1.0  0.43618  0.76070  0.68008  1.0000 -0.5717918034
O   O12       1.0  0.56382  0.26070  0.81992  1.0000 -0.5717918034
O   O13       1.0  0.97764  0.11093  0.66744  1.0000 -0.5544874127
O   O14       1.0  0.02236  0.61093  0.83256  1.0000 -0.5544874127
O   O15       1.0  0.02236  0.88907  0.33256  1.0000 -0.5544874127
O   O16       1.0  0.97764  0.38907  0.16744  1.0000 -0.5544874127
O   O17       1.0  0.80547  0.22991  0.26847  1.0000 -0.5647631641
O   O18       1.0  0.19453  0.72991  0.23153  1.0000 -0.5647631641
O   O19       1.0  0.19453  0.77009  0.73153  1.0000 -0.5647631641
O   O20       1.0  0.80547  0.27009  0.76847  1.0000 -0.5647631641
