# DDEC6 charges by PACMAN v1.1 (https://github.com/mtap-research/PACMAN-charge/)
data_2011[Cu][nts]3[ASR]2
_chemical_formula_sum              "Cu24 H96 C216 N48 O96"
_cell_length_a       26.7778
_cell_length_b       26.7778
_cell_length_c       26.7778
_cell_angle_alpha    119.797
_cell_angle_beta     119.797
_cell_angle_gamma    90.3522

_symmetry_space_group_name_H-M    "P 1"
_symmetry_Int_Tables_number       1

loop_
  _symmetry_equiv_pos_as_xyz
  'x, y, z'

loop_
  _atom_site_type_symbol
  _atom_site_label
  _atom_site_symmetry_multiplicity
  _atom_site_fract_x
  _atom_site_fract_y
  _atom_site_fract_z
  _atom_site_occupancy
  _atom_site_charge
Cu  Cu1       1.0  0.20528  0.54746  0.75274  1.0000 0.8672669751
Cu  Cu2       1.0  0.79472  0.45254  0.24726  1.0000 0.8672669751
Cu  Cu3       1.0  0.54746  0.79472  0.34218  1.0000 0.8672669751
Cu  Cu4       1.0  0.45254  0.20528  0.65782  1.0000 0.8672669751
Cu  Cu5       1.0  0.10834  0.56207  0.67041  1.0000 0.8540792586
Cu  Cu6       1.0  0.89166  0.43793  0.32959  1.0000 0.8582359342
Cu  Cu7       1.0  0.56207  0.89166  0.45373  1.0000 0.8540792586
Cu  Cu8       1.0  0.43793  0.10834  0.54627  1.0000 0.8540792586
Cu  Cu9       1.0  0.23159  0.52689  0.05004  1.0000 0.8672669751
Cu  Cu10      1.0  0.47685  0.18155  0.94996  1.0000 0.8672669751
Cu  Cu11      1.0  0.52689  0.47685  0.29530  1.0000 0.8672669751
Cu  Cu12      1.0  0.18155  0.23159  0.70470  1.0000 0.8672669751
Cu  Cu13      1.0  0.76841  0.47311  0.94996  1.0000 0.8672669751
Cu  Cu14      1.0  0.52315  0.81845  0.05004  1.0000 0.8672669751
Cu  Cu15      1.0  0.47311  0.52315  0.70470  1.0000 0.8672669751
Cu  Cu16      1.0  0.81845  0.76841  0.29530  1.0000 0.8672669751
Cu  Cu17      1.0  0.14126  0.53176  0.06522  1.0000 0.8582359342
Cu  Cu18      1.0  0.46654  0.07604  0.93478  1.0000 0.8582359342
Cu  Cu19      1.0  0.53176  0.46654  0.39050  1.0000 0.8582359342
Cu  Cu20      1.0  0.07604  0.14126  0.60950  1.0000 0.8582359342
Cu  Cu21      1.0  0.85874  0.46824  0.93478  1.0000 0.8582359342
Cu  Cu22      1.0  0.53346  0.92396  0.06522  1.0000 0.8582359342
Cu  Cu23      1.0  0.46824  0.53346  0.60950  1.0000 0.8582359342
Cu  Cu24      1.0  0.92396  0.85874  0.39050  1.0000 0.8582359342
H   H1        1.0  0.94030  0.57530  0.84280  1.0000 0.289028489
H   H2        1.0  0.73250  0.09750  0.15720  1.0000 0.289028489
H   H3        1.0  0.57530  0.73250  0.63500  1.0000 0.289028489
H   H4        1.0  0.09750  0.94030  0.36500  1.0000 0.289028489
H   H5        1.0  0.05970  0.42470  0.15720  1.0000 0.289028489
H   H6        1.0  0.26750  0.90250  0.84280  1.0000 0.289028489
H   H7        1.0  0.42470  0.26750  0.36500  1.0000 0.289028489
H   H8        1.0  0.90250  0.05970  0.63500  1.0000 0.289028489
H   H9        1.0  0.71190  0.52060  0.63770  1.0000 0.289028489
H   H10       1.0  0.88290  0.07420  0.36230  1.0000 0.289028489
H   H11       1.0  0.52060  0.88290  0.80870  1.0000 0.289028489
H   H12       1.0  0.07420  0.71190  0.19130  1.0000 0.289028489
H   H13       1.0  0.28810  0.47940  0.36230  1.0000 0.289028489
H   H14       1.0  0.11710  0.92580  0.63770  1.0000 0.289028489
H   H15       1.0  0.47940  0.11710  0.19130  1.0000 0.289028489
H   H16       1.0  0.92580  0.28810  0.80870  1.0000 0.289028489
H   H17       1.0  0.88520  0.51240  0.59300  1.0000 0.289028489
H   H18       1.0  0.91940  0.29220  0.40700  1.0000 0.289028489
H   H19       1.0  0.51240  0.91940  0.62720  1.0000 0.289028489
H   H20       1.0  0.29220  0.88520  0.37280  1.0000 0.289028489
H   H21       1.0  0.11480  0.48760  0.40700  1.0000 0.289028489
H   H22       1.0  0.08060  0.70780  0.59300  1.0000 0.289028489
H   H23       1.0  0.48760  0.08060  0.37280  1.0000 0.289028489
H   H24       1.0  0.70780  0.11480  0.62720  1.0000 0.289028489
H   H25       1.0  0.00770  0.57070  0.75860  1.0000 0.1383925448
H   H26       1.0  0.81210  0.24910  0.24140  1.0000 0.1383925448
H   H27       1.0  0.57070  0.81210  0.56300  1.0000 0.1383925448
H   H28       1.0  0.24910  0.00770  0.43700  1.0000 0.1383925448
H   H29       1.0  0.99230  0.42930  0.24140  1.0000 0.1383925448
H   H30       1.0  0.18790  0.75090  0.75860  1.0000 0.1383925448
H   H31       1.0  0.42930  0.18790  0.43700  1.0000 0.1383925448
H   H32       1.0  0.75090  0.99230  0.56300  1.0000 0.1383925448
H   H33       1.0  0.16490  0.56640  0.89470  1.0000 0.1383925448
H   H34       1.0  0.67170  0.27020  0.10530  1.0000 0.1383925448
H   H35       1.0  0.56640  0.67170  0.40150  1.0000 0.1383925448
H   H36       1.0  0.27020  0.16490  0.59850  1.0000 0.1383925448
H   H37       1.0  0.83510  0.43360  0.10530  1.0000 0.1383925448
H   H38       1.0  0.32830  0.72980  0.89470  1.0000 0.1383925448
H   H39       1.0  0.43360  0.32830  0.59850  1.0000 0.1383925448
H   H40       1.0  0.72980  0.83510  0.40150  1.0000 0.1383925448
H   H41       1.0  0.02400  0.56100  0.91060  1.0000 0.1383925448
H   H42       1.0  0.65040  0.11340  0.08940  1.0000 0.1326481756
H   H43       1.0  0.56100  0.65040  0.53700  1.0000 0.1383925448
H   H44       1.0  0.11340  0.02400  0.46300  1.0000 0.1326481756
H   H45       1.0  0.97600  0.43900  0.08940  1.0000 0.1326481756
H   H46       1.0  0.34960  0.88660  0.91060  1.0000 0.1383925448
H   H47       1.0  0.43900  0.34960  0.46300  1.0000 0.1383925448
H   H48       1.0  0.88660  0.97600  0.53700  1.0000 0.1326481756
H   H49       1.0  0.79360  0.51250  0.78150  1.0000 0.1383925448
H   H50       1.0  0.73100  0.01210  0.21850  1.0000 0.1383925448
H   H51       1.0  0.51250  0.73100  0.71890  1.0000 0.1383925448
H   H52       1.0  0.01210  0.79360  0.28110  1.0000 0.1326481756
H   H53       1.0  0.20640  0.48750  0.21850  1.0000 0.1383925448
H   H54       1.0  0.26900  0.98790  0.78150  1.0000 0.1326481756
H   H55       1.0  0.48750  0.26900  0.28110  1.0000 0.1326481756
H   H56       1.0  0.98790  0.20640  0.71890  1.0000 0.1383925448
H   H57       1.0  0.65910  0.51960  0.80950  1.0000 0.1383925448
H   H58       1.0  0.71010  0.84960  0.19050  1.0000 0.1383925448
H   H59       1.0  0.51960  0.71010  0.86050  1.0000 0.1383925448
H   H60       1.0  0.84960  0.65910  0.13950  1.0000 0.1383925448
H   H61       1.0  0.34090  0.48040  0.19050  1.0000 0.1383925448
H   H62       1.0  0.28990  0.15040  0.80950  1.0000 0.1383925448
H   H63       1.0  0.48040  0.28990  0.13950  1.0000 0.1383925448
H   H64       1.0  0.15040  0.34090  0.86050  1.0000 0.1383925448
H   H65       1.0  0.64520  0.54080  0.66640  1.0000 0.1383925448
H   H66       1.0  0.87440  0.97880  0.33360  1.0000 0.1383925448
H   H67       1.0  0.54080  0.87440  0.89560  1.0000 0.1383925448
H   H68       1.0  0.97880  0.64520  0.10440  1.0000 0.1383925448
H   H69       1.0  0.35480  0.45920  0.33360  1.0000 0.1383925448
H   H70       1.0  0.12560  0.02120  0.66640  1.0000 0.1383925448
H   H71       1.0  0.45920  0.12560  0.10440  1.0000 0.1383925448
H   H72       1.0  0.02120  0.35480  0.89560  1.0000 0.1383925448
H   H73       1.0  0.73050  0.50040  0.52070  1.0000 0.1326481756
H   H74       1.0  0.97970  0.20980  0.47930  1.0000 0.1326481756
H   H75       1.0  0.50040  0.97970  0.76990  1.0000 0.1326481756
H   H76       1.0  0.20980  0.73050  0.23010  1.0000 0.1326481756
H   H77       1.0  0.26950  0.49960  0.47930  1.0000 0.1326481756
H   H78       1.0  0.02030  0.79020  0.52070  1.0000 0.1326481756
H   H79       1.0  0.49960  0.02030  0.23010  1.0000 0.1326481756
H   H80       1.0  0.79020  0.26950  0.76990  1.0000 0.1326481756
H   H81       1.0  0.69940  0.46850  0.34170  1.0000 0.1383925448
H   H82       1.0  0.12680  0.35770  0.65830  1.0000 0.1383925448
H   H83       1.0  0.46850  0.12680  0.76910  1.0000 0.1383925448
H   H84       1.0  0.35770  0.69940  0.23090  1.0000 0.1383925448
H   H85       1.0  0.30060  0.53150  0.65830  1.0000 0.1383925448
H   H86       1.0  0.87320  0.64230  0.34170  1.0000 0.1383925448
H   H87       1.0  0.53150  0.87320  0.23090  1.0000 0.1383925448
H   H88       1.0  0.64230  0.30060  0.76910  1.0000 0.1383925448
H   H89       1.0  0.86440  0.48920  0.49160  1.0000 0.1326481756
H   H90       1.0  0.99760  0.37280  0.50840  1.0000 0.1326481756
H   H91       1.0  0.48920  0.99760  0.62480  1.0000 0.1326481756
H   H92       1.0  0.37280  0.86440  0.37520  1.0000 0.1326481756
H   H93       1.0  0.13560  0.51080  0.50840  1.0000 0.1326481756
H   H94       1.0  0.00240  0.62720  0.49160  1.0000 0.1326481756
H   H95       1.0  0.51080  0.00240  0.37520  1.0000 0.1326481756
H   H96       1.0  0.62720  0.13560  0.62480  1.0000 0.1326481756
C   C1        1.0  0.89540  0.54900  0.74840  1.0000 0.5279050516
C   C2        1.0  0.80060  0.14700  0.25160  1.0000 0.5279050516
C   C3        1.0  0.54900  0.80060  0.65360  1.0000 0.5279050516
C   C4        1.0  0.14700  0.89540  0.34640  1.0000 0.5249805572
C   C5        1.0  0.10460  0.45100  0.25160  1.0000 0.5279050516
C   C6        1.0  0.19940  0.85300  0.74840  1.0000 0.5279050516
C   C7        1.0  0.45100  0.19940  0.34640  1.0000 0.5279050516
C   C8        1.0  0.85300  0.10460  0.65360  1.0000 0.5279050516
C   C9        1.0  0.79574  0.53194  0.68680  1.0000 0.5279050516
C   C10       1.0  0.84514  0.10894  0.31320  1.0000 0.5279050516
C   C11       1.0  0.53194  0.84514  0.73620  1.0000 0.5279050516
C   C12       1.0  0.10894  0.79574  0.26380  1.0000 0.5279050516
C   C13       1.0  0.20426  0.46806  0.31320  1.0000 0.5279050516
C   C14       1.0  0.15486  0.89106  0.68680  1.0000 0.5279050516
C   C15       1.0  0.46806  0.15486  0.26380  1.0000 0.5279050516
C   C16       1.0  0.89106  0.20426  0.73620  1.0000 0.5279050516
C   C17       1.0  0.84666  0.52316  0.63870  1.0000 0.536626896
C   C18       1.0  0.88446  0.20796  0.36130  1.0000 0.536626896
C   C19       1.0  0.52316  0.88446  0.67650  1.0000 0.536626896
C   C20       1.0  0.20796  0.84666  0.32350  1.0000 0.536626896
C   C21       1.0  0.15334  0.47684  0.36130  1.0000 0.536626896
C   C22       1.0  0.11554  0.79204  0.63870  1.0000 0.5279050516
C   C23       1.0  0.47684  0.11554  0.32350  1.0000 0.536626896
C   C24       1.0  0.79204  0.15334  0.67650  1.0000 0.536626896
C   C25       1.0  0.00529  0.56421  0.82968  1.0000 0.2098828261
C   C26       1.0  0.73453  0.17561  0.17032  1.0000 0.2098828261
C   C27       1.0  0.56421  0.73453  0.55892  1.0000 0.2098828261
C   C28       1.0  0.17561  0.00529  0.44108  1.0000 0.2098828261
C   C29       1.0  0.99471  0.43579  0.17032  1.0000 0.2049092027
C   C30       1.0  0.26547  0.82439  0.82968  1.0000 0.2098828261
C   C31       1.0  0.43579  0.26547  0.44108  1.0000 0.2098828261
C   C32       1.0  0.82439  0.99471  0.55892  1.0000 0.2098828261
C   C33       1.0  0.03056  0.56827  0.79669  1.0000 -0.1637473152
C   C34       1.0  0.77158  0.23387  0.20331  1.0000 -0.1637473152
C   C35       1.0  0.56827  0.77158  0.53771  1.0000 -0.1637473152
C   C36       1.0  0.23387  0.03056  0.46229  1.0000 -0.1637473152
C   C37       1.0  0.96944  0.43173  0.20331  1.0000 -0.1637473152
C   C38       1.0  0.22842  0.76613  0.79669  1.0000 -0.1637473152
C   C39       1.0  0.43173  0.22842  0.46229  1.0000 -0.1637473152
C   C40       1.0  0.76613  0.96944  0.53771  1.0000 -0.1637473152
C   C41       1.0  0.08994  0.56866  0.82086  1.0000 -0.0086572995
C   C42       1.0  0.74780  0.26908  0.17914  1.0000 -0.0086572995
C   C43       1.0  0.56866  0.74780  0.47872  1.0000 -0.0086572995
C   C44       1.0  0.26908  0.08994  0.52128  1.0000 -0.0086572995
C   C45       1.0  0.91006  0.43134  0.17914  1.0000 -0.0086572995
C   C46       1.0  0.25220  0.73092  0.82086  1.0000 -0.0086572995
C   C47       1.0  0.43134  0.25220  0.52128  1.0000 -0.0086572995
C   C48       1.0  0.73092  0.91006  0.47872  1.0000 -0.0086572995
C   C49       1.0  0.12494  0.56595  0.87851  1.0000 -0.1026949426
C   C50       1.0  0.68744  0.24643  0.12149  1.0000 -0.1026949426
C   C51       1.0  0.56595  0.68744  0.44101  1.0000 -0.1026949426
C   C52       1.0  0.24643  0.12494  0.55899  1.0000 -0.1026949426
C   C53       1.0  0.87506  0.43405  0.12149  1.0000 -0.1026949426
C   C54       1.0  0.31256  0.75357  0.87851  1.0000 -0.1026949426
C   C55       1.0  0.43405  0.31256  0.55899  1.0000 -0.1026949426
C   C56       1.0  0.75357  0.87506  0.44101  1.0000 -0.1026949426
C   C57       1.0  0.09969  0.56259  0.91144  1.0000 -0.0192854669
C   C58       1.0  0.65115  0.18825  0.08856  1.0000 -0.0192854669
C   C59       1.0  0.56259  0.65115  0.46290  1.0000 -0.0192854669
C   C60       1.0  0.18825  0.09969  0.53710  1.0000 -0.0192854669
C   C61       1.0  0.90031  0.43741  0.08856  1.0000 -0.0192854669
C   C62       1.0  0.34885  0.81175  0.91144  1.0000 -0.0192854669
C   C63       1.0  0.43741  0.34885  0.53710  1.0000 -0.0192854669
C   C64       1.0  0.81175  0.90031  0.46290  1.0000 -0.0192854669
C   C65       1.0  0.04041  0.56242  0.88759  1.0000 -0.1884571261
C   C66       1.0  0.67483  0.15282  0.11241  1.0000 -0.1884571261
C   C67       1.0  0.56242  0.67483  0.52201  1.0000 -0.1884571261
C   C68       1.0  0.15282  0.04041  0.47799  1.0000 -0.1884571261
C   C69       1.0  0.95959  0.43758  0.11241  1.0000 -0.1884571261
C   C70       1.0  0.32517  0.84718  0.88759  1.0000 -0.1884571261
C   C71       1.0  0.43758  0.32517  0.47799  1.0000 -0.1884571261
C   C72       1.0  0.84718  0.95959  0.52201  1.0000 -0.1884571261
C   C73       1.0  0.11639  0.56865  0.78260  1.0000 0.5792887295
C   C74       1.0  0.78605  0.33379  0.21740  1.0000 0.5792887295
C   C75       1.0  0.56865  0.78605  0.45226  1.0000 0.5792887295
C   C76       1.0  0.33379  0.11639  0.54774  1.0000 0.5792887295
C   C77       1.0  0.88361  0.43135  0.21740  1.0000 0.5792887295
C   C78       1.0  0.21395  0.66621  0.78260  1.0000 0.5792887295
C   C79       1.0  0.43135  0.21395  0.54774  1.0000 0.5792887295
C   C80       1.0  0.66621  0.88361  0.45226  1.0000 0.5792887295
C   C81       1.0  0.13424  0.55538  0.96974  1.0000 0.5792887295
C   C82       1.0  0.58564  0.16450  0.03026  1.0000 0.5792887295
C   C83       1.0  0.55538  0.58564  0.42114  1.0000 0.5792887295
C   C84       1.0  0.16450  0.13424  0.57886  1.0000 0.5792887295
C   C85       1.0  0.86576  0.44462  0.03026  1.0000 0.5792887295
C   C86       1.0  0.41436  0.83550  0.96974  1.0000 0.5792887295
C   C87       1.0  0.44462  0.41436  0.57886  1.0000 0.5792887295
C   C88       1.0  0.83550  0.86576  0.42114  1.0000 0.5792887295
C   C89       1.0  0.72299  0.52639  0.71760  1.0000 0.2098828261
C   C90       1.0  0.80879  0.00539  0.28240  1.0000 0.2098828261
C   C91       1.0  0.52639  0.80879  0.80340  1.0000 0.2098828261
C   C92       1.0  0.00539  0.72299  0.19660  1.0000 0.2098828261
C   C93       1.0  0.27701  0.47361  0.28240  1.0000 0.2098828261
C   C94       1.0  0.19121  0.99461  0.71760  1.0000 0.2098828261
C   C95       1.0  0.47361  0.19121  0.19660  1.0000 0.2098828261
C   C96       1.0  0.99461  0.27701  0.80340  1.0000 0.2098828261
C   C97       1.0  0.75571  0.51690  0.76961  1.0000 -0.1637473152
C   C98       1.0  0.74729  0.98610  0.23039  1.0000 -0.1637473152
C   C99       1.0  0.51690  0.74729  0.76119  1.0000 -0.1656552134
C   C100      1.0  0.98610  0.75571  0.23881  1.0000 -0.1637473152
C   C101      1.0  0.24429  0.48310  0.23039  1.0000 -0.1656552134
C   C102      1.0  0.25271  0.01390  0.76961  1.0000 -0.1656552134
C   C103      1.0  0.48310  0.25271  0.23881  1.0000 -0.1637473152
C   C104      1.0  0.01390  0.24429  0.76119  1.0000 -0.1656552134
C   C105      1.0  0.73127  0.51385  0.80426  1.0000 -0.0192854669
C   C106      1.0  0.70959  0.92701  0.19574  1.0000 -0.0192854669
C   C107      1.0  0.51385  0.70959  0.78258  1.0000 -0.0192854669
C   C108      1.0  0.92701  0.73127  0.21742  1.0000 -0.0192854669
C   C109      1.0  0.26873  0.48615  0.19574  1.0000 -0.0192854669
C   C110      1.0  0.29041  0.07299  0.80426  1.0000 -0.0192854669
C   C111      1.0  0.48615  0.29041  0.21742  1.0000 -0.0192854669
C   C112      1.0  0.07299  0.26873  0.78258  1.0000 -0.0192854669
C   C113      1.0  0.67522  0.52107  0.78629  1.0000 -0.1026949426
C   C114      1.0  0.73478  0.88893  0.21371  1.0000 -0.1026949426
C   C115      1.0  0.52107  0.73478  0.84585  1.0000 -0.1026949426
C   C116      1.0  0.88893  0.67522  0.15415  1.0000 -0.1026949426
C   C117      1.0  0.32478  0.47893  0.21371  1.0000 -0.1026949426
C   C118      1.0  0.26522  0.11107  0.78629  1.0000 -0.1026949426
C   C119      1.0  0.47893  0.26522  0.15415  1.0000 -0.1026949426
C   C120      1.0  0.11107  0.32478  0.84585  1.0000 -0.1026949426
C   C121      1.0  0.64280  0.53032  0.73456  1.0000 -0.0192854669
C   C122      1.0  0.79576  0.90824  0.26544  1.0000 -0.0192854669
C   C123      1.0  0.53032  0.79576  0.88752  1.0000 -0.0192854669
C   C124      1.0  0.90824  0.64280  0.11248  1.0000 -0.0192854669
C   C125      1.0  0.35720  0.46968  0.26544  1.0000 -0.0192854669
C   C126      1.0  0.20424  0.09176  0.73456  1.0000 -0.0192854669
C   C127      1.0  0.46968  0.20424  0.11248  1.0000 -0.0192854669
C   C128      1.0  0.09176  0.35720  0.88752  1.0000 -0.0192854669
C   C129      1.0  0.66685  0.53367  0.70078  1.0000 -0.1884571261
C   C130      1.0  0.83289  0.96607  0.29922  1.0000 -0.1884571261
C   C131      1.0  0.53367  0.83289  0.86682  1.0000 -0.1884571261
C   C132      1.0  0.96607  0.66685  0.13318  1.0000 -0.1884571261
C   C133      1.0  0.33315  0.46633  0.29922  1.0000 -0.1884571261
C   C134      1.0  0.16711  0.03393  0.70078  1.0000 -0.1884571261
C   C135      1.0  0.46633  0.16711  0.13318  1.0000 -0.1884571261
C   C136      1.0  0.03393  0.33315  0.86682  1.0000 -0.1884571261
C   C137      1.0  0.76433  0.49963  0.85716  1.0000 0.5792887295
C   C138      1.0  0.64247  0.90717  0.14284  1.0000 0.5792887295
C   C139      1.0  0.49963  0.64247  0.73530  1.0000 0.5792887295
C   C140      1.0  0.90717  0.76433  0.26470  1.0000 0.5792887295
C   C141      1.0  0.23567  0.50037  0.14284  1.0000 0.5792887295
C   C142      1.0  0.35753  0.09283  0.85716  1.0000 0.5792887295
C   C143      1.0  0.50037  0.35753  0.26470  1.0000 0.5792887295
C   C144      1.0  0.09283  0.23567  0.73530  1.0000 0.5792887295
C   C145      1.0  0.58023  0.53399  0.71102  1.0000 0.5792887295
C   C146      1.0  0.82297  0.86921  0.28898  1.0000 0.5792887295
C   C147      1.0  0.53399  0.82297  0.95376  1.0000 0.5792887295
C   C148      1.0  0.86921  0.58023  0.04624  1.0000 0.5792887295
C   C149      1.0  0.41977  0.46601  0.28898  1.0000 0.5792887295
C   C150      1.0  0.17703  0.13079  0.71102  1.0000 0.5792887295
C   C151      1.0  0.46601  0.17703  0.04624  1.0000 0.5792887295
C   C152      1.0  0.13079  0.41977  0.95376  1.0000 0.5792887295
C   C153      1.0  0.80428  0.49702  0.51746  1.0000 0.2098828261
C   C154      1.0  0.97956  0.28682  0.48254  1.0000 0.2098828261
C   C155      1.0  0.49702  0.97956  0.69274  1.0000 0.2098828261
C   C156      1.0  0.28682  0.80428  0.30726  1.0000 0.2098828261
C   C157      1.0  0.19572  0.50298  0.48254  1.0000 0.2098828261
C   C158      1.0  0.02044  0.71318  0.51746  1.0000 0.2098828261
C   C159      1.0  0.50298  0.02044  0.30726  1.0000 0.2098828261
C   C160      1.0  0.71318  0.19572  0.69274  1.0000 0.2098828261
C   C161      1.0  0.74441  0.49500  0.49321  1.0000 -0.1637473152
C   C162      1.0  0.00179  0.25120  0.50679  1.0000 -0.1656552134
C   C163      1.0  0.49500  0.00179  0.75059  1.0000 -0.1637473152
C   C164      1.0  0.25120  0.74441  0.24941  1.0000 -0.1637473152
C   C165      1.0  0.25559  0.50500  0.50679  1.0000 -0.1656552134
C   C166      1.0  0.99821  0.74880  0.49321  1.0000 -0.1637473152
C   C167      1.0  0.50500  0.99821  0.24941  1.0000 -0.1656552134
C   C168      1.0  0.74880  0.25559  0.75059  1.0000 -0.1637473152
C   C169      1.0  0.70524  0.48489  0.42799  1.0000 -0.0192854669
C   C170      1.0  0.05690  0.27725  0.57201  1.0000 -0.0192854669
C   C171      1.0  0.48489  0.05690  0.77965  1.0000 -0.0192854669
C   C172      1.0  0.27725  0.70524  0.22035  1.0000 -0.0192854669
C   C173      1.0  0.29476  0.51511  0.57201  1.0000 -0.0192854669
C   C174      1.0  0.94310  0.72275  0.42799  1.0000 -0.0192854669
C   C175      1.0  0.51511  0.94310  0.22035  1.0000 -0.0192854669
C   C176      1.0  0.72275  0.29476  0.77965  1.0000 -0.0192854669
C   C177      1.0  0.72547  0.47530  0.38541  1.0000 -0.1026949426
C   C178      1.0  0.08989  0.34006  0.61459  1.0000 -0.1026949426
C   C179      1.0  0.47530  0.08989  0.74983  1.0000 -0.1026949426
C   C180      1.0  0.34006  0.72547  0.25017  1.0000 -0.1026949426
C   C181      1.0  0.27453  0.52470  0.61459  1.0000 -0.1026949426
C   C182      1.0  0.91011  0.65994  0.38541  1.0000 -0.1026949426
C   C183      1.0  0.52470  0.91011  0.25017  1.0000 -0.1026949426
C   C184      1.0  0.65994  0.27453  0.74983  1.0000 -0.1026949426
C   C185      1.0  0.78529  0.47621  0.41000  1.0000 -0.0192854669
C   C186      1.0  0.06621  0.37529  0.59000  1.0000 -0.0192854669
C   C187      1.0  0.47621  0.06621  0.69092  1.0000 -0.0192854669
C   C188      1.0  0.37529  0.78529  0.30908  1.0000 -0.0192854669
C   C189      1.0  0.21471  0.52379  0.59000  1.0000 -0.0192854669
C   C190      1.0  0.93379  0.62471  0.41000  1.0000 -0.0192854669
C   C191      1.0  0.52379  0.93379  0.30908  1.0000 -0.0192854669
C   C192      1.0  0.62471  0.21471  0.69092  1.0000 -0.0192854669
C   C193      1.0  0.82420  0.48767  0.47533  1.0000 -0.1884571261
C   C194      1.0  0.01234  0.34887  0.52467  1.0000 -0.1884571261
C   C195      1.0  0.48767  0.01234  0.66347  1.0000 -0.1884571261
C   C196      1.0  0.34887  0.82420  0.33653  1.0000 -0.1884571261
C   C197      1.0  0.17580  0.51233  0.52467  1.0000 -0.1884571261
C   C198      1.0  0.98766  0.65113  0.47533  1.0000 -0.1884571261
C   C199      1.0  0.51233  0.98766  0.33653  1.0000 -0.1884571261
C   C200      1.0  0.65113  0.17580  0.66347  1.0000 -0.1884571261
C   C201      1.0  0.64057  0.48076  0.39933  1.0000 0.5792887295
C   C202      1.0  0.08143  0.24124  0.60067  1.0000 0.5792887295
C   C203      1.0  0.48076  0.08143  0.84019  1.0000 0.5792887295
C   C204      1.0  0.24124  0.64057  0.15981  1.0000 0.5792887295
C   C205      1.0  0.35943  0.51924  0.60067  1.0000 0.5792887295
C   C206      1.0  0.91857  0.75876  0.39933  1.0000 0.5792887295
C   C207      1.0  0.51924  0.91857  0.15981  1.0000 0.5792887295
C   C208      1.0  0.75876  0.35943  0.84019  1.0000 0.5792887295
C   C209      1.0  0.80600  0.46470  0.36424  1.0000 0.5792887295
C   C210      1.0  0.10046  0.44176  0.63576  1.0000 0.5792887295
C   C211      1.0  0.46470  0.10046  0.65870  1.0000 0.5792887295
C   C212      1.0  0.44176  0.80600  0.34130  1.0000 0.5792887295
C   C213      1.0  0.19400  0.53530  0.63576  1.0000 0.5792887295
C   C214      1.0  0.89954  0.55824  0.36424  1.0000 0.5792887295
C   C215      1.0  0.53530  0.89954  0.34130  1.0000 0.5792887295
C   C216      1.0  0.55824  0.19400  0.65870  1.0000 0.5792887295
N   N1        1.0  0.89931  0.53794  0.69637  1.0000 -0.5212295923
N   N2        1.0  0.84157  0.20294  0.30363  1.0000 -0.5212295923
N   N3        1.0  0.53794  0.84157  0.63863  1.0000 -0.5212295923
N   N4        1.0  0.20294  0.89931  0.36137  1.0000 -0.5212295923
N   N5        1.0  0.10069  0.46206  0.30363  1.0000 -0.5212295923
N   N6        1.0  0.15843  0.79706  0.69637  1.0000 -0.5212295923
N   N7        1.0  0.46206  0.15843  0.36137  1.0000 -0.5212295923
N   N8        1.0  0.79706  0.10069  0.63863  1.0000 -0.5212295923
N   N9        1.0  0.84475  0.54636  0.74659  1.0000 -0.5212295923
N   N10       1.0  0.79977  0.09816  0.25341  1.0000 -0.5298493145
N   N11       1.0  0.54636  0.79977  0.70161  1.0000 -0.5212295923
N   N12       1.0  0.09816  0.84475  0.29839  1.0000 -0.5212295923
N   N13       1.0  0.15525  0.45364  0.25341  1.0000 -0.5212295923
N   N14       1.0  0.20023  0.90184  0.74659  1.0000 -0.5212295923
N   N15       1.0  0.45364  0.20023  0.29839  1.0000 -0.5212295923
N   N16       1.0  0.90184  0.15525  0.70161  1.0000 -0.5212295923
N   N17       1.0  0.79294  0.51918  0.62916  1.0000 -0.5384143493
N   N18       1.0  0.89002  0.16378  0.37084  1.0000 -0.5384143493
N   N19       1.0  0.51918  0.89002  0.72624  1.0000 -0.5298493145
N   N20       1.0  0.16378  0.79294  0.27376  1.0000 -0.5298493145
N   N21       1.0  0.20706  0.48082  0.37084  1.0000 -0.5384143493
N   N22       1.0  0.10998  0.83622  0.62916  1.0000 -0.5298493145
N   N23       1.0  0.48082  0.10998  0.27376  1.0000 -0.5298493145
N   N24       1.0  0.83622  0.20706  0.72624  1.0000 -0.5298493145
N   N25       1.0  0.94552  0.56395  0.80997  1.0000 -0.3395716308
N   N26       1.0  0.75398  0.13555  0.19003  1.0000 -0.3328811268
N   N27       1.0  0.56395  0.75398  0.61843  1.0000 -0.3328811268
N   N28       1.0  0.13555  0.94552  0.38157  1.0000 -0.3328811268
N   N29       1.0  0.05448  0.43605  0.19003  1.0000 -0.3328811268
N   N30       1.0  0.24602  0.86445  0.80997  1.0000 -0.3395716308
N   N31       1.0  0.43605  0.24602  0.38157  1.0000 -0.3395716308
N   N32       1.0  0.86445  0.05448  0.61843  1.0000 -0.3328811268
N   N33       1.0  0.74073  0.52573  0.67600  1.0000 -0.3328811268
N   N34       1.0  0.84973  0.06473  0.32400  1.0000 -0.3328811268
N   N35       1.0  0.52573  0.84973  0.78500  1.0000 -0.3328811268
N   N36       1.0  0.06473  0.74073  0.21500  1.0000 -0.3328811268
N   N37       1.0  0.25927  0.47427  0.32400  1.0000 -0.3328811268
N   N38       1.0  0.15027  0.93527  0.67600  1.0000 -0.3328811268
N   N39       1.0  0.47427  0.15027  0.21500  1.0000 -0.3328811268
N   N40       1.0  0.93527  0.25927  0.78500  1.0000 -0.3328811268
N   N41       1.0  0.84971  0.51115  0.58476  1.0000 -0.3465323972
N   N42       1.0  0.92639  0.26495  0.41524  1.0000 -0.3465323972
N   N43       1.0  0.51115  0.92639  0.66144  1.0000 -0.3395716308
N   N44       1.0  0.26495  0.84971  0.33856  1.0000 -0.3465323972
N   N45       1.0  0.15029  0.48885  0.41524  1.0000 -0.3465323972
N   N46       1.0  0.07361  0.73505  0.58476  1.0000 -0.3465323972
N   N47       1.0  0.48885  0.07361  0.33856  1.0000 -0.3395716308
N   N48       1.0  0.73505  0.15029  0.66144  1.0000 -0.3465323972
O   O1        1.0  0.08507  0.57351  0.73250  1.0000 -0.5212295923
O   O2        1.0  0.84101  0.35257  0.26750  1.0000 -0.5212295923
O   O3        1.0  0.57351  0.84101  0.48844  1.0000 -0.5212295923
O   O4        1.0  0.35257  0.08507  0.51156  1.0000 -0.5212295923
O   O5        1.0  0.91493  0.42649  0.26750  1.0000 -0.5212295923
O   O6        1.0  0.15899  0.64743  0.73250  1.0000 -0.5212295923
O   O7        1.0  0.42649  0.15899  0.51156  1.0000 -0.5212295923
O   O8        1.0  0.64743  0.91493  0.48844  1.0000 -0.5212295923
O   O9        1.0  0.16782  0.56135  0.80249  1.0000 -0.5212295923
O   O10       1.0  0.75886  0.36533  0.19751  1.0000 -0.5212295923
O   O11       1.0  0.56135  0.75886  0.39353  1.0000 -0.5212295923
O   O12       1.0  0.36533  0.16782  0.60647  1.0000 -0.5212295923
O   O13       1.0  0.83218  0.43865  0.19751  1.0000 -0.5212295923
O   O14       1.0  0.24114  0.63467  0.80249  1.0000 -0.5212295923
O   O15       1.0  0.43865  0.24114  0.60647  1.0000 -0.5212295923
O   O16       1.0  0.63467  0.83218  0.39353  1.0000 -0.5212295923
O   O17       1.0  0.18718  0.55333  0.98863  1.0000 -0.5212295923
O   O18       1.0  0.56470  0.19855  0.01137  1.0000 -0.5212295923
O   O19       1.0  0.55333  0.56470  0.36615  1.0000 -0.5212295923
O   O20       1.0  0.19855  0.18718  0.63385  1.0000 -0.5212295923
O   O21       1.0  0.81282  0.44667  0.01137  1.0000 -0.5212295923
O   O22       1.0  0.43530  0.80145  0.98863  1.0000 -0.5212295923
O   O23       1.0  0.44667  0.43530  0.63385  1.0000 -0.5212295923
O   O24       1.0  0.80145  0.81282  0.36615  1.0000 -0.5212295923
O   O25       1.0  0.10747  0.54978  0.99545  1.0000 -0.5384143493
O   O26       1.0  0.55433  0.11202  0.00455  1.0000 -0.5384143493
O   O27       1.0  0.54978  0.55433  0.44231  1.0000 -0.5384143493
O   O28       1.0  0.11202  0.10747  0.55769  1.0000 -0.5384143493
O   O29       1.0  0.89253  0.45022  0.00455  1.0000 -0.5384143493
O   O30       1.0  0.44567  0.88798  0.99545  1.0000 -0.5384143493
O   O31       1.0  0.45022  0.44567  0.55769  1.0000 -0.5384143493
O   O32       1.0  0.88798  0.89253  0.44231  1.0000 -0.5384143493
O   O33       1.0  0.81181  0.48664  0.86605  1.0000 -0.5212295923
O   O34       1.0  0.62059  0.94576  0.13395  1.0000 -0.5212295923
O   O35       1.0  0.48664  0.62059  0.67483  1.0000 -0.5212295923
O   O36       1.0  0.94576  0.81181  0.32517  1.0000 -0.5212295923
O   O37       1.0  0.18819  0.51336  0.13395  1.0000 -0.5212295923
O   O38       1.0  0.37941  0.05424  0.86605  1.0000 -0.5212295923
O   O39       1.0  0.51336  0.37941  0.32517  1.0000 -0.5212295923
O   O40       1.0  0.05424  0.18819  0.67483  1.0000 -0.5212295923
O   O41       1.0  0.74098  0.50046  0.88858  1.0000 -0.5298493145
O   O42       1.0  0.61188  0.85240  0.11142  1.0000 -0.5298493145
O   O43       1.0  0.50046  0.61188  0.75948  1.0000 -0.5298493145
O   O44       1.0  0.85240  0.74098  0.24052  1.0000 -0.5298493145
O   O45       1.0  0.25902  0.49954  0.11142  1.0000 -0.5298493145
O   O46       1.0  0.38812  0.14760  0.88858  1.0000 -0.5298493145
O   O47       1.0  0.49954  0.38812  0.24052  1.0000 -0.5298493145
O   O48       1.0  0.14760  0.25902  0.75948  1.0000 -0.5298493145
O   O49       1.0  0.55718  0.52533  0.73853  1.0000 -0.5212295923
O   O50       1.0  0.78680  0.81865  0.26147  1.0000 -0.5115844349
O   O51       1.0  0.52533  0.78680  0.96815  1.0000 -0.5115844349
O   O52       1.0  0.81865  0.55718  0.03185  1.0000 -0.5212295923
O   O53       1.0  0.44282  0.47467  0.26147  1.0000 -0.5212295923
O   O54       1.0  0.21320  0.18135  0.73853  1.0000 -0.5115844349
O   O55       1.0  0.47467  0.21320  0.03185  1.0000 -0.5115844349
O   O56       1.0  0.18135  0.44282  0.96815  1.0000 -0.5115844349
O   O57       1.0  0.55451  0.54359  0.66390  1.0000 -0.5384143493
O   O58       1.0  0.87969  0.89061  0.33610  1.0000 -0.5384143493
O   O59       1.0  0.54359  0.87969  0.98908  1.0000 -0.5384143493
O   O60       1.0  0.89061  0.55451  0.01092  1.0000 -0.5384143493
O   O61       1.0  0.44549  0.45641  0.33610  1.0000 -0.5384143493
O   O62       1.0  0.12031  0.10939  0.66390  1.0000 -0.5384143493
O   O63       1.0  0.45641  0.12031  0.01092  1.0000 -0.5384143493
O   O64       1.0  0.10939  0.44549  0.98908  1.0000 -0.5384143493
O   O65       1.0  0.61882  0.47892  0.43122  1.0000 -0.5298493145
O   O66       1.0  0.04770  0.18760  0.56878  1.0000 -0.5298493145
O   O67       1.0  0.47892  0.04770  0.86010  1.0000 -0.5298493145
O   O68       1.0  0.18760  0.61882  0.13990  1.0000 -0.5298493145
O   O69       1.0  0.38118  0.52108  0.56878  1.0000 -0.5298493145
O   O70       1.0  0.95230  0.81240  0.43122  1.0000 -0.5298493145
O   O71       1.0  0.52108  0.95230  0.13990  1.0000 -0.5298493145
O   O72       1.0  0.81240  0.38118  0.86010  1.0000 -0.5298493145
O   O73       1.0  0.61046  0.47785  0.34299  1.0000 -0.5298493145
O   O74       1.0  0.13486  0.26747  0.65701  1.0000 -0.5298493145
O   O75       1.0  0.47785  0.13486  0.86739  1.0000 -0.5298493145
O   O76       1.0  0.26747  0.61046  0.13261  1.0000 -0.5298493145
O   O77       1.0  0.38954  0.52215  0.65701  1.0000 -0.5298493145
O   O78       1.0  0.86514  0.73253  0.34299  1.0000 -0.5298493145
O   O79       1.0  0.52215  0.86514  0.13261  1.0000 -0.5298493145
O   O80       1.0  0.73253  0.38954  0.86739  1.0000 -0.5298493145
O   O81       1.0  0.77341  0.46570  0.31179  1.0000 -0.5115844349
O   O82       1.0  0.15391  0.46162  0.68821  1.0000 -0.5115844349
O   O83       1.0  0.46570  0.15391  0.69229  1.0000 -0.5115844349
O   O84       1.0  0.46162  0.77341  0.30771  1.0000 -0.5115844349
O   O85       1.0  0.22659  0.53430  0.68821  1.0000 -0.5115844349
O   O86       1.0  0.84609  0.53838  0.31179  1.0000 -0.5115844349
O   O87       1.0  0.53430  0.84609  0.30771  1.0000 -0.5115844349
O   O88       1.0  0.53838  0.22659  0.69229  1.0000 -0.5115844349
O   O89       1.0  0.85607  0.45377  0.38172  1.0000 -0.5384143493
O   O90       1.0  0.07205  0.47435  0.61828  1.0000 -0.5384143493
O   O91       1.0  0.45377  0.07205  0.59770  1.0000 -0.5384143493
O   O92       1.0  0.47435  0.85607  0.40230  1.0000 -0.5384143493
O   O93       1.0  0.14393  0.54623  0.61828  1.0000 -0.5384143493
O   O94       1.0  0.92795  0.52565  0.38172  1.0000 -0.5384143493
O   O95       1.0  0.54623  0.92795  0.40230  1.0000 -0.5458596824
O   O96       1.0  0.52565  0.14393  0.59770  1.0000 -0.5384143493
