# DDEC6 charges by PACMAN v1.1 (https://github.com/mtap-research/PACMAN-charge/)
data_2011[Cu][lvt]3[ASR]3
_chemical_formula_sum              "Cu8 H128 C160 N32"
_cell_length_a       22.1137
_cell_length_b       22.1137
_cell_length_c       22.1137
_cell_angle_alpha    99.6029
_cell_angle_beta     99.6029
_cell_angle_gamma    131.787

_symmetry_space_group_name_H-M    "P 1"
_symmetry_Int_Tables_number       1

loop_
  _symmetry_equiv_pos_as_xyz
  'x, y, z'

loop_
  _atom_site_type_symbol
  _atom_site_label
  _atom_site_symmetry_multiplicity
  _atom_site_fract_x
  _atom_site_fract_y
  _atom_site_fract_z
  _atom_site_occupancy
  _atom_site_charge
Cu  Cu1       1.0  0.86504  0.12500  0.24004  1.0000 0.2101985493
Cu  Cu2       1.0  0.88496  0.62500  0.75996  1.0000 0.2101985493
Cu  Cu3       1.0  0.87500  0.11504  0.74004  1.0000 0.2101985493
Cu  Cu4       1.0  0.37500  0.13496  0.25996  1.0000 0.2101985493
Cu  Cu5       1.0  0.37500  0.63496  0.75996  1.0000 0.2101985493
Cu  Cu6       1.0  0.87500  0.61504  0.24004  1.0000 0.2101985493
Cu  Cu7       1.0  0.38496  0.62500  0.25996  1.0000 0.2101985493
Cu  Cu8       1.0  0.36504  0.12500  0.74004  1.0000 0.2101985493
H   H1        1.0  0.90100  0.22870  0.37010  1.0000 0.0901230896
H   H2        1.0  0.85860  0.53090  0.62990  1.0000 0.0901230896
H   H3        1.0  0.84900  0.71910  0.82770  1.0000 0.0901230896
H   H4        1.0  0.89140  0.02130  0.17230  1.0000 0.0901230896
H   H5        1.0  0.77130  0.14140  0.67230  1.0000 0.0901230896
H   H6        1.0  0.46910  0.09900  0.32770  1.0000 0.0901230896
H   H7        1.0  0.97870  0.15100  0.87010  1.0000 0.0901230896
H   H8        1.0  0.28090  0.10860  0.12990  1.0000 0.0901230896
H   H9        1.0  0.90900  0.22870  0.47490  1.0000 0.1219808892
H   H10       1.0  0.75380  0.43410  0.52510  1.0000 0.1219808892
H   H11       1.0  0.84100  0.81590  0.81970  1.0000 0.1219808892
H   H12       1.0  0.99620  0.02130  0.18030  1.0000 0.1219808892
H   H13       1.0  0.77130  0.24620  0.68030  1.0000 0.1219808892
H   H14       1.0  0.56590  0.09100  0.31970  1.0000 0.1219808892
H   H15       1.0  0.97870  0.15900  0.97490  1.0000 0.1219808892
H   H16       1.0  0.18410  0.00380  0.02510  1.0000 0.1219808892
H   H17       1.0  0.83560  0.00030  0.41330  1.0000 0.1257447318
H   H18       1.0  0.58700  0.42230  0.58670  1.0000 0.1257447318
H   H19       1.0  0.91440  0.82770  0.66470  1.0000 0.1257447318
H   H20       1.0  0.16300  0.24970  0.33530  1.0000 0.1219808892
H   H21       1.0  0.99970  0.41300  0.83530  1.0000 0.1257447318
H   H22       1.0  0.57770  0.16440  0.16470  1.0000 0.1257447318
H   H23       1.0  0.75030  0.08560  0.91330  1.0000 0.1257447318
H   H24       1.0  0.17230  0.83700  0.08670  1.0000 0.1257447318
H   H25       1.0  0.83830  0.01150  0.31220  1.0000 0.0901230896
H   H26       1.0  0.69930  0.52610  0.68780  1.0000 0.0901230896
H   H27       1.0  0.91170  0.72390  0.67320  1.0000 0.0901230896
H   H28       1.0  0.05070  0.23850  0.32680  1.0000 0.0901230896
H   H29       1.0  0.98850  0.30070  0.82680  1.0000 0.0901230896
H   H30       1.0  0.47390  0.16170  0.17320  1.0000 0.0901230896
H   H31       1.0  0.76150  0.08830  0.81220  1.0000 0.0901230896
H   H32       1.0  0.27610  0.94930  0.18780  1.0000 0.0901230896
H   H33       1.0  0.98740  0.23820  0.67840  1.0000 0.0901230896
H   H34       1.0  0.55980  0.30900  0.32160  1.0000 0.0901230896
H   H35       1.0  0.76260  0.94100  0.75080  1.0000 0.0901230896
H   H36       1.0  0.19020  0.01180  0.24920  1.0000 0.0901230896
H   H37       1.0  0.76180  0.44020  0.74920  1.0000 0.0901230896
H   H38       1.0  0.69100  0.01260  0.25080  1.0000 0.0901230896
H   H39       1.0  0.98820  0.23740  0.17840  1.0000 0.0901230896
H   H40       1.0  0.05900  0.80980  0.82160  1.0000 0.0901230896
H   H41       1.0  0.98470  0.24230  0.57580  1.0000 0.1219808892
H   H42       1.0  0.66650  0.40890  0.42420  1.0000 0.1219808892
H   H43       1.0  0.76530  0.84110  0.75760  1.0000 0.1219808892
H   H44       1.0  0.08350  0.00770  0.24240  1.0000 0.1219808892
H   H45       1.0  0.75770  0.33350  0.74240  1.0000 0.1219808892
H   H46       1.0  0.59110  0.01530  0.25760  1.0000 0.1219808892
H   H47       1.0  0.99230  0.23470  0.07580  1.0000 0.1219808892
H   H48       1.0  0.15890  0.91650  0.92420  1.0000 0.1219808892
H   H49       1.0  0.77150  0.98190  0.49580  1.0000 0.1219808892
H   H50       1.0  0.48610  0.27570  0.50420  1.0000 0.1219808892
H   H51       1.0  0.97850  0.97430  0.71040  1.0000 0.1219808892
H   H52       1.0  0.26390  0.26810  0.28960  1.0000 0.1219808892
H   H53       1.0  0.01810  0.51390  0.78960  1.0000 0.1219808892
H   H54       1.0  0.72430  0.22850  0.21040  1.0000 0.1219808892
H   H55       1.0  0.73190  0.02150  0.99580  1.0000 0.1219808892
H   H56       1.0  0.02570  0.73610  0.00420  1.0000 0.1219808892
H   H57       1.0  0.77670  0.98560  0.60190  1.0000 0.0901230896
H   H58       1.0  0.38370  0.17480  0.39810  1.0000 0.0901230896
H   H59       1.0  0.97330  0.07520  0.70890  1.0000 0.0901230896
H   H60       1.0  0.36630  0.26440  0.29110  1.0000 0.0901230896
H   H61       1.0  0.01440  0.61630  0.79110  1.0000 0.0901230896
H   H62       1.0  0.82520  0.22330  0.20890  1.0000 0.0901230896
H   H63       1.0  0.73560  0.02670  0.10190  1.0000 0.0901230896
H   H64       1.0  0.92480  0.63370  0.89810  1.0000 0.0901230896
H   H65       1.0  0.47870  0.60860  0.82770  1.0000 0.0901230896
H   H66       1.0  0.78090  0.65100  0.17230  1.0000 0.0901230896
H   H67       1.0  0.27130  0.59900  0.62990  1.0000 0.0901230896
H   H68       1.0  0.96910  0.64140  0.37010  1.0000 0.0901230896
H   H69       1.0  0.34900  0.52130  0.12990  1.0000 0.0901230896
H   H70       1.0  0.39140  0.21910  0.87010  1.0000 0.0901230896
H   H71       1.0  0.40100  0.03090  0.67230  1.0000 0.0901230896
H   H72       1.0  0.35860  0.72870  0.32770  1.0000 0.0901230896
H   H73       1.0  0.47870  0.50380  0.81970  1.0000 0.1219808892
H   H74       1.0  0.68410  0.65900  0.18030  1.0000 0.1219808892
H   H75       1.0  0.27130  0.59100  0.52510  1.0000 0.1219808892
H   H76       1.0  0.06590  0.74620  0.47490  1.0000 0.1219808892
H   H77       1.0  0.34100  0.52130  0.02510  1.0000 0.1219808892
H   H78       1.0  0.49620  0.31590  0.97490  1.0000 0.1219808892
H   H79       1.0  0.40900  0.93410  0.68030  1.0000 0.1219808892
H   H80       1.0  0.25380  0.72870  0.31970  1.0000 0.1219808892
H   H81       1.0  0.25030  0.33700  0.66470  1.0000 0.1257447318
H   H82       1.0  0.67230  0.58560  0.33530  1.0000 0.1257447318
H   H83       1.0  0.49970  0.66440  0.58670  1.0000 0.1257447318
H   H84       1.0  0.07770  0.91300  0.41330  1.0000 0.1219808892
H   H85       1.0  0.41440  0.74970  0.08670  1.0000 0.1257447318
H   H86       1.0  0.66300  0.32770  0.91330  1.0000 0.1257447318
H   H87       1.0  0.33560  0.92230  0.83530  1.0000 0.1257447318
H   H88       1.0  0.08700  0.50030  0.16470  1.0000 0.1257447318
H   H89       1.0  0.26150  0.44930  0.67320  1.0000 0.0901230896
H   H90       1.0  0.77610  0.58830  0.32680  1.0000 0.0901230896
H   H91       1.0  0.48850  0.66170  0.68780  1.0000 0.0901230896
H   H92       1.0  0.97390  0.80070  0.31220  1.0000 0.0901230896
H   H93       1.0  0.41170  0.73850  0.18780  1.0000 0.0901230896
H   H94       1.0  0.55070  0.22390  0.81220  1.0000 0.0901230896
H   H95       1.0  0.33830  0.02610  0.82680  1.0000 0.0901230896
H   H96       1.0  0.19930  0.51150  0.17320  1.0000 0.0901230896
H   H97       1.0  0.48820  0.30980  0.75080  1.0000 0.0901230896
H   H98       1.0  0.55900  0.73740  0.24920  1.0000 0.0901230896
H   H99       1.0  0.26180  0.51260  0.32160  1.0000 0.0901230896
H   H100      1.0  0.19100  0.94020  0.67840  1.0000 0.0901230896
H   H101      1.0  0.26260  0.51180  0.82160  1.0000 0.0901230896
H   H102      1.0  0.69020  0.44100  0.17840  1.0000 0.0901230896
H   H103      1.0  0.48740  0.80900  0.74920  1.0000 0.0901230896
H   H104      1.0  0.05980  0.73820  0.25080  1.0000 0.0901230896
H   H105      1.0  0.49230  0.41650  0.75760  1.0000 0.1219808892
H   H106      1.0  0.65890  0.73470  0.24240  1.0000 0.1219808892
H   H107      1.0  0.25770  0.51530  0.42420  1.0000 0.1219808892
H   H108      1.0  0.09110  0.83350  0.57580  1.0000 0.1219808892
H   H109      1.0  0.26530  0.50770  0.92420  1.0000 0.1219808892
H   H110      1.0  0.58350  0.34110  0.07580  1.0000 0.1219808892
H   H111      1.0  0.48470  0.90890  0.74240  1.0000 0.1219808892
H   H112      1.0  0.16650  0.74230  0.25760  1.0000 0.1219808892
H   H113      1.0  0.23190  0.23610  0.71040  1.0000 0.1219808892
H   H114      1.0  0.52570  0.52150  0.28960  1.0000 0.1219808892
H   H115      1.0  0.51810  0.72850  0.50420  1.0000 0.1219808892
H   H116      1.0  0.22430  0.01390  0.49580  1.0000 0.1219808892
H   H117      1.0  0.47850  0.76810  0.00420  1.0000 0.1219808892
H   H118      1.0  0.76390  0.47430  0.99580  1.0000 0.1219808892
H   H119      1.0  0.27150  0.77570  0.78960  1.0000 0.1219808892
H   H120      1.0  0.98610  0.48190  0.21040  1.0000 0.1219808892
H   H121      1.0  0.23560  0.13370  0.70890  1.0000 0.0901230896
H   H122      1.0  0.42480  0.52670  0.29110  1.0000 0.0901230896
H   H123      1.0  0.51440  0.72330  0.39810  1.0000 0.0901230896
H   H124      1.0  0.32520  0.11630  0.60190  1.0000 0.0901230896
H   H125      1.0  0.47330  0.76440  0.89810  1.0000 0.0901230896
H   H126      1.0  0.86630  0.57520  0.10190  1.0000 0.0901230896
H   H127      1.0  0.27670  0.67480  0.79110  1.0000 0.0901230896
H   H128      1.0  0.88370  0.48560  0.20890  1.0000 0.0901230896
C   C1        1.0  0.88940  0.18320  0.37960  1.0000 0.0174803123
C   C2        1.0  0.80360  0.50980  0.62040  1.0000 0.0174803123
C   C3        1.0  0.86060  0.74020  0.79380  1.0000 0.0174803123
C   C4        1.0  0.94640  0.06680  0.20620  1.0000 0.0174803123
C   C5        1.0  0.81680  0.19640  0.70620  1.0000 0.0174803123
C   C6        1.0  0.49020  0.11060  0.29380  1.0000 0.0174803123
C   C7        1.0  0.93320  0.13940  0.87960  1.0000 0.0174803123
C   C8        1.0  0.25980  0.05360  0.12040  1.0000 0.0174803123
C   C9        1.0  0.89360  0.18320  0.44240  1.0000 -0.1987555887
C   C10       1.0  0.74080  0.45120  0.55760  1.0000 -0.1987555887
C   C11       1.0  0.85640  0.79880  0.78960  1.0000 -0.1987555887
C   C12       1.0  0.00920  0.06680  0.21040  1.0000 -0.1987555887
C   C13       1.0  0.81680  0.25920  0.71040  1.0000 -0.1987555887
C   C14       1.0  0.54880  0.10640  0.28960  1.0000 -0.1987555887
C   C15       1.0  0.93320  0.14360  0.94240  1.0000 -0.1987555887
C   C16       1.0  0.20120  0.99080  0.05760  1.0000 -0.1987555887
C   C17       1.0  0.87480  0.11450  0.45690  1.0000 0.0901230896
C   C18       1.0  0.65760  0.41790  0.54310  1.0000 0.0837209047
C   C19       1.0  0.87520  0.83210  0.73970  1.0000 0.0837209047
C   C20       1.0  0.09240  0.13550  0.26030  1.0000 0.0837209047
C   C21       1.0  0.88550  0.34240  0.76030  1.0000 0.0837209047
C   C22       1.0  0.58210  0.12520  0.23970  1.0000 0.0837209047
C   C23       1.0  0.86450  0.12480  0.95690  1.0000 0.0837209047
C   C24       1.0  0.16790  0.90760  0.04310  1.0000 0.0837209047
C   C25       1.0  0.85130  0.04860  0.40630  1.0000 -0.2074112686
C   C26       1.0  0.64230  0.44500  0.59370  1.0000 -0.2074112686
C   C27       1.0  0.89870  0.80500  0.69730  1.0000 -0.2074112686
C   C28       1.0  0.10770  0.20140  0.30270  1.0000 -0.2074112686
C   C29       1.0  0.95140  0.35770  0.80270  1.0000 -0.2074112686
C   C30       1.0  0.55500  0.14870  0.19730  1.0000 -0.2074112686
C   C31       1.0  0.79860  0.10130  0.90630  1.0000 -0.2074112686
C   C32       1.0  0.19500  0.89230  0.09370  1.0000 -0.2074112686
C   C33       1.0  0.85140  0.05501  0.34521  1.0000 0.029609127
C   C34       1.0  0.70980  0.50619  0.65479  1.0000 0.029609127
C   C35       1.0  0.89860  0.74381  0.70361  1.0000 0.029609127
C   C36       1.0  0.04020  0.19499  0.29639  1.0000 0.029609127
C   C37       1.0  0.94499  0.29020  0.79639  1.0000 0.029609127
C   C38       1.0  0.49381  0.14860  0.20361  1.0000 0.029609127
C   C39       1.0  0.80501  0.10140  0.84521  1.0000 0.029609127
C   C40       1.0  0.25619  0.95980  0.15479  1.0000 0.029609127
C   C41       1.0  0.94240  0.18670  0.64130  1.0000 0.029609127
C   C42       1.0  0.54540  0.30110  0.35870  1.0000 0.029609127
C   C43       1.0  0.80760  0.94890  0.74430  1.0000 0.029609127
C   C44       1.0  0.20460  0.06330  0.25570  1.0000 0.029609127
C   C45       1.0  0.81330  0.45460  0.75570  1.0000 0.029609127
C   C46       1.0  0.69890  0.05760  0.24430  1.0000 0.029609127
C   C47       1.0  0.93670  0.19240  0.14130  1.0000 0.029609127
C   C48       1.0  0.05110  0.79540  0.85870  1.0000 0.029609127
C   C49       1.0  0.94190  0.18930  0.58000  1.0000 -0.1987555887
C   C50       1.0  0.60930  0.36190  0.42000  1.0000 -0.1987555887
C   C51       1.0  0.80810  0.88810  0.74740  1.0000 -0.1987555887
C   C52       1.0  0.14070  0.06070  0.25260  1.0000 -0.1987555887
C   C53       1.0  0.81070  0.39070  0.75260  1.0000 -0.1987555887
C   C54       1.0  0.63810  0.05810  0.24740  1.0000 -0.1987555887
C   C55       1.0  0.93930  0.19190  0.08000  1.0000 -0.1987555887
C   C56       1.0  0.11190  0.85930  0.92000  1.0000 -0.1987555887
C   C57       1.0  0.87740  0.11300  0.52400  1.0000 0.0901230896
C   C58       1.0  0.58900  0.35340  0.47600  1.0000 0.0901230896
C   C59       1.0  0.87260  0.89660  0.73560  1.0000 0.0901230896
C   C60       1.0  0.16100  0.13700  0.26440  1.0000 0.0901230896
C   C61       1.0  0.88700  0.41100  0.76440  1.0000 0.0901230896
C   C62       1.0  0.64660  0.12260  0.23560  1.0000 0.0901230896
C   C63       1.0  0.86300  0.12740  0.02400  1.0000 0.0901230896
C   C64       1.0  0.10340  0.83900  0.97600  1.0000 0.0901230896
C   C65       1.0  0.81470  0.03460  0.53210  1.0000 -0.2074112686
C   C66       1.0  0.50250  0.28260  0.46790  1.0000 -0.2074112686
C   C67       1.0  0.93530  0.96740  0.71990  1.0000 -0.2074112686
C   C68       1.0  0.24750  0.21540  0.28010  1.0000 -0.2074112686
C   C69       1.0  0.96540  0.49750  0.78010  1.0000 -0.2074112686
C   C70       1.0  0.71740  0.18530  0.21990  1.0000 -0.2074112686
C   C71       1.0  0.78460  0.06470  0.03210  1.0000 -0.1987555887
C   C72       1.0  0.03260  0.75250  0.96790  1.0000 -0.2074112686
C   C73       1.0  0.81860  0.03760  0.59620  1.0000 0.029609127
C   C74       1.0  0.44140  0.22240  0.40380  1.0000 0.029609127
C   C75       1.0  0.93140  0.02760  0.71900  1.0000 0.029609127
C   C76       1.0  0.30860  0.21240  0.28100  1.0000 0.029609127
C   C77       1.0  0.96240  0.55860  0.78100  1.0000 0.029609127
C   C78       1.0  0.77760  0.18140  0.21900  1.0000 0.029609127
C   C79       1.0  0.78760  0.06860  0.09620  1.0000 0.029609127
C   C80       1.0  0.97240  0.69140  0.90380  1.0000 0.029609127
C   C81       1.0  0.43320  0.55360  0.79380  1.0000 0.0147681401
C   C82       1.0  0.75980  0.63940  0.20620  1.0000 0.0174803123
C   C83       1.0  0.31680  0.61060  0.62040  1.0000 0.0174803123
C   C84       1.0  0.99020  0.69640  0.37960  1.0000 0.0174803123
C   C85       1.0  0.36060  0.56680  0.12040  1.0000 0.0147681401
C   C86       1.0  0.44640  0.24020  0.87960  1.0000 0.0174803123
C   C87       1.0  0.38940  0.00980  0.70620  1.0000 0.0174803123
C   C88       1.0  0.30360  0.68320  0.29380  1.0000 0.0174803123
C   C89       1.0  0.43320  0.49080  0.78960  1.0000 -0.1987555887
C   C90       1.0  0.70120  0.64360  0.21040  1.0000 -0.1987555887
C   C91       1.0  0.31680  0.60640  0.55760  1.0000 -0.1987555887
C   C92       1.0  0.04880  0.75920  0.44240  1.0000 -0.1987555887
C   C93       1.0  0.35640  0.56680  0.05760  1.0000 -0.1987555887
C   C94       1.0  0.50920  0.29880  0.94240  1.0000 -0.1987555887
C   C95       1.0  0.39360  0.95120  0.71040  1.0000 -0.1987555887
C   C96       1.0  0.24080  0.68320  0.28960  1.0000 -0.1987555887
C   C97       1.0  0.36450  0.40760  0.73970  1.0000 0.0837209047
C   C98       1.0  0.66790  0.62480  0.26030  1.0000 0.0837209047
C   C99       1.0  0.38550  0.62520  0.54310  1.0000 0.0837209047
C   C100      1.0  0.08210  0.84240  0.45690  1.0000 0.0837209047
C   C101      1.0  0.37520  0.63550  0.04310  1.0000 0.0837209047
C   C102      1.0  0.59240  0.33210  0.95690  1.0000 0.0837209047
C   C103      1.0  0.37480  0.91790  0.76030  1.0000 0.0837209047
C   C104      1.0  0.15760  0.61450  0.23970  1.0000 0.0837209047
C   C105      1.0  0.29860  0.39230  0.69730  1.0000 -0.2074112686
C   C106      1.0  0.69500  0.60130  0.30270  1.0000 -0.2074112686
C   C107      1.0  0.45140  0.64870  0.59370  1.0000 -0.2074112686
C   C108      1.0  0.05500  0.85770  0.40630  1.0000 -0.2074112686
C   C109      1.0  0.39870  0.70140  0.09370  1.0000 -0.2074112686
C   C110      1.0  0.60770  0.30500  0.90630  1.0000 -0.2074112686
C   C111      1.0  0.35130  0.94500  0.80270  1.0000 -0.2074112686
C   C112      1.0  0.14230  0.54860  0.19730  1.0000 -0.2074112686
C   C113      1.0  0.30501  0.45980  0.70361  1.0000 0.029609127
C   C114      1.0  0.75619  0.60140  0.29639  1.0000 0.029609127
C   C115      1.0  0.44499  0.64860  0.65479  1.0000 0.029609127
C   C116      1.0  0.99381  0.79020  0.34521  1.0000 0.029609127
C   C117      1.0  0.39860  0.69499  0.15479  1.0000 0.029609127
C   C118      1.0  0.54020  0.24381  0.84521  1.0000 0.029609127
C   C119      1.0  0.35140  0.00619  0.79639  1.0000 0.029609127
C   C120      1.0  0.20980  0.55501  0.20361  1.0000 0.029609127
C   C121      1.0  0.43670  0.29540  0.74430  1.0000 0.029609127
C   C122      1.0  0.55110  0.69240  0.25570  1.0000 0.029609127
C   C123      1.0  0.31330  0.55760  0.35870  1.0000 0.029609127
C   C124      1.0  0.19890  0.95460  0.64130  1.0000 0.029609127
C   C125      1.0  0.30760  0.56330  0.85870  1.0000 0.029609127
C   C126      1.0  0.70460  0.44890  0.14130  1.0000 0.029609127
C   C127      1.0  0.44240  0.80110  0.75570  1.0000 0.029609127
C   C128      1.0  0.04540  0.68670  0.24430  1.0000 0.029609127
C   C129      1.0  0.43930  0.35930  0.74740  1.0000 -0.1987555887
C   C130      1.0  0.61190  0.69190  0.25260  1.0000 -0.1987555887
C   C131      1.0  0.31070  0.55810  0.42000  1.0000 -0.1987555887
C   C132      1.0  0.13810  0.89070  0.58000  1.0000 -0.1987555887
C   C133      1.0  0.30810  0.56070  0.92000  1.0000 -0.1987555887
C   C134      1.0  0.64070  0.38810  0.08000  1.0000 -0.1987555887
C   C135      1.0  0.44190  0.86190  0.75260  1.0000 -0.1987555887
C   C136      1.0  0.10930  0.68930  0.24740  1.0000 -0.1987555887
C   C137      1.0  0.36300  0.33900  0.73560  1.0000 0.0901230896
C   C138      1.0  0.60340  0.62740  0.26440  1.0000 0.0901230896
C   C139      1.0  0.38700  0.62260  0.47600  1.0000 0.0901230896
C   C140      1.0  0.14660  0.91100  0.52400  1.0000 0.0901230896
C   C141      1.0  0.37260  0.63700  0.97600  1.0000 0.0901230896
C   C142      1.0  0.66100  0.39660  0.02400  1.0000 0.0901230896
C   C143      1.0  0.37740  0.85340  0.76440  1.0000 0.0901230896
C   C144      1.0  0.08900  0.61300  0.23560  1.0000 0.0901230896
C   C145      1.0  0.28460  0.25250  0.71990  1.0000 -0.2074112686
C   C146      1.0  0.53260  0.56470  0.28010  1.0000 -0.2074112686
C   C147      1.0  0.46540  0.68530  0.46790  1.0000 -0.2074112686
C   C148      1.0  0.21740  0.99750  0.53210  1.0000 -0.2074112686
C   C149      1.0  0.43530  0.71540  0.96790  1.0000 -0.2074112686
C   C150      1.0  0.74750  0.46740  0.03210  1.0000 -0.2074112686
C   C151      1.0  0.31470  0.78260  0.78010  1.0000 -0.2074112686
C   C152      1.0  0.00250  0.53460  0.21990  1.0000 -0.2074112686
C   C153      1.0  0.28760  0.19140  0.71900  1.0000 0.029609127
C   C154      1.0  0.47240  0.56860  0.28100  1.0000 0.029609127
C   C155      1.0  0.46240  0.68140  0.40380  1.0000 0.029609127
C   C156      1.0  0.27760  0.05860  0.59620  1.0000 0.029609127
C   C157      1.0  0.43140  0.71240  0.90380  1.0000 0.029609127
C   C158      1.0  0.80860  0.52760  0.09620  1.0000 0.029609127
C   C159      1.0  0.31860  0.72240  0.78100  1.0000 0.029609127
C   C160      1.0  0.94140  0.53760  0.21900  1.0000 0.029609127
N   N1        1.0  0.86904  0.11982  0.33126  1.0000 -0.2074112686
N   N2        1.0  0.78856  0.53778  0.66874  1.0000 -0.2074112686
N   N3        1.0  0.88096  0.71222  0.75078  1.0000 -0.2074112686
N   N4        1.0  0.96144  0.13018  0.24922  1.0000 -0.2074112686
N   N5        1.0  0.88018  0.21144  0.74922  1.0000 -0.2074112686
N   N6        1.0  0.46222  0.13096  0.25078  1.0000 -0.2074112686
N   N7        1.0  0.86982  0.11904  0.83126  1.0000 -0.2074112686
N   N8        1.0  0.28778  0.03856  0.16874  1.0000 -0.2074112686
N   N9        1.0  0.88019  0.11233  0.64992  1.0000 -0.2178173515
N   N10       1.0  0.46241  0.23027  0.35008  1.0000 -0.2178173515
N   N11       1.0  0.86981  0.01973  0.73214  1.0000 -0.2178173515
N   N12       1.0  0.28759  0.13767  0.26786  1.0000 -0.2178173515
N   N13       1.0  0.88767  0.53759  0.76786  1.0000 -0.2178173515
N   N14       1.0  0.76973  0.11981  0.23214  1.0000 -0.2178173515
N   N15       1.0  0.86233  0.13019  0.14992  1.0000 -0.2178173515
N   N16       1.0  0.98027  0.71241  0.85008  1.0000 -0.2178173515
N   N17       1.0  0.36982  0.53856  0.75078  1.0000 -0.2074112686
N   N18       1.0  0.78778  0.61904  0.24922  1.0000 -0.2074112686
N   N19       1.0  0.38018  0.63096  0.66874  1.0000 -0.2074112686
N   N20       1.0  0.96222  0.71144  0.33126  1.0000 -0.2074112686
N   N21       1.0  0.38096  0.63018  0.16874  1.0000 -0.2074112686
N   N22       1.0  0.46144  0.21222  0.83126  1.0000 -0.2074112686
N   N23       1.0  0.36904  0.03778  0.74922  1.0000 -0.2074112686
N   N24       1.0  0.28856  0.61982  0.25078  1.0000 -0.2074112686
N   N25       1.0  0.36233  0.21241  0.73214  1.0000 -0.2178173515
N   N26       1.0  0.48027  0.63019  0.26786  1.0000 -0.2178173515
N   N27       1.0  0.38767  0.61981  0.35008  1.0000 -0.2178173515
N   N28       1.0  0.26973  0.03759  0.64992  1.0000 -0.2178173515
N   N29       1.0  0.36981  0.63767  0.85008  1.0000 -0.2178173515
N   N30       1.0  0.78759  0.51973  0.14992  1.0000 -0.2178173515
N   N31       1.0  0.38019  0.73027  0.76786  1.0000 -0.2178173515
N   N32       1.0  0.96241  0.61233  0.23214  1.0000 -0.2178173515
