# DDEC6 charges by PACMAN v1.1 (https://github.com/mtap-research/PACMAN-charge/)
data_2011[Zn][dmp]3[ASR]3
_chemical_formula_sum              "Zn4 H32 C44 N24 O8"
_cell_length_a       9.0541
_cell_length_b       10.4443
_cell_length_c       18.2006
_cell_angle_alpha    90
_cell_angle_beta     90
_cell_angle_gamma    90

_symmetry_space_group_name_H-M    "P 1"
_symmetry_Int_Tables_number       1

loop_
  _symmetry_equiv_pos_as_xyz
  'x, y, z'

loop_
  _atom_site_type_symbol
  _atom_site_label
  _atom_site_symmetry_multiplicity
  _atom_site_fract_x
  _atom_site_fract_y
  _atom_site_fract_z
  _atom_site_occupancy
  _atom_site_charge
Zn  Zn1       1.0  0.86789  0.98116  0.40031  1.0000 0.6955353573
Zn  Zn2       1.0  0.36789  0.01884  0.59969  1.0000 0.6955353573
Zn  Zn3       1.0  0.86789  0.51884  0.90031  1.0000 0.6955353573
Zn  Zn4       1.0  0.36789  0.48116  0.09969  1.0000 0.6955353573
H   H1        1.0  0.67220  0.96160  0.52980  1.0000 0.1030657247
H   H2        1.0  0.17220  0.03840  0.47020  1.0000 0.1030657247
H   H3        1.0  0.67220  0.53840  0.02980  1.0000 0.1030657247
H   H4        1.0  0.17220  0.46160  0.97020  1.0000 0.1030657247
H   H5        1.0  0.27260  0.36450  0.39210  1.0000 0.0877350171
H   H6        1.0  0.77260  0.63550  0.60790  1.0000 0.0877350171
H   H7        1.0  0.27260  0.13550  0.89210  1.0000 0.0877350171
H   H8        1.0  0.77260  0.86450  0.10790  1.0000 0.0877350171
H   H9        1.0  0.67340  0.30320  0.26640  1.0000 0.3179995969
H   H10       1.0  0.17340  0.69680  0.73360  1.0000 0.3179995969
H   H11       1.0  0.67340  0.19680  0.76640  1.0000 0.3179995969
H   H12       1.0  0.17340  0.80320  0.23360  1.0000 0.3179995969
H   H13       1.0  0.76020  0.20260  0.30520  1.0000 0.3013306216
H   H14       1.0  0.26020  0.79740  0.69480  1.0000 0.3013306216
H   H15       1.0  0.76020  0.29740  0.80520  1.0000 0.3013306216
H   H16       1.0  0.26020  0.70260  0.19480  1.0000 0.3013306216
H   H17       1.0  0.03340  0.31550  0.28910  1.0000 0.1378017844
H   H18       1.0  0.53340  0.68450  0.71090  1.0000 0.1378017844
H   H19       1.0  0.03340  0.18450  0.78910  1.0000 0.1378017844
H   H20       1.0  0.53340  0.81550  0.21090  1.0000 0.1378017844
H   H21       1.0  0.14770  0.46150  0.21360  1.0000 0.1064195738
H   H22       1.0  0.64770  0.53850  0.78640  1.0000 0.1064195738
H   H23       1.0  0.14770  0.03850  0.71360  1.0000 0.1064195738
H   H24       1.0  0.64770  0.96150  0.28640  1.0000 0.1064195738
H   H25       1.0  0.39610  0.19640  0.12880  1.0000 0.1190093562
H   H26       1.0  0.89610  0.80360  0.87120  1.0000 0.1190093562
H   H27       1.0  0.39610  0.30360  0.62880  1.0000 0.1190093562
H   H28       1.0  0.89610  0.69640  0.37120  1.0000 0.1190093562
H   H29       1.0  0.29270  0.04290  0.20410  1.0000 0.1378017844
H   H30       1.0  0.79270  0.95710  0.79590  1.0000 0.1378017844
H   H31       1.0  0.29270  0.45710  0.70410  1.0000 0.1378017844
H   H32       1.0  0.79270  0.54290  0.29590  1.0000 0.1378017844
C   C1        1.0  0.62670  0.02410  0.50120  1.0000 0.1956485727
C   C2        1.0  0.12670  0.97590  0.49880  1.0000 0.1956485727
C   C3        1.0  0.62670  0.47590  0.00120  1.0000 0.1956485727
C   C4        1.0  0.12670  0.52410  0.99880  1.0000 0.1956485727
C   C5        1.0  0.35310  0.31060  0.39900  1.0000 0.2055660516
C   C6        1.0  0.85310  0.68940  0.60100  1.0000 0.2055660516
C   C7        1.0  0.35310  0.18940  0.89900  1.0000 0.2055660516
C   C8        1.0  0.85310  0.81060  0.10100  1.0000 0.2055660516
C   C9        1.0  0.57850  0.24290  0.35390  1.0000 0.3849194006
C   C10       1.0  0.07850  0.75710  0.64610  1.0000 0.3849194006
C   C11       1.0  0.57850  0.25710  0.85390  1.0000 0.3849194006
C   C12       1.0  0.07850  0.74290  0.14610  1.0000 0.3849194006
C   C13       1.0  0.58570  0.15870  0.41569  1.0000 -0.0574175974
C   C14       1.0  0.08570  0.84130  0.58431  1.0000 -0.0574175974
C   C15       1.0  0.58570  0.34130  0.91569  1.0000 -0.0574175974
C   C16       1.0  0.08570  0.65870  0.08431  1.0000 -0.0574175974
C   C17       1.0  0.46900  0.16180  0.46365  1.0000 0.2686437026
C   C18       1.0  0.96900  0.83820  0.53635  1.0000 0.2686437026
C   C19       1.0  0.46900  0.33820  0.96365  1.0000 0.2686437026
C   C20       1.0  0.96900  0.66180  0.03635  1.0000 0.2686437026
C   C21       1.0  0.07960  0.06570  0.30440  1.0000 0.5454315499
C   C22       1.0  0.57960  0.93430  0.69560  1.0000 0.5454315499
C   C23       1.0  0.07960  0.43430  0.80440  1.0000 0.5454315499
C   C24       1.0  0.57960  0.56570  0.19560  1.0000 0.5454315499
C   C25       1.0  0.10720  0.28920  0.25690  1.0000 -0.1652535207
C   C26       1.0  0.60720  0.71080  0.74310  1.0000 -0.1652535207
C   C27       1.0  0.10720  0.21080  0.75690  1.0000 -0.1652535207
C   C28       1.0  0.60720  0.78920  0.24310  1.0000 -0.1652535207
C   C29       1.0  0.15050  0.16260  0.25410  1.0000 0.0327044439
C   C30       1.0  0.65050  0.83740  0.74590  1.0000 0.0327044439
C   C31       1.0  0.15050  0.33740  0.75410  1.0000 0.0327044439
C   C32       1.0  0.65050  0.66260  0.24590  1.0000 0.0327044439
C   C33       1.0  0.17580  0.37600  0.21110  1.0000 0.0701858059
C   C34       1.0  0.67580  0.62400  0.78890  1.0000 0.0701858059
C   C35       1.0  0.17580  0.12400  0.71110  1.0000 0.0701858059
C   C36       1.0  0.67580  0.87600  0.28890  1.0000 0.0701858059
C   C37       1.0  0.32230  0.22020  0.16150  1.0000 0.0776267492
C   C38       1.0  0.82230  0.77980  0.83850  1.0000 0.0776267492
C   C39       1.0  0.32230  0.27980  0.66150  1.0000 0.0776267492
C   C40       1.0  0.82230  0.72020  0.33850  1.0000 0.0776267492
C   C41       1.0  0.26040  0.12730  0.20630  1.0000 -0.1505159332
C   C42       1.0  0.76040  0.87270  0.79370  1.0000 -0.1505159332
C   C43       1.0  0.26040  0.37270  0.70630  1.0000 -0.1505159332
C   C44       1.0  0.76040  0.62730  0.29370  1.0000 -0.1505159332
N   N1        1.0  0.49500  0.07400  0.51899  1.0000 -0.3737046465
N   N2        1.0  0.99500  0.92600  0.48101  1.0000 -0.3737046465
N   N3        1.0  0.49500  0.42600  0.01899  1.0000 -0.3737046465
N   N4        1.0  0.99500  0.57400  0.98101  1.0000 -0.3737046465
N   N5        1.0  0.34680  0.23660  0.45776  1.0000 -0.42986494
N   N6        1.0  0.84680  0.76340  0.54224  1.0000 -0.42986494
N   N7        1.0  0.34680  0.26340  0.95776  1.0000 -0.42986494
N   N8        1.0  0.84680  0.73660  0.04224  1.0000 -0.42986494
N   N9        1.0  0.68830  0.06990  0.43990  1.0000 -0.3369802579
N   N10       1.0  0.18830  0.93010  0.56010  1.0000 -0.3369802579
N   N11       1.0  0.68830  0.43010  0.93990  1.0000 -0.3369802579
N   N12       1.0  0.18830  0.56990  0.06010  1.0000 -0.3369802579
N   N13       1.0  0.45890  0.31860  0.34835  1.0000 -0.42986494
N   N14       1.0  0.95890  0.68140  0.65165  1.0000 -0.42986494
N   N15       1.0  0.45890  0.18140  0.84835  1.0000 -0.42986494
N   N16       1.0  0.95890  0.81860  0.15165  1.0000 -0.42986494
N   N17       1.0  0.68310  0.25050  0.30240  1.0000 -0.5656385466
N   N18       1.0  0.18310  0.74950  0.69760  1.0000 -0.5656385466
N   N19       1.0  0.68310  0.24950  0.80240  1.0000 -0.5656385466
N   N20       1.0  0.18310  0.75050  0.19760  1.0000 -0.5656385466
N   N21       1.0  0.27980  0.34290  0.16366  1.0000 -0.1984431341
N   N22       1.0  0.77980  0.65710  0.83634  1.0000 -0.1984431341
N   N23       1.0  0.27980  0.15710  0.66366  1.0000 -0.1984431341
N   N24       1.0  0.77980  0.84290  0.33634  1.0000 -0.1984431341
O   O1        1.0  0.96210  0.10630  0.33716  1.0000 -0.5572494014
O   O2        1.0  0.46210  0.89370  0.66284  1.0000 -0.5572494014
O   O3        1.0  0.96210  0.39370  0.83716  1.0000 -0.5572494014
O   O4        1.0  0.46210  0.60630  0.16284  1.0000 -0.5572494014
O   O5        1.0  0.13330  0.95980  0.31265  1.0000 -0.5224921748
O   O6        1.0  0.63330  0.04020  0.68735  1.0000 -0.5224921748
O   O7        1.0  0.13330  0.54020  0.81265  1.0000 -0.5224921748
O   O8        1.0  0.63330  0.45980  0.18735  1.0000 -0.5224921748
