# DDEC6 charges by PACMAN v1.1 (https://github.com/mtap-research/PACMAN-charge/)
data_2011[Zn][frl]3[ASR]1
_chemical_formula_sum              "Zn12 H88 C152 N16 O48"
_cell_length_a       20.92
_cell_length_b       9.4373
_cell_length_c       22.981
_cell_angle_alpha    90
_cell_angle_beta     108.736
_cell_angle_gamma    90

_symmetry_space_group_name_H-M    "P 1"
_symmetry_Int_Tables_number       1

loop_
  _symmetry_equiv_pos_as_xyz
  'x, y, z'

loop_
  _atom_site_type_symbol
  _atom_site_label
  _atom_site_symmetry_multiplicity
  _atom_site_fract_x
  _atom_site_fract_y
  _atom_site_fract_z
  _atom_site_occupancy
  _atom_site_charge
Zn  Zn1       1.0  0.21651  0.85242  0.26216  1.0000 0.8756390237
Zn  Zn2       1.0  0.78349  0.14758  0.73784  1.0000 0.8756390237
Zn  Zn3       1.0  0.78349  0.85242  0.23784  1.0000 0.8756390237
Zn  Zn4       1.0  0.21651  0.14758  0.76216  1.0000 0.8756390237
Zn  Zn5       1.0  0.71651  0.35242  0.26216  1.0000 0.8756390237
Zn  Zn6       1.0  0.28349  0.64758  0.73784  1.0000 0.8756390237
Zn  Zn7       1.0  0.28349  0.35242  0.23784  1.0000 0.8756390237
Zn  Zn8       1.0  0.71651  0.64758  0.76216  1.0000 0.8756390237
Zn  Zn9       1.0  0.50000  0.58845  0.25000  1.0000 0.8258167826
Zn  Zn10      1.0  0.50000  0.41155  0.75000  1.0000 0.8258167826
Zn  Zn11      1.0  0.00000  0.08845  0.25000  1.0000 0.8258167826
Zn  Zn12      1.0  0.00000  0.91155  0.75000  1.0000 0.8258167826
H   H1        1.0  0.31424  0.07838  0.06685  1.0000 0.1003414141
H   H2        1.0  0.68576  0.92162  0.93315  1.0000 0.1003414141
H   H3        1.0  0.68576  0.07838  0.43315  1.0000 0.1003414141
H   H4        1.0  0.31424  0.92162  0.56685  1.0000 0.1003414141
H   H5        1.0  0.81424  0.57838  0.06685  1.0000 0.1003414141
H   H6        1.0  0.18576  0.42162  0.93315  1.0000 0.1003414141
H   H7        1.0  0.18576  0.57838  0.43315  1.0000 0.1003414141
H   H8        1.0  0.81424  0.42162  0.56685  1.0000 0.1003414141
H   H9        1.0  0.29430  0.83753  0.01646  1.0000 0.0906644123
H   H10       1.0  0.70570  0.16247  0.98354  1.0000 0.0906644123
H   H11       1.0  0.70570  0.83753  0.48354  1.0000 0.0906644123
H   H12       1.0  0.29430  0.16247  0.51646  1.0000 0.0906644123
H   H13       1.0  0.79430  0.33753  0.01646  1.0000 0.0906644123
H   H14       1.0  0.20570  0.66247  0.98354  1.0000 0.0906644123
H   H15       1.0  0.20570  0.33753  0.48354  1.0000 0.0906644123
H   H16       1.0  0.79430  0.66247  0.51646  1.0000 0.0906644123
H   H17       1.0  0.30410  0.62133  0.08295  1.0000 0.1003414141
H   H18       1.0  0.69590  0.37867  0.91705  1.0000 0.1003414141
H   H19       1.0  0.69590  0.62133  0.41705  1.0000 0.1003414141
H   H20       1.0  0.30410  0.37867  0.58295  1.0000 0.1003414141
H   H21       1.0  0.80410  0.12133  0.08295  1.0000 0.1003414141
H   H22       1.0  0.19590  0.87867  0.91705  1.0000 0.1003414141
H   H23       1.0  0.19590  0.12133  0.41705  1.0000 0.1003414141
H   H24       1.0  0.80410  0.87867  0.58295  1.0000 0.1003414141
H   H25       1.0  0.17330  0.10117  0.17309  1.0000 0.1106207594
H   H26       1.0  0.82670  0.89883  0.82691  1.0000 0.1106207594
H   H27       1.0  0.82670  0.10117  0.32691  1.0000 0.1106207594
H   H28       1.0  0.17330  0.89883  0.67309  1.0000 0.1106207594
H   H29       1.0  0.67330  0.60117  0.17309  1.0000 0.1106207594
H   H30       1.0  0.32670  0.39883  0.82691  1.0000 0.1106207594
H   H31       1.0  0.32670  0.60117  0.32691  1.0000 0.1106207594
H   H32       1.0  0.67330  0.39883  0.67309  1.0000 0.1106207594
H   H33       1.0  0.11772  0.13074  0.06098  1.0000 0.1197443839
H   H34       1.0  0.88228  0.86926  0.93902  1.0000 0.1197443839
H   H35       1.0  0.88228  0.13074  0.43902  1.0000 0.1197443839
H   H36       1.0  0.11772  0.86926  0.56098  1.0000 0.1197443839
H   H37       1.0  0.61772  0.63074  0.06098  1.0000 0.1197443839
H   H38       1.0  0.38228  0.36926  0.93902  1.0000 0.1197443839
H   H39       1.0  0.38228  0.63074  0.43902  1.0000 0.1197443839
H   H40       1.0  0.61772  0.36926  0.56098  1.0000 0.1197443839
H   H41       1.0  0.10367  0.67077  0.04604  1.0000 0.1197443839
H   H42       1.0  0.89633  0.32923  0.95396  1.0000 0.1197443839
H   H43       1.0  0.89633  0.67077  0.45396  1.0000 0.1197443839
H   H44       1.0  0.10367  0.32923  0.54604  1.0000 0.1197443839
H   H45       1.0  0.60367  0.17077  0.04604  1.0000 0.1197443839
H   H46       1.0  0.39633  0.82923  0.95396  1.0000 0.1197443839
H   H47       1.0  0.39633  0.17077  0.45396  1.0000 0.1197443839
H   H48       1.0  0.60367  0.82923  0.54604  1.0000 0.1197443839
H   H49       1.0  0.15741  0.65945  0.16015  1.0000 0.1197443839
H   H50       1.0  0.84259  0.34055  0.83985  1.0000 0.1197443839
H   H51       1.0  0.84259  0.65945  0.33985  1.0000 0.1197443839
H   H52       1.0  0.15741  0.34055  0.66015  1.0000 0.1197443839
H   H53       1.0  0.65741  0.15945  0.16015  1.0000 0.1197443839
H   H54       1.0  0.34259  0.84055  0.83985  1.0000 0.1197443839
H   H55       1.0  0.34259  0.15945  0.33985  1.0000 0.1197443839
H   H56       1.0  0.65741  0.84055  0.66015  1.0000 0.1197443839
H   H57       1.0  0.97659  0.72585  0.84937  1.0000 0.1106207594
H   H58       1.0  0.02341  0.27415  0.15063  1.0000 0.1106207594
H   H59       1.0  0.02341  0.72585  0.65063  1.0000 0.1106207594
H   H60       1.0  0.97659  0.27415  0.34937  1.0000 0.1106207594
H   H61       1.0  0.47659  0.22585  0.84937  1.0000 0.1106207594
H   H62       1.0  0.52341  0.77415  0.15063  1.0000 0.1106207594
H   H63       1.0  0.52341  0.22585  0.65063  1.0000 0.1106207594
H   H64       1.0  0.47659  0.77415  0.34937  1.0000 0.1106207594
H   H65       1.0  0.01890  0.71271  0.96344  1.0000 0.1106207594
H   H66       1.0  0.98110  0.28729  0.03656  1.0000 0.1106207594
H   H67       1.0  0.98110  0.71271  0.53656  1.0000 0.1106207594
H   H68       1.0  0.01890  0.28729  0.46344  1.0000 0.1106207594
H   H69       1.0  0.51890  0.21271  0.96344  1.0000 0.1106207594
H   H70       1.0  0.48110  0.78729  0.03656  1.0000 0.1106207594
H   H71       1.0  0.48110  0.21271  0.53656  1.0000 0.1106207594
H   H72       1.0  0.51890  0.78729  0.46344  1.0000 0.1106207594
H   H73       1.0  0.11808  0.11834  0.96507  1.0000 0.1197443839
H   H74       1.0  0.88192  0.88166  0.03493  1.0000 0.1197443839
H   H75       1.0  0.88192  0.11834  0.53493  1.0000 0.1197443839
H   H76       1.0  0.11808  0.88166  0.46507  1.0000 0.1197443839
H   H77       1.0  0.61808  0.61834  0.96507  1.0000 0.1197443839
H   H78       1.0  0.38192  0.38166  0.03493  1.0000 0.1197443839
H   H79       1.0  0.38192  0.61834  0.53493  1.0000 0.1197443839
H   H80       1.0  0.61808  0.38166  0.46507  1.0000 0.1197443839
H   H81       1.0  0.07243  0.12018  0.85233  1.0000 0.1197443839
H   H82       1.0  0.92757  0.87982  0.14767  1.0000 0.1197443839
H   H83       1.0  0.92757  0.12018  0.64767  1.0000 0.1197443839
H   H84       1.0  0.07243  0.87982  0.35233  1.0000 0.1197443839
H   H85       1.0  0.57243  0.62018  0.85233  1.0000 0.1197443839
H   H86       1.0  0.42757  0.37982  0.14767  1.0000 0.1197443839
H   H87       1.0  0.42757  0.62018  0.64767  1.0000 0.1197443839
H   H88       1.0  0.57243  0.37982  0.35233  1.0000 0.1197443839
C   C1        1.0  0.33228  0.74019  0.16729  1.0000 -0.0667095832
C   C2        1.0  0.66772  0.25981  0.83271  1.0000 -0.0667095832
C   C3        1.0  0.66772  0.74019  0.33271  1.0000 -0.0667095832
C   C4        1.0  0.33228  0.25981  0.66729  1.0000 -0.0667095832
C   C5        1.0  0.83228  0.24019  0.16729  1.0000 -0.0667095832
C   C6        1.0  0.16772  0.75981  0.83271  1.0000 -0.0667095832
C   C7        1.0  0.16772  0.24019  0.33271  1.0000 -0.0667095832
C   C8        1.0  0.83228  0.75981  0.66729  1.0000 -0.0667095832
C   C9        1.0  0.34128  0.87458  0.19572  1.0000 -0.0571544455
C   C10       1.0  0.65872  0.12542  0.80428  1.0000 -0.0571544455
C   C11       1.0  0.65872  0.87458  0.30428  1.0000 -0.0571544455
C   C12       1.0  0.34128  0.12542  0.69572  1.0000 -0.0571544455
C   C13       1.0  0.84128  0.37458  0.19572  1.0000 -0.0571544455
C   C14       1.0  0.15872  0.62542  0.80428  1.0000 -0.0571544455
C   C15       1.0  0.15872  0.37458  0.30428  1.0000 -0.0571544455
C   C16       1.0  0.84128  0.62542  0.69572  1.0000 -0.0571544455
C   C17       1.0  0.33419  0.99523  0.15809  1.0000 -0.0317055858
C   C18       1.0  0.66581  0.00477  0.84191  1.0000 -0.0317055858
C   C19       1.0  0.66581  0.99523  0.34191  1.0000 -0.0317055858
C   C20       1.0  0.33419  0.00477  0.65809  1.0000 -0.0317055858
C   C21       1.0  0.83419  0.49523  0.15809  1.0000 -0.0317055858
C   C22       1.0  0.16581  0.50477  0.84191  1.0000 -0.0317055858
C   C23       1.0  0.16581  0.49523  0.34191  1.0000 -0.0317055858
C   C24       1.0  0.83419  0.50477  0.65809  1.0000 -0.0317055858
C   C25       1.0  0.31827  0.98172  0.09425  1.0000 -0.097764758
C   C26       1.0  0.68173  0.01828  0.90575  1.0000 -0.097764758
C   C27       1.0  0.68173  0.98172  0.40575  1.0000 -0.097764758
C   C28       1.0  0.31827  0.01828  0.59425  1.0000 -0.097764758
C   C29       1.0  0.81827  0.48172  0.09425  1.0000 -0.097764758
C   C30       1.0  0.18173  0.51828  0.90575  1.0000 -0.097764758
C   C31       1.0  0.18173  0.48172  0.40575  1.0000 -0.097764758
C   C32       1.0  0.81827  0.51828  0.59425  1.0000 -0.097764758
C   C33       1.0  0.30694  0.84828  0.06643  1.0000 -0.097764758
C   C34       1.0  0.69306  0.15172  0.93357  1.0000 -0.097764758
C   C35       1.0  0.69306  0.84828  0.43357  1.0000 -0.097764758
C   C36       1.0  0.30694  0.15172  0.56643  1.0000 -0.097764758
C   C37       1.0  0.80694  0.34828  0.06643  1.0000 -0.097764758
C   C38       1.0  0.19306  0.65172  0.93357  1.0000 -0.097764758
C   C39       1.0  0.19306  0.34828  0.43357  1.0000 -0.097764758
C   C40       1.0  0.80694  0.65172  0.56643  1.0000 -0.097764758
C   C41       1.0  0.31297  0.72759  0.10308  1.0000 -0.1076682764
C   C42       1.0  0.68703  0.27241  0.89692  1.0000 -0.1076682764
C   C43       1.0  0.68703  0.72759  0.39692  1.0000 -0.1076682764
C   C44       1.0  0.31297  0.27241  0.60308  1.0000 -0.1076682764
C   C45       1.0  0.81297  0.22759  0.10308  1.0000 -0.1076682764
C   C46       1.0  0.18703  0.77241  0.89692  1.0000 -0.1076682764
C   C47       1.0  0.18703  0.22759  0.39692  1.0000 -0.1076682764
C   C48       1.0  0.81297  0.77241  0.60308  1.0000 -0.1076682764
C   C49       1.0  0.34265  0.60607  0.20416  1.0000 0.6078915247
C   C50       1.0  0.65735  0.39393  0.79584  1.0000 0.6078915247
C   C51       1.0  0.65735  0.60607  0.29584  1.0000 0.6078915247
C   C52       1.0  0.34265  0.39393  0.70416  1.0000 0.6078915247
C   C53       1.0  0.84265  0.10607  0.20416  1.0000 0.6078915247
C   C54       1.0  0.15735  0.89393  0.79584  1.0000 0.6078915247
C   C55       1.0  0.15735  0.10607  0.29584  1.0000 0.6078915247
C   C56       1.0  0.84265  0.89393  0.70416  1.0000 0.6078915247
C   C57       1.0  0.35991  0.88650  0.26532  1.0000 0.5995348119
C   C58       1.0  0.64009  0.11350  0.73468  1.0000 0.5995348119
C   C59       1.0  0.64009  0.88650  0.23468  1.0000 0.5995348119
C   C60       1.0  0.35991  0.11350  0.76532  1.0000 0.5995348119
C   C61       1.0  0.85991  0.38650  0.26532  1.0000 0.5995348119
C   C62       1.0  0.14009  0.61350  0.73468  1.0000 0.5995348119
C   C63       1.0  0.14009  0.38650  0.23468  1.0000 0.5995348119
C   C64       1.0  0.85991  0.61350  0.76532  1.0000 0.5995348119
C   C65       1.0  0.33925  0.14197  0.18436  1.0000 0.5800423645
C   C66       1.0  0.66075  0.85803  0.81564  1.0000 0.5800423645
C   C67       1.0  0.66075  0.14197  0.31564  1.0000 0.5800423645
C   C68       1.0  0.33925  0.85803  0.68436  1.0000 0.5800423645
C   C69       1.0  0.83925  0.64197  0.18436  1.0000 0.5800423645
C   C70       1.0  0.16075  0.35803  0.81564  1.0000 0.5800423645
C   C71       1.0  0.16075  0.64197  0.31564  1.0000 0.5800423645
C   C72       1.0  0.83925  0.35803  0.68436  1.0000 0.5800423645
C   C73       1.0  0.15649  0.00833  0.14325  1.0000 0.1197443839
C   C74       1.0  0.84351  0.99167  0.85675  1.0000 0.1197443839
C   C75       1.0  0.84351  0.00833  0.35675  1.0000 0.1197443839
C   C76       1.0  0.15649  0.99167  0.64325  1.0000 0.1197443839
C   C77       1.0  0.65649  0.50833  0.14325  1.0000 0.1197443839
C   C78       1.0  0.34351  0.49167  0.85675  1.0000 0.1250747018
C   C79       1.0  0.34351  0.50833  0.35675  1.0000 0.1197443839
C   C80       1.0  0.65649  0.49167  0.64325  1.0000 0.1197443839
C   C81       1.0  0.12564  0.02354  0.08011  1.0000 -0.1698402566
C   C82       1.0  0.87436  0.97646  0.91989  1.0000 -0.1698402566
C   C83       1.0  0.87436  0.02354  0.41989  1.0000 -0.1698402566
C   C84       1.0  0.12564  0.97646  0.58011  1.0000 -0.1698402566
C   C85       1.0  0.62564  0.52354  0.08011  1.0000 -0.1698402566
C   C86       1.0  0.37436  0.47646  0.91989  1.0000 -0.1698402566
C   C87       1.0  0.37436  0.52354  0.41989  1.0000 -0.1698402566
C   C88       1.0  0.62564  0.47646  0.58011  1.0000 -0.1698402566
C   C89       1.0  0.10496  0.90237  0.04284  1.0000 0.1003414141
C   C90       1.0  0.89504  0.09763  0.95716  1.0000 0.1003414141
C   C91       1.0  0.89504  0.90237  0.45716  1.0000 0.1003414141
C   C92       1.0  0.10496  0.09763  0.54284  1.0000 0.1003414141
C   C93       1.0  0.60496  0.40237  0.04284  1.0000 0.1003414141
C   C94       1.0  0.39504  0.59763  0.95716  1.0000 0.1003414141
C   C95       1.0  0.39504  0.40237  0.45716  1.0000 0.1003414141
C   C96       1.0  0.60496  0.59763  0.54284  1.0000 0.1003414141
C   C97       1.0  0.11666  0.76939  0.07222  1.0000 -0.1698402566
C   C98       1.0  0.88334  0.23061  0.92778  1.0000 -0.1698402566
C   C99       1.0  0.88334  0.76939  0.42778  1.0000 -0.1698402566
C   C100      1.0  0.11666  0.23061  0.57222  1.0000 -0.1698402566
C   C101      1.0  0.61666  0.26939  0.07222  1.0000 -0.1698402566
C   C102      1.0  0.38334  0.73061  0.92778  1.0000 -0.1698402566
C   C103      1.0  0.38334  0.26939  0.42778  1.0000 -0.1698402566
C   C104      1.0  0.61666  0.73061  0.57222  1.0000 -0.1698402566
C   C105      1.0  0.14743  0.76112  0.13561  1.0000 0.1197443839
C   C106      1.0  0.85257  0.23888  0.86439  1.0000 0.1197443839
C   C107      1.0  0.85257  0.76112  0.36439  1.0000 0.1197443839
C   C108      1.0  0.14743  0.23888  0.63561  1.0000 0.1197443839
C   C109      1.0  0.64743  0.26112  0.13561  1.0000 0.1197443839
C   C110      1.0  0.35257  0.73888  0.86439  1.0000 0.1197443839
C   C111      1.0  0.35257  0.26112  0.36439  1.0000 0.1197443839
C   C112      1.0  0.64743  0.73888  0.63561  1.0000 0.1197443839
C   C113      1.0  0.00834  0.81142  0.87672  1.0000 0.1106207594
C   C114      1.0  0.99166  0.18858  0.12328  1.0000 0.1106207594
C   C115      1.0  0.99166  0.81142  0.62328  1.0000 0.1106207594
C   C116      1.0  0.00834  0.18858  0.37672  1.0000 0.1106207594
C   C117      1.0  0.50834  0.31142  0.87672  1.0000 0.1106207594
C   C118      1.0  0.49166  0.68858  0.12328  1.0000 0.1106207594
C   C119      1.0  0.49166  0.31142  0.62328  1.0000 0.1106207594
C   C120      1.0  0.50834  0.68858  0.37672  1.0000 0.1106207594
C   C121      1.0  0.03254  0.80448  0.94071  1.0000 -0.1698402566
C   C122      1.0  0.96746  0.19552  0.05929  1.0000 -0.1698402566
C   C123      1.0  0.96746  0.80448  0.55929  1.0000 -0.1698402566
C   C124      1.0  0.03254  0.19552  0.44071  1.0000 -0.1698402566
C   C125      1.0  0.53254  0.30448  0.94071  1.0000 -0.1698402566
C   C126      1.0  0.46746  0.69552  0.05929  1.0000 -0.1698402566
C   C127      1.0  0.46746  0.30448  0.55929  1.0000 -0.1698402566
C   C128      1.0  0.53254  0.69552  0.44071  1.0000 -0.1698402566
C   C129      1.0  0.07390  0.91304  0.97529  1.0000 0.1003414141
C   C130      1.0  0.92610  0.08696  0.02471  1.0000 0.1003414141
C   C131      1.0  0.92610  0.91304  0.52471  1.0000 0.1003414141
C   C132      1.0  0.07390  0.08696  0.47529  1.0000 0.1003414141
C   C133      1.0  0.57390  0.41304  0.97529  1.0000 0.1003414141
C   C134      1.0  0.42610  0.58696  0.02471  1.0000 0.1003414141
C   C135      1.0  0.42610  0.41304  0.52471  1.0000 0.1003414141
C   C136      1.0  0.57390  0.58696  0.47529  1.0000 0.1003414141
C   C137      1.0  0.08612  0.02957  0.94198  1.0000 -0.1635011412
C   C138      1.0  0.91388  0.97043  0.05802  1.0000 -0.1635011412
C   C139      1.0  0.91388  0.02957  0.55802  1.0000 -0.1635011412
C   C140      1.0  0.08612  0.97043  0.44198  1.0000 -0.1635011412
C   C141      1.0  0.58612  0.52957  0.94198  1.0000 -0.1635011412
C   C142      1.0  0.41388  0.47043  0.05802  1.0000 -0.1635011412
C   C143      1.0  0.41388  0.52957  0.55802  1.0000 -0.1635011412
C   C144      1.0  0.58612  0.47043  0.44198  1.0000 -0.1635011412
C   C145      1.0  0.06063  0.03123  0.87806  1.0000 0.1003414141
C   C146      1.0  0.93937  0.96877  0.12194  1.0000 0.1003414141
C   C147      1.0  0.93937  0.03123  0.62194  1.0000 0.1003414141
C   C148      1.0  0.06063  0.96877  0.37806  1.0000 0.1003414141
C   C149      1.0  0.56063  0.53123  0.87806  1.0000 0.1003414141
C   C150      1.0  0.43937  0.46877  0.12194  1.0000 0.1003414141
C   C151      1.0  0.43937  0.53123  0.62194  1.0000 0.1003414141
C   C152      1.0  0.56063  0.46877  0.37806  1.0000 0.1003414141
N   N1        1.0  0.16759  0.87909  0.17089  1.0000 -0.251030115
N   N2        1.0  0.83241  0.12091  0.82911  1.0000 -0.251030115
N   N3        1.0  0.83241  0.87909  0.32911  1.0000 -0.251030115
N   N4        1.0  0.16759  0.12091  0.67089  1.0000 -0.251030115
N   N5        1.0  0.66759  0.37909  0.17089  1.0000 -0.251030115
N   N6        1.0  0.33241  0.62091  0.82911  1.0000 -0.251030115
N   N7        1.0  0.33241  0.37909  0.32911  1.0000 -0.251030115
N   N8        1.0  0.66759  0.62091  0.67089  1.0000 -0.251030115
N   N9        1.0  0.02316  0.92219  0.84516  1.0000 -0.2342846706
N   N10       1.0  0.97684  0.07781  0.15484  1.0000 -0.2342846706
N   N11       1.0  0.97684  0.92219  0.65484  1.0000 -0.2342846706
N   N12       1.0  0.02316  0.07781  0.34516  1.0000 -0.2342846706
N   N13       1.0  0.52316  0.42219  0.84516  1.0000 -0.2342846706
N   N14       1.0  0.47684  0.57781  0.15484  1.0000 -0.2342846706
N   N15       1.0  0.47684  0.42219  0.65484  1.0000 -0.2342846706
N   N16       1.0  0.52316  0.57781  0.34516  1.0000 -0.2342846706
O   O1        1.0  0.40013  0.57782  0.24422  1.0000 -0.5745352223
O   O2        1.0  0.59987  0.42218  0.75578  1.0000 -0.5745352223
O   O3        1.0  0.59987  0.57782  0.25578  1.0000 -0.5745352223
O   O4        1.0  0.40013  0.42218  0.74422  1.0000 -0.5745352223
O   O5        1.0  0.90013  0.07782  0.24422  1.0000 -0.5745352223
O   O6        1.0  0.09987  0.92218  0.75578  1.0000 -0.5745352223
O   O7        1.0  0.09987  0.07782  0.25578  1.0000 -0.5745352223
O   O8        1.0  0.90013  0.92218  0.74422  1.0000 -0.5745352223
O   O9        1.0  0.29102  0.52524  0.19254  1.0000 -0.5286498606
O   O10       1.0  0.70898  0.47476  0.80746  1.0000 -0.5286498606
O   O11       1.0  0.70898  0.52524  0.30746  1.0000 -0.5286498606
O   O12       1.0  0.29102  0.47476  0.69254  1.0000 -0.5286498606
O   O13       1.0  0.79102  0.02524  0.19254  1.0000 -0.5286498606
O   O14       1.0  0.20898  0.97476  0.80746  1.0000 -0.5286498606
O   O15       1.0  0.20898  0.02524  0.30746  1.0000 -0.5286498606
O   O16       1.0  0.79102  0.97476  0.69254  1.0000 -0.5286498606
O   O17       1.0  0.31559  0.84197  0.29025  1.0000 -0.5818535961
O   O18       1.0  0.68441  0.15803  0.70975  1.0000 -0.5818535961
O   O19       1.0  0.68441  0.84197  0.20975  1.0000 -0.5818535961
O   O20       1.0  0.31559  0.15803  0.79025  1.0000 -0.5818535961
O   O21       1.0  0.81559  0.34197  0.29025  1.0000 -0.5818535961
O   O22       1.0  0.18441  0.65803  0.70975  1.0000 -0.5818535961
O   O23       1.0  0.18441  0.34197  0.20975  1.0000 -0.5818535961
O   O24       1.0  0.81559  0.65803  0.79025  1.0000 -0.5818535961
O   O25       1.0  0.41730  0.93001  0.29535  1.0000 -0.5286498606
O   O26       1.0  0.58270  0.06999  0.70465  1.0000 -0.5286498606
O   O27       1.0  0.58270  0.93001  0.20465  1.0000 -0.5286498606
O   O28       1.0  0.41730  0.06999  0.79535  1.0000 -0.5286498606
O   O29       1.0  0.91730  0.43001  0.29535  1.0000 -0.5286498606
O   O30       1.0  0.08270  0.56999  0.70465  1.0000 -0.5286498606
O   O31       1.0  0.08270  0.43001  0.20465  1.0000 -0.5286498606
O   O32       1.0  0.91730  0.56999  0.79535  1.0000 -0.5286498606
O   O33       1.0  0.30459  0.15778  0.22242  1.0000 -0.5745352223
O   O34       1.0  0.69541  0.84222  0.77758  1.0000 -0.5745352223
O   O35       1.0  0.69541  0.15778  0.27758  1.0000 -0.5745352223
O   O36       1.0  0.30459  0.84222  0.72242  1.0000 -0.5745352223
O   O37       1.0  0.80459  0.65778  0.22242  1.0000 -0.5745352223
O   O38       1.0  0.19541  0.34222  0.77758  1.0000 -0.5745352223
O   O39       1.0  0.19541  0.65778  0.27758  1.0000 -0.5745352223
O   O40       1.0  0.80459  0.34222  0.72242  1.0000 -0.5745352223
O   O41       1.0  0.37086  0.23648  0.16730  1.0000 -0.5444197483
O   O42       1.0  0.62914  0.76352  0.83270  1.0000 -0.5444197483
O   O43       1.0  0.62914  0.23648  0.33270  1.0000 -0.5444197483
O   O44       1.0  0.37086  0.76352  0.66730  1.0000 -0.5444197483
O   O45       1.0  0.87086  0.73648  0.16730  1.0000 -0.5444197483
O   O46       1.0  0.12914  0.26352  0.83270  1.0000 -0.5444197483
O   O47       1.0  0.12914  0.73648  0.33270  1.0000 -0.5444197483
O   O48       1.0  0.87086  0.26352  0.66730  1.0000 -0.5444197483
