# DDEC6 charges by PACMAN v1.1 (https://github.com/mtap-research/PACMAN-charge/)
data_2011[Co][nan]3[ASR]10
_chemical_formula_sum              "Co12 H24 C40 N32 O24"
_cell_length_a       15.2744
_cell_length_b       15.2744
_cell_length_c       15.2744
_cell_angle_alpha    94.407
_cell_angle_beta     94.407
_cell_angle_gamma    147.813

_symmetry_space_group_name_H-M    "P 1"
_symmetry_Int_Tables_number       1

loop_
  _symmetry_equiv_pos_as_xyz
  'x, y, z'

loop_
  _atom_site_type_symbol
  _atom_site_label
  _atom_site_symmetry_multiplicity
  _atom_site_fract_x
  _atom_site_fract_y
  _atom_site_fract_z
  _atom_site_occupancy
  _atom_site_charge
Co  Co1       1.0  0.62500  0.87500  0.25000  1.0000 0.8839530813
Co  Co2       1.0  0.62500  0.37500  0.75000  1.0000 0.8839530813
Co  Co3       1.0  0.62500  0.37500  0.25000  1.0000 0.8839530813
Co  Co4       1.0  0.12500  0.37500  0.75000  1.0000 0.8839530813
Co  Co5       1.0  0.26040  0.56059  0.28947  1.0000 0.9536967965
Co  Co6       1.0  0.27112  0.97093  0.71053  1.0000 0.9536967965
Co  Co7       1.0  0.22093  0.01040  0.19981  1.0000 0.9536967965
Co  Co8       1.0  0.81059  0.02112  0.80019  1.0000 0.9536967965
Co  Co9       1.0  0.98960  0.18941  0.21053  1.0000 0.9536967965
Co  Co10      1.0  0.97888  0.77907  0.78947  1.0000 0.9536967965
Co  Co11      1.0  0.02907  0.73960  0.30019  1.0000 0.9536967965
Co  Co12      1.0  0.43941  0.72888  0.69981  1.0000 0.9536967965
H   H1        1.0  0.71600  0.77280  0.27440  1.0000 0.3009179177
H   H2        1.0  0.49840  0.44160  0.72560  1.0000 0.3009179177
H   H3        1.0  0.69160  0.46600  0.44320  1.0000 0.3009179177
H   H4        1.0  0.02280  0.24840  0.55680  1.0000 0.3009179177
H   H5        1.0  0.53400  0.97720  0.22560  1.0000 0.3009179177
H   H6        1.0  0.75160  0.30840  0.77440  1.0000 0.3009179177
H   H7        1.0  0.55840  0.28400  0.05680  1.0000 0.3009179177
H   H8        1.0  0.22720  0.50160  0.94320  1.0000 0.3009179177
H   H9        1.0  0.78150  0.69040  0.27050  1.0000 0.1318320649
H   H10       1.0  0.41990  0.51100  0.72950  1.0000 0.1318320649
H   H11       1.0  0.76100  0.53150  0.59110  1.0000 0.1318320649
H   H12       1.0  0.94040  0.16990  0.40890  1.0000 0.1318320649
H   H13       1.0  0.46850  0.05960  0.22950  1.0000 0.1318320649
H   H14       1.0  0.83010  0.23900  0.77050  1.0000 0.1318320649
H   H15       1.0  0.48900  0.21850  0.90890  1.0000 0.1318320649
H   H16       1.0  0.30960  0.58010  0.09110  1.0000 0.1318320649
H   H17       1.0  0.00460  0.00170  0.17190  1.0000 0.108435029
H   H18       1.0  0.82980  0.83270  0.82810  1.0000 0.108435029
H   H19       1.0  0.08270  0.75460  0.50290  1.0000 0.108435029
H   H20       1.0  0.25170  0.57980  0.49710  1.0000 0.108435029
H   H21       1.0  0.24540  0.74830  0.32810  1.0000 0.108435029
H   H22       1.0  0.42020  0.91730  0.67190  1.0000 0.108435029
H   H23       1.0  0.16730  0.99540  0.99710  1.0000 0.108435029
H   H24       1.0  0.99830  0.17020  0.00290  1.0000 0.108435029
C   C1        1.0  0.66740  0.60890  0.25930  1.0000 0.2697575967
C   C2        1.0  0.34960  0.40810  0.74070  1.0000 0.2697575967
C   C3        1.0  0.65810  0.41740  0.55850  1.0000 0.2697575967
C   C4        1.0  0.85890  0.09960  0.44150  1.0000 0.2697575967
C   C5        1.0  0.58260  0.14110  0.24070  1.0000 0.2697575967
C   C6        1.0  0.90040  0.34190  0.75930  1.0000 0.2697575967
C   C7        1.0  0.59190  0.33260  0.94150  1.0000 0.2697575967
C   C8        1.0  0.39110  0.65040  0.05850  1.0000 0.2697575967
C   C9        1.0  0.38970  0.33950  0.22400  1.0000 0.2697575967
C   C10       1.0  0.11550  0.16570  0.77600  1.0000 0.2697575967
C   C11       1.0  0.41570  0.13970  0.55020  1.0000 0.2697575967
C   C12       1.0  0.58950  0.86550  0.44980  1.0000 0.2697575967
C   C13       1.0  0.86030  0.41050  0.27600  1.0000 0.2697575967
C   C14       1.0  0.13450  0.58430  0.72400  1.0000 0.2697575967
C   C15       1.0  0.83430  0.61030  0.94980  1.0000 0.2697575967
C   C16       1.0  0.66050  0.88450  0.05020  1.0000 0.2697575967
C   C17       1.0  0.34200  0.38730  0.22810  1.0000 -0.0580012134
C   C18       1.0  0.15920  0.11390  0.77190  1.0000 -0.0580012134
C   C19       1.0  0.36390  0.09200  0.45470  1.0000 -0.0580012134
C   C20       1.0  0.63730  0.90920  0.54530  1.0000 -0.0580012134
C   C21       1.0  0.90800  0.36270  0.27190  1.0000 -0.0580012134
C   C22       1.0  0.09080  0.63610  0.72810  1.0000 -0.0580012134
C   C23       1.0  0.88610  0.65800  0.04530  1.0000 -0.0580012134
C   C24       1.0  0.61270  0.84080  0.95470  1.0000 -0.0580012134
C   C25       1.0  0.46910  0.56060  0.25090  1.0000 0.4486572276
C   C26       1.0  0.30970  0.21820  0.74910  1.0000 0.4486572276
C   C27       1.0  0.46820  0.21910  0.40850  1.0000 0.4486572276
C   C28       1.0  0.81060  0.05970  0.59150  1.0000 0.4486572276
C   C29       1.0  0.78090  0.18940  0.24910  1.0000 0.4486572276
C   C30       1.0  0.94030  0.53180  0.75090  1.0000 0.4486572276
C   C31       1.0  0.78180  0.53090  0.09150  1.0000 0.4486572276
C   C32       1.0  0.43940  0.69030  0.90850  1.0000 0.4486572276
C   C33       1.0  0.11860  0.11620  0.18920  1.0000 0.1943194585
C   C34       1.0  0.92700  0.92940  0.81080  1.0000 0.1943194585
C   C35       1.0  0.17940  0.86860  0.50240  1.0000 0.1943194585
C   C36       1.0  0.36620  0.67700  0.49760  1.0000 0.1943194585
C   C37       1.0  0.13140  0.63380  0.31080  1.0000 0.1943194585
C   C38       1.0  0.32300  0.82060  0.68920  1.0000 0.1943194585
C   C39       1.0  0.07060  0.88140  0.99760  1.0000 0.1943194585
C   C40       1.0  0.88380  0.07300  0.00240  1.0000 0.1943194585
N   N1        1.0  0.63190  0.66470  0.26340  1.0000 -0.3045444024
N   N2        1.0  0.40130  0.36850  0.73660  1.0000 -0.3045444024
N   N3        1.0  0.61850  0.38190  0.46720  1.0000 -0.3045444024
N   N4        1.0  0.91470  0.15130  0.53280  1.0000 -0.3045444024
N   N5        1.0  0.61810  0.08530  0.23660  1.0000 -0.3045444024
N   N6        1.0  0.84870  0.38150  0.76340  1.0000 -0.3045444024
N   N7        1.0  0.63150  0.36810  0.03280  1.0000 -0.3045444024
N   N8        1.0  0.33530  0.59870  0.96720  1.0000 -0.3045444024
N   N9        1.0  0.55380  0.44920  0.24080  1.0000 -0.3226853294
N   N10       1.0  0.20840  0.31300  0.75920  1.0000 -0.3226853294
N   N11       1.0  0.56300  0.30380  0.60460  1.0000 -0.3226853294
N   N12       1.0  0.69920  0.95840  0.39540  1.0000 -0.3226853294
N   N13       1.0  0.69620  0.30080  0.25920  1.0000 -0.3226853294
N   N14       1.0  0.04160  0.43700  0.74080  1.0000 -0.3226853294
N   N15       1.0  0.68700  0.44620  0.89540  1.0000 -0.3226853294
N   N16       1.0  0.55080  0.79160  0.10460  1.0000 -0.3226853294
N   N17       1.0  0.16560  0.24010  0.20490  1.0000 -0.2459188459
N   N18       1.0  0.03520  0.96070  0.79510  1.0000 -0.2459188459
N   N19       1.0  0.21070  0.91560  0.42550  1.0000 -0.2459188459
N   N20       1.0  0.49010  0.78520  0.57450  1.0000 -0.2459188459
N   N21       1.0  0.08440  0.50990  0.29510  1.0000 -0.2459188459
N   N22       1.0  0.21480  0.78930  0.70490  1.0000 -0.2459188459
N   N23       1.0  0.03930  0.83440  0.07450  1.0000 -0.2459188459
N   N24       1.0  0.75990  0.96480  0.92550  1.0000 -0.2459188459
N   N25       1.0  0.24720  0.16700  0.20000  1.0000 -0.3386126106
N   N26       1.0  0.96700  0.04720  0.80000  1.0000 -0.3386126106
N   N27       1.0  0.29720  0.99720  0.58020  1.0000 -0.3386126106
N   N28       1.0  0.41700  0.71700  0.41980  1.0000 -0.3386126106
N   N29       1.0  0.00280  0.58300  0.30000  1.0000 -0.3386126106
N   N30       1.0  0.28300  0.70280  0.70000  1.0000 -0.3386126106
N   N31       1.0  0.95280  0.75280  0.91980  1.0000 -0.3386126106
N   N32       1.0  0.83300  0.03300  0.08020  1.0000 -0.3386126106
O   O1        1.0  0.11590  0.39210  0.16640  1.0000 -0.6427850855
O   O2        1.0  0.22570  0.94950  0.83360  1.0000 -0.6427850855
O   O3        1.0  0.19950  0.86590  0.22380  1.0000 -0.6427850855
O   O4        1.0  0.64210  0.97570  0.77620  1.0000 -0.6427850855
O   O5        1.0  0.13410  0.35790  0.33360  1.0000 -0.6427850855
O   O6        1.0  0.02430  0.80050  0.66640  1.0000 -0.6427850855
O   O7        1.0  0.05050  0.88410  0.27620  1.0000 -0.6427850855
O   O8        1.0  0.60790  0.77430  0.72380  1.0000 -0.6427850855
O   O9        1.0  0.41700  0.77260  0.24200  1.0000 -0.708043134
O   O10       1.0  0.53060  0.17500  0.75800  1.0000 -0.708043134
O   O11       1.0  0.42500  0.16700  0.14440  1.0000 -0.708043134
O   O12       1.0  0.02260  0.28060  0.85560  1.0000 -0.708043134
O   O13       1.0  0.83300  0.97740  0.25800  1.0000 -0.708043134
O   O14       1.0  0.71940  0.57500  0.74200  1.0000 -0.708043134
O   O15       1.0  0.82500  0.58300  0.35560  1.0000 -0.708043134
O   O16       1.0  0.22740  0.46940  0.64440  1.0000 -0.708043134
O   O17       1.0  0.45230  0.62920  0.25930  1.0000 -0.498759607
O   O18       1.0  0.36990  0.19300  0.74070  1.0000 -0.498759607
O   O19       1.0  0.44300  0.20230  0.32310  1.0000 -0.498759607
O   O20       1.0  0.87920  0.11990  0.67690  1.0000 -0.498759607
O   O21       1.0  0.79770  0.12080  0.24070  1.0000 -0.498759607
O   O22       1.0  0.88010  0.55700  0.75930  1.0000 -0.498759607
O   O23       1.0  0.80700  0.54770  0.17690  1.0000 -0.498759607
O   O24       1.0  0.37080  0.63010  0.82310  1.0000 -0.498759607
