# DDEC6 charges by PACMAN v1.1 (https://github.com/mtap-research/PACMAN-charge/)
data_2011[Mn][zzz]3[ASR]1
_chemical_formula_sum              "Mn12 H56 C120 Cl8 O48"
_cell_length_a       28.505
_cell_length_b       28.505
_cell_length_c       10.3718
_cell_angle_alpha    90
_cell_angle_beta     90
_cell_angle_gamma    90

_symmetry_space_group_name_H-M    "P 1"
_symmetry_Int_Tables_number       1

loop_
  _symmetry_equiv_pos_as_xyz
  'x, y, z'

loop_
  _atom_site_type_symbol
  _atom_site_label
  _atom_site_symmetry_multiplicity
  _atom_site_fract_x
  _atom_site_fract_y
  _atom_site_fract_z
  _atom_site_occupancy
  _atom_site_charge
Mn  Mn1       1.0  0.25000  0.75000  0.00000  1.0000 1.0808721243
Mn  Mn2       1.0  0.25000  0.25000  0.00000  1.0000 1.0808721243
Mn  Mn3       1.0  0.75000  0.75000  0.00000  1.0000 1.0808721243
Mn  Mn4       1.0  0.75000  0.25000  0.00000  1.0000 1.0808721243
Mn  Mn5       1.0  0.34829  0.75938  0.23276  1.0000 1.0127812086
Mn  Mn6       1.0  0.25938  0.15171  0.23276  1.0000 1.0127812086
Mn  Mn7       1.0  0.74062  0.84829  0.23276  1.0000 1.0127812086
Mn  Mn8       1.0  0.65171  0.24062  0.23276  1.0000 1.0127812086
Mn  Mn9       1.0  0.15171  0.74062  0.76724  1.0000 1.0127812086
Mn  Mn10      1.0  0.24062  0.34829  0.76724  1.0000 1.0127812086
Mn  Mn11      1.0  0.75938  0.65171  0.76724  1.0000 1.0127812086
Mn  Mn12      1.0  0.84829  0.25938  0.76724  1.0000 1.0127812086
H   H1        1.0  0.04870  0.75880  0.07070  1.0000 0.1226321066
H   H2        1.0  0.25880  0.45130  0.07070  1.0000 0.1226321066
H   H3        1.0  0.74120  0.54870  0.07070  1.0000 0.1226321066
H   H4        1.0  0.95130  0.24120  0.07070  1.0000 0.1226321066
H   H5        1.0  0.45130  0.74120  0.92930  1.0000 0.1226321066
H   H6        1.0  0.24120  0.04870  0.92930  1.0000 0.1226321066
H   H7        1.0  0.75880  0.95130  0.92930  1.0000 0.1226321066
H   H8        1.0  0.54870  0.25880  0.92930  1.0000 0.1226321066
H   H9        1.0  0.89490  0.74520  0.04030  1.0000 0.1378535743
H   H10       1.0  0.24520  0.60510  0.04030  1.0000 0.1378535743
H   H11       1.0  0.75480  0.39490  0.04030  1.0000 0.1378535743
H   H12       1.0  0.10510  0.25480  0.04030  1.0000 0.1378535743
H   H13       1.0  0.60510  0.75480  0.95970  1.0000 0.1378535743
H   H14       1.0  0.25480  0.89490  0.95970  1.0000 0.1378535743
H   H15       1.0  0.74520  0.10510  0.95970  1.0000 0.1378535743
H   H16       1.0  0.39490  0.24520  0.95970  1.0000 0.1378535743
H   H17       1.0  0.96970  0.82090  0.38150  1.0000 0.1226321066
H   H18       1.0  0.32090  0.53030  0.38150  1.0000 0.1226321066
H   H19       1.0  0.67910  0.46970  0.38150  1.0000 0.1226321066
H   H20       1.0  0.03030  0.17910  0.38150  1.0000 0.1226321066
H   H21       1.0  0.53030  0.67910  0.61850  1.0000 0.1226321066
H   H22       1.0  0.17910  0.96970  0.61850  1.0000 0.1226321066
H   H23       1.0  0.82090  0.03030  0.61850  1.0000 0.1226321066
H   H24       1.0  0.46970  0.32090  0.61850  1.0000 0.1226321066
H   H25       1.0  0.02870  0.77090  0.45460  1.0000 0.1226321066
H   H26       1.0  0.27090  0.47130  0.45460  1.0000 0.1226321066
H   H27       1.0  0.72910  0.52870  0.45460  1.0000 0.1226321066
H   H28       1.0  0.97130  0.22910  0.45460  1.0000 0.1226321066
H   H29       1.0  0.47130  0.72910  0.54540  1.0000 0.1226321066
H   H30       1.0  0.22910  0.02870  0.54540  1.0000 0.1226321066
H   H31       1.0  0.77090  0.97130  0.54540  1.0000 0.1226321066
H   H32       1.0  0.52870  0.27090  0.54540  1.0000 0.1226321066
H   H33       1.0  0.15950  0.74920  0.31300  1.0000 0.1460963546
H   H34       1.0  0.24920  0.34050  0.31300  1.0000 0.1460963546
H   H35       1.0  0.75080  0.65950  0.31300  1.0000 0.1460963546
H   H36       1.0  0.84050  0.25080  0.31300  1.0000 0.1460963546
H   H37       1.0  0.34050  0.75080  0.68700  1.0000 0.1460963546
H   H38       1.0  0.25080  0.15950  0.68700  1.0000 0.1460963546
H   H39       1.0  0.74920  0.84050  0.68700  1.0000 0.1460963546
H   H40       1.0  0.65950  0.24920  0.68700  1.0000 0.1460963546
H   H41       1.0  0.89140  0.83620  0.34020  1.0000 0.1378535743
H   H42       1.0  0.33620  0.60860  0.34020  1.0000 0.1378535743
H   H43       1.0  0.66380  0.39140  0.34020  1.0000 0.1378535743
H   H44       1.0  0.10860  0.16380  0.34020  1.0000 0.1378535743
H   H45       1.0  0.60860  0.66380  0.65980  1.0000 0.1378535743
H   H46       1.0  0.16380  0.89140  0.65980  1.0000 0.1378535743
H   H47       1.0  0.83620  0.10860  0.65980  1.0000 0.1378535743
H   H48       1.0  0.39140  0.33620  0.65980  1.0000 0.1378535743
H   H49       1.0  0.97360  0.73030  0.08250  1.0000 0.1226321066
H   H50       1.0  0.23030  0.52640  0.08250  1.0000 0.1226321066
H   H51       1.0  0.76970  0.47360  0.08250  1.0000 0.1226321066
H   H52       1.0  0.02640  0.26970  0.08250  1.0000 0.1226321066
H   H53       1.0  0.52640  0.76970  0.91750  1.0000 0.1226321066
H   H54       1.0  0.26970  0.97360  0.91750  1.0000 0.1226321066
H   H55       1.0  0.73030  0.02640  0.91750  1.0000 0.1226321066
H   H56       1.0  0.47360  0.23030  0.91750  1.0000 0.1226321066
C   C1        1.0  0.14024  0.74345  0.06010  1.0000 0.5951276778
C   C2        1.0  0.24345  0.35976  0.06010  1.0000 0.5951276778
C   C3        1.0  0.75655  0.64024  0.06010  1.0000 0.5951276778
C   C4        1.0  0.85976  0.25655  0.06010  1.0000 0.5951276778
C   C5        1.0  0.35976  0.75655  0.93990  1.0000 0.5951276778
C   C6        1.0  0.25655  0.14024  0.93990  1.0000 0.5951276778
C   C7        1.0  0.74345  0.85976  0.93990  1.0000 0.5951276778
C   C8        1.0  0.64024  0.24345  0.93990  1.0000 0.5951276778
C   C9        1.0  0.10868  0.75172  0.17470  1.0000 0.0093463934
C   C10       1.0  0.25172  0.39132  0.17470  1.0000 0.0093463934
C   C11       1.0  0.74828  0.60868  0.17470  1.0000 0.0093463934
C   C12       1.0  0.89132  0.24828  0.17470  1.0000 0.0093463934
C   C13       1.0  0.39132  0.74828  0.82530  1.0000 0.0093463934
C   C14       1.0  0.24828  0.10868  0.82530  1.0000 0.0093463934
C   C15       1.0  0.75172  0.89132  0.82530  1.0000 0.0093463934
C   C16       1.0  0.60868  0.25172  0.82530  1.0000 0.0093463934
C   C17       1.0  0.06094  0.75888  0.15590  1.0000 -0.1335005692
C   C18       1.0  0.25888  0.43906  0.15590  1.0000 -0.1335005692
C   C19       1.0  0.74112  0.56094  0.15590  1.0000 -0.1335005692
C   C20       1.0  0.93906  0.24112  0.15590  1.0000 -0.1335005692
C   C21       1.0  0.43906  0.74112  0.84410  1.0000 -0.1335005692
C   C22       1.0  0.24112  0.06094  0.84410  1.0000 -0.1335005692
C   C23       1.0  0.75888  0.93906  0.84410  1.0000 -0.1335005692
C   C24       1.0  0.56094  0.25888  0.84410  1.0000 -0.1335005692
C   C25       1.0  0.03055  0.76614  0.25950  1.0000 0.0674198748
C   C26       1.0  0.26614  0.46945  0.25950  1.0000 0.0674198748
C   C27       1.0  0.73386  0.53055  0.25950  1.0000 0.0674198748
C   C28       1.0  0.96945  0.23386  0.25950  1.0000 0.0674198748
C   C29       1.0  0.46945  0.73386  0.74050  1.0000 0.0674198748
C   C30       1.0  0.23386  0.03055  0.74050  1.0000 0.0674198748
C   C31       1.0  0.76614  0.96945  0.74050  1.0000 0.0674198748
C   C32       1.0  0.53055  0.26614  0.74050  1.0000 0.0674198748
C   C33       1.0  0.97998  0.77447  0.23550  1.0000 0.0893374814
C   C34       1.0  0.27447  0.52002  0.23550  1.0000 0.0893374814
C   C35       1.0  0.72553  0.47998  0.23550  1.0000 0.0893374814
C   C36       1.0  0.02002  0.22553  0.23550  1.0000 0.0893374814
C   C37       1.0  0.52002  0.72553  0.76450  1.0000 0.0893374814
C   C38       1.0  0.22553  0.97998  0.76450  1.0000 0.0893374814
C   C39       1.0  0.77447  0.02002  0.76450  1.0000 0.0893374814
C   C40       1.0  0.47998  0.27447  0.76450  1.0000 0.0893374814
C   C41       1.0  0.91012  0.76080  0.10960  1.0000 -0.0813843233
C   C42       1.0  0.26080  0.58988  0.10960  1.0000 -0.0813843233
C   C43       1.0  0.73920  0.41012  0.10960  1.0000 -0.0813843233
C   C44       1.0  0.08988  0.23920  0.10960  1.0000 -0.0813843233
C   C45       1.0  0.58988  0.73920  0.89040  1.0000 -0.0813843233
C   C46       1.0  0.23920  0.91012  0.89040  1.0000 -0.0813843233
C   C47       1.0  0.76080  0.08988  0.89040  1.0000 -0.0813843233
C   C48       1.0  0.41012  0.26080  0.89040  1.0000 -0.0813843233
C   C49       1.0  0.95459  0.80564  0.31150  1.0000 -0.1335005692
C   C50       1.0  0.30564  0.54541  0.31150  1.0000 -0.1335005692
C   C51       1.0  0.69436  0.45459  0.31150  1.0000 -0.1335005692
C   C52       1.0  0.04541  0.19436  0.31150  1.0000 -0.1335005692
C   C53       1.0  0.54541  0.69436  0.68850  1.0000 -0.1335005692
C   C54       1.0  0.19436  0.95459  0.68850  1.0000 -0.1335005692
C   C55       1.0  0.80564  0.04541  0.68850  1.0000 -0.1335005692
C   C56       1.0  0.45459  0.30564  0.68850  1.0000 -0.1335005692
C   C57       1.0  0.04881  0.76592  0.38300  1.0000 -0.138897496
C   C58       1.0  0.26592  0.45119  0.38300  1.0000 -0.138897496
C   C59       1.0  0.73408  0.54881  0.38300  1.0000 -0.138897496
C   C60       1.0  0.95119  0.23408  0.38300  1.0000 -0.138897496
C   C61       1.0  0.45119  0.73408  0.61700  1.0000 -0.138897496
C   C62       1.0  0.23408  0.04881  0.61700  1.0000 -0.138897496
C   C63       1.0  0.76592  0.95119  0.61700  1.0000 -0.138897496
C   C64       1.0  0.54881  0.26592  0.61700  1.0000 -0.138897496
C   C65       1.0  0.09677  0.75842  0.40320  1.0000 0.0093463934
C   C66       1.0  0.25842  0.40323  0.40320  1.0000 0.0093463934
C   C67       1.0  0.74158  0.59677  0.40320  1.0000 0.0093463934
C   C68       1.0  0.90323  0.24158  0.40320  1.0000 0.0093463934
C   C69       1.0  0.40323  0.74158  0.59680  1.0000 0.0093463934
C   C70       1.0  0.24158  0.09677  0.59680  1.0000 0.0093463934
C   C71       1.0  0.75842  0.90323  0.59680  1.0000 0.0093463934
C   C72       1.0  0.59677  0.25842  0.59680  1.0000 0.0093463934
C   C73       1.0  0.12675  0.75257  0.29930  1.0000 -0.0936746604
C   C74       1.0  0.25257  0.37325  0.29930  1.0000 -0.0936746604
C   C75       1.0  0.74743  0.62675  0.29930  1.0000 -0.0936746604
C   C76       1.0  0.87325  0.24743  0.29930  1.0000 -0.0936746604
C   C77       1.0  0.37325  0.74743  0.70070  1.0000 -0.0936746604
C   C78       1.0  0.24743  0.12675  0.70070  1.0000 -0.0936746604
C   C79       1.0  0.75257  0.87325  0.70070  1.0000 -0.0936746604
C   C80       1.0  0.62675  0.25257  0.70070  1.0000 -0.0936746604
C   C81       1.0  0.11656  0.75451  0.53810  1.0000 0.5388507231
C   C82       1.0  0.25451  0.38344  0.53810  1.0000 0.5388507231
C   C83       1.0  0.74549  0.61656  0.53810  1.0000 0.5388507231
C   C84       1.0  0.88344  0.24549  0.53810  1.0000 0.5388507231
C   C85       1.0  0.38344  0.74549  0.46190  1.0000 0.5388507231
C   C86       1.0  0.24549  0.11656  0.46190  1.0000 0.5388507231
C   C87       1.0  0.75451  0.88344  0.46190  1.0000 0.5388507231
C   C88       1.0  0.61656  0.25451  0.46190  1.0000 0.5388507231
C   C89       1.0  0.83381  0.80028  0.16120  1.0000 0.5859207346
C   C90       1.0  0.30028  0.66619  0.16120  1.0000 0.5859207346
C   C91       1.0  0.69972  0.33381  0.16120  1.0000 0.5859207346
C   C92       1.0  0.16619  0.19972  0.16120  1.0000 0.5859207346
C   C93       1.0  0.66619  0.69972  0.83880  1.0000 0.5859207346
C   C94       1.0  0.19972  0.83381  0.83880  1.0000 0.5859207346
C   C95       1.0  0.80028  0.16619  0.83880  1.0000 0.5859207346
C   C96       1.0  0.33381  0.30028  0.83880  1.0000 0.5859207346
C   C97       1.0  0.88524  0.79225  0.18490  1.0000 -0.0043544569
C   C98       1.0  0.29225  0.61476  0.18490  1.0000 -0.0043544569
C   C99       1.0  0.70775  0.38524  0.18490  1.0000 -0.0043544569
C   C100      1.0  0.11476  0.20775  0.18490  1.0000 -0.0043544569
C   C101      1.0  0.61476  0.70775  0.81510  1.0000 -0.0043544569
C   C102      1.0  0.20775  0.88524  0.81510  1.0000 -0.0052184972
C   C103      1.0  0.79225  0.11476  0.81510  1.0000 -0.0043544569
C   C104      1.0  0.38524  0.29225  0.81510  1.0000 -0.0043544569
C   C105      1.0  0.90805  0.81473  0.28740  1.0000 -0.0813843233
C   C106      1.0  0.31473  0.59195  0.28740  1.0000 -0.0813843233
C   C107      1.0  0.68527  0.40805  0.28740  1.0000 -0.0813843233
C   C108      1.0  0.09195  0.18527  0.28740  1.0000 -0.0813843233
C   C109      1.0  0.59195  0.68527  0.71260  1.0000 -0.0813843233
C   C110      1.0  0.18527  0.90805  0.71260  1.0000 -0.0813843233
C   C111      1.0  0.81473  0.09195  0.71260  1.0000 -0.0813843233
C   C112      1.0  0.40805  0.31473  0.71260  1.0000 -0.0813843233
C   C113      1.0  0.95694  0.75200  0.13480  1.0000 -0.138897496
C   C114      1.0  0.25200  0.54306  0.13480  1.0000 -0.138897496
C   C115      1.0  0.74800  0.45694  0.13480  1.0000 -0.138897496
C   C116      1.0  0.04306  0.24800  0.13480  1.0000 -0.138897496
C   C117      1.0  0.54306  0.74800  0.86520  1.0000 -0.138897496
C   C118      1.0  0.24800  0.95694  0.86520  1.0000 -0.138897496
C   C119      1.0  0.75200  0.04306  0.86520  1.0000 -0.138897496
C   C120      1.0  0.45694  0.25200  0.86520  1.0000 -0.138897496
Cl  Cl1       1.0  0.26944  0.79370  0.20893  1.0000 -0.5480022968
Cl  Cl2       1.0  0.29370  0.23056  0.20893  1.0000 -0.5480022968
Cl  Cl3       1.0  0.70630  0.76944  0.20893  1.0000 -0.5480022968
Cl  Cl4       1.0  0.73056  0.20630  0.20893  1.0000 -0.5480022968
Cl  Cl5       1.0  0.23056  0.70630  0.79107  1.0000 -0.5480022968
Cl  Cl6       1.0  0.20630  0.26944  0.79107  1.0000 -0.5480022968
Cl  Cl7       1.0  0.79370  0.73056  0.79107  1.0000 -0.5480022968
Cl  Cl8       1.0  0.76944  0.29370  0.79107  1.0000 -0.5480022968
O   O1        1.0  0.18251  0.73432  0.08330  1.0000 -0.5182557941
O   O2        1.0  0.23432  0.31749  0.08330  1.0000 -0.5182557941
O   O3        1.0  0.76568  0.68251  0.08330  1.0000 -0.5182557941
O   O4        1.0  0.81749  0.26568  0.08330  1.0000 -0.5182557941
O   O5        1.0  0.31749  0.76568  0.91670  1.0000 -0.5182557941
O   O6        1.0  0.26568  0.18251  0.91670  1.0000 -0.5182557941
O   O7        1.0  0.73432  0.81749  0.91670  1.0000 -0.5182557941
O   O8        1.0  0.68251  0.23432  0.91670  1.0000 -0.5182557941
O   O9        1.0  0.81469  0.77486  0.07770  1.0000 -0.5301863344
O   O10       1.0  0.27486  0.68531  0.07770  1.0000 -0.5301863344
O   O11       1.0  0.72514  0.31469  0.07770  1.0000 -0.5301863344
O   O12       1.0  0.18531  0.22514  0.07770  1.0000 -0.5301863344
O   O13       1.0  0.68531  0.72514  0.92230  1.0000 -0.5301863344
O   O14       1.0  0.22514  0.81469  0.92230  1.0000 -0.5301863344
O   O15       1.0  0.77486  0.18531  0.92230  1.0000 -0.5301863344
O   O16       1.0  0.31469  0.27486  0.92230  1.0000 -0.5301863344
O   O17       1.0  0.81410  0.83145  0.22470  1.0000 -0.4838462413
O   O18       1.0  0.33145  0.68590  0.22470  1.0000 -0.4838462413
O   O19       1.0  0.66855  0.31410  0.22470  1.0000 -0.4838462413
O   O20       1.0  0.18590  0.16855  0.22470  1.0000 -0.4838462413
O   O21       1.0  0.68590  0.66855  0.77530  1.0000 -0.4838462413
O   O22       1.0  0.16855  0.81410  0.77530  1.0000 -0.4838462413
O   O23       1.0  0.83145  0.18590  0.77530  1.0000 -0.4838462413
O   O24       1.0  0.31410  0.33145  0.77530  1.0000 -0.4838462413
O   O25       1.0  0.08997  0.76207  0.63320  1.0000 -0.4959565864
O   O26       1.0  0.26207  0.41003  0.63320  1.0000 -0.4959565864
O   O27       1.0  0.73793  0.58997  0.63320  1.0000 -0.4959565864
O   O28       1.0  0.91003  0.23793  0.63320  1.0000 -0.4959565864
O   O29       1.0  0.41003  0.73793  0.36680  1.0000 -0.4959565864
O   O30       1.0  0.23793  0.08997  0.36680  1.0000 -0.4959565864
O   O31       1.0  0.76207  0.91003  0.36680  1.0000 -0.4959565864
O   O32       1.0  0.58997  0.26207  0.36680  1.0000 -0.4959565864
O   O33       1.0  0.15795  0.74189  0.55180  1.0000 -0.4606935323
O   O34       1.0  0.24189  0.34205  0.55180  1.0000 -0.4606935323
O   O35       1.0  0.75811  0.65795  0.55180  1.0000 -0.4606935323
O   O36       1.0  0.84205  0.25811  0.55180  1.0000 -0.4606935323
O   O37       1.0  0.34205  0.75811  0.44820  1.0000 -0.4606935323
O   O38       1.0  0.25811  0.15795  0.44820  1.0000 -0.4606935323
O   O39       1.0  0.74189  0.84205  0.44820  1.0000 -0.4606935323
O   O40       1.0  0.65795  0.24189  0.44820  1.0000 -0.4606935323
O   O41       1.0  0.12175  0.74620  0.95180  1.0000 -0.5182557941
O   O42       1.0  0.24620  0.37825  0.95180  1.0000 -0.5182557941
O   O43       1.0  0.75380  0.62175  0.95180  1.0000 -0.5182557941
O   O44       1.0  0.87825  0.25380  0.95180  1.0000 -0.5182557941
O   O45       1.0  0.37825  0.75380  0.04820  1.0000 -0.5182557941
O   O46       1.0  0.25380  0.12175  0.04820  1.0000 -0.5182557941
O   O47       1.0  0.74620  0.87825  0.04820  1.0000 -0.5182557941
O   O48       1.0  0.62175  0.24620  0.04820  1.0000 -0.5182557941
