# DDEC6 charges by PACMAN v1.1 (https://github.com/mtap-research/PACMAN-charge/)
data_2011[Co][sit]3[ASR]1
_chemical_formula_sum              "Co12 H120 C216 O52"
_cell_length_a       17.551
_cell_length_b       21.148
_cell_length_c       25.356
_cell_angle_alpha    90
_cell_angle_beta     90
_cell_angle_gamma    90

_symmetry_space_group_name_H-M    "P 1"
_symmetry_Int_Tables_number       1

loop_
  _symmetry_equiv_pos_as_xyz
  'x, y, z'

loop_
  _atom_site_type_symbol
  _atom_site_label
  _atom_site_symmetry_multiplicity
  _atom_site_fract_x
  _atom_site_fract_y
  _atom_site_fract_z
  _atom_site_occupancy
  _atom_site_charge
Co  Co1       1.0  0.11277  0.83676  0.75000  1.0000 1.1339755111
Co  Co2       1.0  0.38723  0.33676  0.25000  1.0000 1.1339755111
Co  Co3       1.0  0.49675  0.43621  0.18079  1.0000 1.0415469659
Co  Co4       1.0  0.00325  0.93621  0.81921  1.0000 1.0415469659
Co  Co5       1.0  0.00325  0.93621  0.68079  1.0000 1.0415469659
Co  Co6       1.0  0.49675  0.43621  0.31921  1.0000 1.0415469659
Co  Co7       1.0  0.61277  0.66324  0.75000  1.0000 1.1339755111
Co  Co8       1.0  0.88723  0.16324  0.25000  1.0000 1.1356380833
Co  Co9       1.0  0.99675  0.06379  0.31921  1.0000 1.0415469659
Co  Co10      1.0  0.50325  0.56379  0.68079  1.0000 1.0415469659
Co  Co11      1.0  0.50325  0.56379  0.81921  1.0000 1.0415469659
Co  Co12      1.0  0.99675  0.06379  0.18079  1.0000 1.0415469659
H   H1        1.0  0.09700  0.68920  0.86210  1.0000 0.1210842342
H   H2        1.0  0.40300  0.18920  0.13790  1.0000 0.1210842342
H   H3        1.0  0.40300  0.18920  0.36210  1.0000 0.1210842342
H   H4        1.0  0.09700  0.68920  0.63790  1.0000 0.1210842342
H   H5        1.0  0.88260  0.60840  0.01770  1.0000 0.1210842342
H   H6        1.0  0.61740  0.10840  0.98230  1.0000 0.1210842342
H   H7        1.0  0.61740  0.10840  0.51770  1.0000 0.1210842342
H   H8        1.0  0.88260  0.60840  0.48230  1.0000 0.1210842342
H   H9        1.0  0.19900  0.58050  0.07600  1.0000 0.1210842342
H   H10       1.0  0.30100  0.08050  0.92400  1.0000 0.1210842342
H   H11       1.0  0.30100  0.08050  0.57600  1.0000 0.1210842342
H   H12       1.0  0.19900  0.58050  0.42400  1.0000 0.1210842342
H   H13       1.0  0.98350  0.48890  0.11840  1.0000 0.1136831808
H   H14       1.0  0.51650  0.98890  0.88160  1.0000 0.1136831808
H   H15       1.0  0.51650  0.98890  0.61840  1.0000 0.1136831808
H   H16       1.0  0.98350  0.48890  0.38160  1.0000 0.1136831808
H   H17       1.0  0.92400  0.71640  0.99780  1.0000 0.1210842342
H   H18       1.0  0.57600  0.21640  0.00220  1.0000 0.1210842342
H   H19       1.0  0.57600  0.21640  0.49780  1.0000 0.1210842342
H   H20       1.0  0.92400  0.71640  0.50220  1.0000 0.1210842342
H   H21       1.0  0.93510  0.79200  0.93260  1.0000 0.1328378931
H   H22       1.0  0.56490  0.29200  0.06740  1.0000 0.1328378931
H   H23       1.0  0.56490  0.29200  0.43260  1.0000 0.1328378931
H   H24       1.0  0.93510  0.79200  0.56740  1.0000 0.1328378931
H   H25       1.0  0.30960  0.53900  0.11200  1.0000 0.1210842342
H   H26       1.0  0.19040  0.03900  0.88800  1.0000 0.1210842342
H   H27       1.0  0.19040  0.03900  0.61200  1.0000 0.1210842342
H   H28       1.0  0.30960  0.53900  0.38800  1.0000 0.1210842342
H   H29       1.0  0.08800  0.61400  0.92700  1.0000 0.1136831808
H   H30       1.0  0.41200  0.11400  0.07300  1.0000 0.1136831808
H   H31       1.0  0.41200  0.11400  0.42700  1.0000 0.1136831808
H   H32       1.0  0.08800  0.61400  0.57300  1.0000 0.1136831808
H   H33       1.0  0.08460  0.42530  0.12030  1.0000 0.1210842342
H   H34       1.0  0.41540  0.92530  0.87970  1.0000 0.1210842342
H   H35       1.0  0.41540  0.92530  0.62030  1.0000 0.1210842342
H   H36       1.0  0.08460  0.42530  0.37970  1.0000 0.1210842342
H   H37       1.0  0.19370  0.38600  0.15910  1.0000 0.1210842342
H   H38       1.0  0.30630  0.88600  0.84090  1.0000 0.1210842342
H   H39       1.0  0.30630  0.88600  0.65910  1.0000 0.1210842342
H   H40       1.0  0.19370  0.38600  0.34090  1.0000 0.1210842342
H   H41       1.0  0.75910  0.46350  0.18960  1.0000 0.1328378931
H   H42       1.0  0.74090  0.96350  0.81040  1.0000 0.1328378931
H   H43       1.0  0.74090  0.96350  0.68960  1.0000 0.1328378931
H   H44       1.0  0.75910  0.46350  0.31040  1.0000 0.1328378931
H   H45       1.0  0.11010  0.58860  0.01640  1.0000 0.1136831808
H   H46       1.0  0.38990  0.08860  0.98360  1.0000 0.1136831808
H   H47       1.0  0.38990  0.08860  0.51640  1.0000 0.1136831808
H   H48       1.0  0.11010  0.58860  0.48360  1.0000 0.1136831808
H   H49       1.0  0.87340  0.49860  0.16270  1.0000 0.1210842342
H   H50       1.0  0.62660  0.99860  0.83730  1.0000 0.1210842342
H   H51       1.0  0.62660  0.99860  0.66270  1.0000 0.1210842342
H   H52       1.0  0.87340  0.49860  0.33730  1.0000 0.1210842342
H   H53       1.0  0.78910  0.53330  0.01960  1.0000 0.1210842342
H   H54       1.0  0.71090  0.03330  0.98040  1.0000 0.1210842342
H   H55       1.0  0.71090  0.03330  0.51960  1.0000 0.1210842342
H   H56       1.0  0.78910  0.53330  0.48040  1.0000 0.1210842342
H   H57       1.0  0.66990  0.51260  0.05140  1.0000 0.1328378931
H   H58       1.0  0.83010  0.01260  0.94860  1.0000 0.1328378931
H   H59       1.0  0.83010  0.01260  0.55140  1.0000 0.1328378931
H   H60       1.0  0.66990  0.51260  0.44860  1.0000 0.1328378931
H   H61       1.0  0.59700  0.81080  0.63790  1.0000 0.1210842342
H   H62       1.0  0.90300  0.31080  0.36210  1.0000 0.1210842342
H   H63       1.0  0.90300  0.31080  0.13790  1.0000 0.1210842342
H   H64       1.0  0.59700  0.81080  0.86210  1.0000 0.1210842342
H   H65       1.0  0.38260  0.89160  0.48230  1.0000 0.1210842342
H   H66       1.0  0.11740  0.39160  0.51770  1.0000 0.1210842342
H   H67       1.0  0.11740  0.39160  0.98230  1.0000 0.1210842342
H   H68       1.0  0.38260  0.89160  0.01770  1.0000 0.1210842342
H   H69       1.0  0.69900  0.91950  0.42400  1.0000 0.1210842342
H   H70       1.0  0.80100  0.41950  0.57600  1.0000 0.1210842342
H   H71       1.0  0.80100  0.41950  0.92400  1.0000 0.1210842342
H   H72       1.0  0.69900  0.91950  0.07600  1.0000 0.1210842342
H   H73       1.0  0.48350  0.01110  0.38160  1.0000 0.1136831808
H   H74       1.0  0.01650  0.51110  0.61840  1.0000 0.1136831808
H   H75       1.0  0.01650  0.51110  0.88160  1.0000 0.1136831808
H   H76       1.0  0.48350  0.01110  0.11840  1.0000 0.1136831808
H   H77       1.0  0.42400  0.78360  0.50220  1.0000 0.1210842342
H   H78       1.0  0.07600  0.28360  0.49780  1.0000 0.1210842342
H   H79       1.0  0.07600  0.28360  0.00220  1.0000 0.1210842342
H   H80       1.0  0.42400  0.78360  0.99780  1.0000 0.1210842342
H   H81       1.0  0.43510  0.70800  0.56740  1.0000 0.1328378931
H   H82       1.0  0.06490  0.20800  0.43260  1.0000 0.1328378931
H   H83       1.0  0.06490  0.20800  0.06740  1.0000 0.1328378931
H   H84       1.0  0.43510  0.70800  0.93260  1.0000 0.1328378931
H   H85       1.0  0.80960  0.96100  0.38800  1.0000 0.1210842342
H   H86       1.0  0.69040  0.46100  0.61200  1.0000 0.1210842342
H   H87       1.0  0.69040  0.46100  0.88800  1.0000 0.1210842342
H   H88       1.0  0.80960  0.96100  0.11200  1.0000 0.1210842342
H   H89       1.0  0.58800  0.88600  0.57300  1.0000 0.1136831808
H   H90       1.0  0.91200  0.38600  0.42700  1.0000 0.1136831808
H   H91       1.0  0.91200  0.38600  0.07300  1.0000 0.1136831808
H   H92       1.0  0.58800  0.88600  0.92700  1.0000 0.1136831808
H   H93       1.0  0.58460  0.07470  0.37970  1.0000 0.1210842342
H   H94       1.0  0.91540  0.57470  0.62030  1.0000 0.1210842342
H   H95       1.0  0.91540  0.57470  0.87970  1.0000 0.1210842342
H   H96       1.0  0.58460  0.07470  0.12030  1.0000 0.1210842342
H   H97       1.0  0.69370  0.11400  0.34090  1.0000 0.1210842342
H   H98       1.0  0.80630  0.61400  0.65910  1.0000 0.1210842342
H   H99       1.0  0.80630  0.61400  0.84090  1.0000 0.1210842342
H   H100      1.0  0.69370  0.11400  0.15910  1.0000 0.1210842342
H   H101      1.0  0.25910  0.03650  0.31040  1.0000 0.1328378931
H   H102      1.0  0.24090  0.53650  0.68960  1.0000 0.1328378931
H   H103      1.0  0.24090  0.53650  0.81040  1.0000 0.1328378931
H   H104      1.0  0.25910  0.03650  0.18960  1.0000 0.1328378931
H   H105      1.0  0.61010  0.91140  0.48360  1.0000 0.1136831808
H   H106      1.0  0.88990  0.41140  0.51640  1.0000 0.1136831808
H   H107      1.0  0.88990  0.41140  0.98360  1.0000 0.1136831808
H   H108      1.0  0.61010  0.91140  0.01640  1.0000 0.1136831808
H   H109      1.0  0.37340  0.00140  0.33730  1.0000 0.1210842342
H   H110      1.0  0.12660  0.50140  0.66270  1.0000 0.1210842342
H   H111      1.0  0.12660  0.50140  0.83730  1.0000 0.1210842342
H   H112      1.0  0.37340  0.00140  0.16270  1.0000 0.1210842342
H   H113      1.0  0.28910  0.96670  0.48040  1.0000 0.1210842342
H   H114      1.0  0.21090  0.46670  0.51960  1.0000 0.1210842342
H   H115      1.0  0.21090  0.46670  0.98040  1.0000 0.1210842342
H   H116      1.0  0.28910  0.96670  0.01960  1.0000 0.1210842342
H   H117      1.0  0.16990  0.98740  0.44860  1.0000 0.1328378931
H   H118      1.0  0.33010  0.48740  0.55140  1.0000 0.1328378931
H   H119      1.0  0.33010  0.48740  0.94860  1.0000 0.1328378931
H   H120      1.0  0.16990  0.98740  0.05140  1.0000 0.1328378931
C   C1        1.0  0.92070  0.54460  0.07067  1.0000 0.0836356594
C   C2        1.0  0.57930  0.04460  0.92933  1.0000 0.0836356594
C   C3        1.0  0.57930  0.04460  0.57067  1.0000 0.0836356594
C   C4        1.0  0.92070  0.54460  0.42933  1.0000 0.0836356594
C   C5        1.0  0.62220  0.46948  0.14880  1.0000 0.5245667202
C   C6        1.0  0.87780  0.96948  0.85120  1.0000 0.5245667202
C   C7        1.0  0.87780  0.96948  0.64880  1.0000 0.5245667202
C   C8        1.0  0.62220  0.46948  0.35120  1.0000 0.5245667202
C   C9        1.0  0.06250  0.69484  0.88949  1.0000 -0.0868302633
C   C10       1.0  0.43750  0.19484  0.11051  1.0000 -0.0868302633
C   C11       1.0  0.43750  0.19484  0.38949  1.0000 -0.0868302633
C   C12       1.0  0.06250  0.69484  0.61051  1.0000 -0.0868302633
C   C13       1.0  0.99702  0.60730  0.01048  1.0000 0.0836356594
C   C14       1.0  0.50298  0.10730  0.98952  1.0000 0.0836356594
C   C15       1.0  0.50298  0.10730  0.51048  1.0000 0.0836356594
C   C16       1.0  0.99702  0.60730  0.48952  1.0000 0.0836356594
C   C17       1.0  0.92660  0.58968  0.03087  1.0000 -0.1944589476
C   C18       1.0  0.57340  0.08968  0.96913  1.0000 -0.1944589476
C   C19       1.0  0.57340  0.08968  0.53087  1.0000 -0.1944589476
C   C20       1.0  0.92660  0.58968  0.46913  1.0000 -0.1944589476
C   C21       1.0  0.01800  0.74920  0.89093  1.0000 -0.0193184375
C   C22       1.0  0.48200  0.24920  0.10907  1.0000 -0.0193184375
C   C23       1.0  0.48200  0.24920  0.39093  1.0000 -0.0193184375
C   C24       1.0  0.01800  0.74920  0.60907  1.0000 -0.0193184375
C   C25       1.0  0.19780  0.54110  0.09229  1.0000 -0.1515563289
C   C26       1.0  0.30220  0.04110  0.90771  1.0000 -0.1515563289
C   C27       1.0  0.30220  0.04110  0.59229  1.0000 -0.1515563289
C   C28       1.0  0.19780  0.54110  0.40771  1.0000 -0.1515563289
C   C29       1.0  0.84430  0.52530  0.09005  1.0000 0.0694069769
C   C30       1.0  0.65570  0.02530  0.90995  1.0000 0.0694069769
C   C31       1.0  0.65570  0.02530  0.59005  1.0000 0.0694069769
C   C32       1.0  0.84430  0.52530  0.40995  1.0000 0.0694069769
C   C33       1.0  0.70010  0.48897  0.12656  1.0000 0.0099657159
C   C34       1.0  0.79990  0.98897  0.87344  1.0000 0.0099657159
C   C35       1.0  0.79990  0.98897  0.62656  1.0000 0.0099657159
C   C36       1.0  0.70010  0.48897  0.37344  1.0000 0.0099657159
C   C37       1.0  0.00360  0.65490  0.96815  1.0000 0.0694069769
C   C38       1.0  0.49640  0.15490  0.03185  1.0000 0.0694069769
C   C39       1.0  0.49640  0.15490  0.46815  1.0000 0.0694069769
C   C40       1.0  0.00360  0.65490  0.53185  1.0000 0.0694069769
C   C41       1.0  0.98700  0.51810  0.09107  1.0000 -0.1966156932
C   C42       1.0  0.51300  0.01810  0.90893  1.0000 -0.1966156932
C   C43       1.0  0.51300  0.01810  0.59107  1.0000 -0.1966156932
C   C44       1.0  0.98700  0.51810  0.40893  1.0000 -0.1966156932
C   C45       1.0  0.26300  0.45906  0.13982  1.0000 -0.0193184375
C   C46       1.0  0.23700  0.95906  0.86018  1.0000 -0.0193184375
C   C47       1.0  0.23700  0.95906  0.63982  1.0000 -0.0193184375
C   C48       1.0  0.26300  0.45906  0.36018  1.0000 -0.0193184375
C   C49       1.0  0.95850  0.71055  0.97031  1.0000 -0.1515563289
C   C50       1.0  0.54150  0.21055  0.02969  1.0000 -0.1515563289
C   C51       1.0  0.54150  0.21055  0.47031  1.0000 -0.1515563289
C   C52       1.0  0.95850  0.71055  0.52969  1.0000 -0.1515563289
C   C53       1.0  0.12930  0.50730  0.09423  1.0000 0.0694069769
C   C54       1.0  0.37070  0.00730  0.90577  1.0000 0.0694069769
C   C55       1.0  0.37070  0.00730  0.59423  1.0000 0.0694069769
C   C56       1.0  0.12930  0.50730  0.40577  1.0000 0.0694069769
C   C57       1.0  0.02730  0.79957  0.84990  1.0000 0.6003291858
C   C58       1.0  0.47270  0.29957  0.15010  1.0000 0.6003291858
C   C59       1.0  0.47270  0.29957  0.34990  1.0000 0.6003291858
C   C60       1.0  0.02730  0.79957  0.65010  1.0000 0.6003291858
C   C61       1.0  0.96580  0.75611  0.93147  1.0000 -0.0835360532
C   C62       1.0  0.53420  0.25611  0.06853  1.0000 -0.0868302633
C   C63       1.0  0.53420  0.25611  0.43147  1.0000 -0.0868302633
C   C64       1.0  0.96580  0.75611  0.56853  1.0000 -0.0835360532
C   C65       1.0  0.26420  0.51649  0.11442  1.0000 -0.0868302633
C   C66       1.0  0.23580  0.01649  0.88558  1.0000 -0.0868302633
C   C67       1.0  0.23580  0.01649  0.61442  1.0000 -0.0868302633
C   C68       1.0  0.26420  0.51649  0.38558  1.0000 -0.0868302633
C   C69       1.0  0.05630  0.64915  0.92804  1.0000 -0.1712273257
C   C70       1.0  0.44370  0.14915  0.07196  1.0000 -0.1712273257
C   C71       1.0  0.44370  0.14915  0.42804  1.0000 -0.1712273257
C   C72       1.0  0.05630  0.64915  0.57196  1.0000 -0.1712273257
C   C73       1.0  0.33420  0.43375  0.16609  1.0000 0.6003291858
C   C74       1.0  0.16580  0.93375  0.83391  1.0000 0.6003291858
C   C75       1.0  0.16580  0.93375  0.66609  1.0000 0.6003291858
C   C76       1.0  0.33420  0.43375  0.33391  1.0000 0.6003291858
C   C77       1.0  0.05870  0.53444  0.07136  1.0000 0.0854851929
C   C78       1.0  0.44130  0.03444  0.92864  1.0000 0.0836356594
C   C79       1.0  0.44130  0.03444  0.57136  1.0000 0.0836356594
C   C80       1.0  0.05870  0.53444  0.42864  1.0000 0.0854851929
C   C81       1.0  0.12930  0.44881  0.11905  1.0000 -0.1634696918
C   C82       1.0  0.37070  0.94881  0.88095  1.0000 -0.1634696918
C   C83       1.0  0.37070  0.94881  0.61905  1.0000 -0.1634696918
C   C84       1.0  0.12930  0.44881  0.38095  1.0000 -0.1634696918
C   C85       1.0  0.19500  0.42493  0.14209  1.0000 -0.0835360532
C   C86       1.0  0.30500  0.92493  0.85791  1.0000 -0.0835360532
C   C87       1.0  0.30500  0.92493  0.64209  1.0000 -0.0835360532
C   C88       1.0  0.19500  0.42493  0.35791  1.0000 -0.0835360532
C   C89       1.0  0.76330  0.48210  0.15651  1.0000 -0.0868302633
C   C90       1.0  0.73670  0.98210  0.84349  1.0000 -0.0868302633
C   C91       1.0  0.73670  0.98210  0.65651  1.0000 -0.0868302633
C   C92       1.0  0.76330  0.48210  0.34349  1.0000 -0.0868302633
C   C93       1.0  0.06290  0.57828  0.03058  1.0000 -0.1944589476
C   C94       1.0  0.43710  0.07828  0.96942  1.0000 -0.1944589476
C   C95       1.0  0.43710  0.07828  0.53058  1.0000 -0.1944589476
C   C96       1.0  0.06290  0.57828  0.46942  1.0000 -0.1944589476
C   C97       1.0  0.83230  0.50150  0.13973  1.0000 -0.1515563289
C   C98       1.0  0.66770  0.00150  0.86027  1.0000 -0.1515563289
C   C99       1.0  0.66770  0.00150  0.63973  1.0000 -0.1515563289
C   C100      1.0  0.83230  0.50150  0.36027  1.0000 -0.1515563289
C   C101      1.0  0.78220  0.52410  0.05520  1.0000 -0.1634696918
C   C102      1.0  0.71780  0.02410  0.94480  1.0000 -0.1634696918
C   C103      1.0  0.71780  0.02410  0.55520  1.0000 -0.1634696918
C   C104      1.0  0.78220  0.52410  0.44480  1.0000 -0.1634696918
C   C105      1.0  0.71170  0.50930  0.07390  1.0000 -0.0868302633
C   C106      1.0  0.78830  0.00930  0.92610  1.0000 -0.0868302633
C   C107      1.0  0.78830  0.00930  0.57390  1.0000 -0.0868302633
C   C108      1.0  0.71170  0.50930  0.42610  1.0000 -0.0868302633
C   C109      1.0  0.42070  0.95540  0.42933  1.0000 0.0836356594
C   C110      1.0  0.07930  0.45540  0.57067  1.0000 0.0836356594
C   C111      1.0  0.07930  0.45540  0.92933  1.0000 0.0836356594
C   C112      1.0  0.42070  0.95540  0.07067  1.0000 0.0836356594
C   C113      1.0  0.12220  0.03052  0.35120  1.0000 0.5245667202
C   C114      1.0  0.37780  0.53052  0.64880  1.0000 0.5245667202
C   C115      1.0  0.37780  0.53052  0.85120  1.0000 0.5245667202
C   C116      1.0  0.12220  0.03052  0.14880  1.0000 0.5245667202
C   C117      1.0  0.56250  0.80516  0.61051  1.0000 -0.0868302633
C   C118      1.0  0.93750  0.30516  0.38949  1.0000 -0.0868302633
C   C119      1.0  0.93750  0.30516  0.11051  1.0000 -0.0868302633
C   C120      1.0  0.56250  0.80516  0.88949  1.0000 -0.0868302633
C   C121      1.0  0.49702  0.89270  0.48952  1.0000 0.0836356594
C   C122      1.0  0.00298  0.39270  0.51048  1.0000 0.0836356594
C   C123      1.0  0.00298  0.39270  0.98952  1.0000 0.0836356594
C   C124      1.0  0.49702  0.89270  0.01048  1.0000 0.0836356594
C   C125      1.0  0.42660  0.91032  0.46913  1.0000 -0.1944589476
C   C126      1.0  0.07340  0.41032  0.53087  1.0000 -0.1944589476
C   C127      1.0  0.07340  0.41032  0.96913  1.0000 -0.1944589476
C   C128      1.0  0.42660  0.91032  0.03087  1.0000 -0.1944589476
C   C129      1.0  0.51800  0.75080  0.60907  1.0000 -0.0193184375
C   C130      1.0  0.98200  0.25080  0.39093  1.0000 -0.0193184375
C   C131      1.0  0.98200  0.25080  0.10907  1.0000 -0.0193184375
C   C132      1.0  0.51800  0.75080  0.89093  1.0000 -0.0193184375
C   C133      1.0  0.69780  0.95890  0.40771  1.0000 -0.1515563289
C   C134      1.0  0.80220  0.45890  0.59229  1.0000 -0.1515563289
C   C135      1.0  0.80220  0.45890  0.90771  1.0000 -0.1515563289
C   C136      1.0  0.69780  0.95890  0.09229  1.0000 -0.1515563289
C   C137      1.0  0.34430  0.97470  0.40995  1.0000 0.0694069769
C   C138      1.0  0.15570  0.47470  0.59005  1.0000 0.0694069769
C   C139      1.0  0.15570  0.47470  0.90995  1.0000 0.0694069769
C   C140      1.0  0.34430  0.97470  0.09005  1.0000 0.0694069769
C   C141      1.0  0.20010  0.01103  0.37344  1.0000 0.0099657159
C   C142      1.0  0.29990  0.51103  0.62656  1.0000 0.0099657159
C   C143      1.0  0.29990  0.51103  0.87344  1.0000 0.0099657159
C   C144      1.0  0.20010  0.01103  0.12656  1.0000 0.0099657159
C   C145      1.0  0.50360  0.84510  0.53185  1.0000 0.0694069769
C   C146      1.0  0.99640  0.34510  0.46815  1.0000 0.0694069769
C   C147      1.0  0.99640  0.34510  0.03185  1.0000 0.0694069769
C   C148      1.0  0.50360  0.84510  0.96815  1.0000 0.0694069769
C   C149      1.0  0.48700  0.98190  0.40893  1.0000 -0.1966156932
C   C150      1.0  0.01300  0.48190  0.59107  1.0000 -0.1966156932
C   C151      1.0  0.01300  0.48190  0.90893  1.0000 -0.1966156932
C   C152      1.0  0.48700  0.98190  0.09107  1.0000 -0.1966156932
C   C153      1.0  0.76300  0.04094  0.36018  1.0000 -0.0193184375
C   C154      1.0  0.73700  0.54094  0.63982  1.0000 -0.0193184375
C   C155      1.0  0.73700  0.54094  0.86018  1.0000 -0.0193184375
C   C156      1.0  0.76300  0.04094  0.13982  1.0000 -0.0193184375
C   C157      1.0  0.45850  0.78945  0.52969  1.0000 -0.1515563289
C   C158      1.0  0.04150  0.28945  0.47031  1.0000 -0.1515563289
C   C159      1.0  0.04150  0.28945  0.02969  1.0000 -0.1515563289
C   C160      1.0  0.45850  0.78945  0.97031  1.0000 -0.1515563289
C   C161      1.0  0.62930  0.99270  0.40577  1.0000 0.0694069769
C   C162      1.0  0.87070  0.49270  0.59423  1.0000 0.0694069769
C   C163      1.0  0.87070  0.49270  0.90577  1.0000 0.0694069769
C   C164      1.0  0.62930  0.99270  0.09423  1.0000 0.0694069769
C   C165      1.0  0.52730  0.70043  0.65010  1.0000 0.6003291858
C   C166      1.0  0.97270  0.20043  0.34990  1.0000 0.6003291858
C   C167      1.0  0.97270  0.20043  0.15010  1.0000 0.6003291858
C   C168      1.0  0.52730  0.70043  0.84990  1.0000 0.6003291858
C   C169      1.0  0.46580  0.74389  0.56853  1.0000 -0.0868302633
C   C170      1.0  0.03420  0.24389  0.43147  1.0000 -0.0868302633
C   C171      1.0  0.03420  0.24389  0.06853  1.0000 -0.0868302633
C   C172      1.0  0.46580  0.74389  0.93147  1.0000 -0.0835360532
C   C173      1.0  0.76420  0.98351  0.38558  1.0000 -0.0868302633
C   C174      1.0  0.73580  0.48351  0.61442  1.0000 -0.0868302633
C   C175      1.0  0.73580  0.48351  0.88558  1.0000 -0.0868302633
C   C176      1.0  0.76420  0.98351  0.11442  1.0000 -0.0868302633
C   C177      1.0  0.55630  0.85085  0.57196  1.0000 -0.1712273257
C   C178      1.0  0.94370  0.35085  0.42804  1.0000 -0.1712273257
C   C179      1.0  0.94370  0.35085  0.07196  1.0000 -0.1712273257
C   C180      1.0  0.55630  0.85085  0.92804  1.0000 -0.1712273257
C   C181      1.0  0.83420  0.06625  0.33391  1.0000 0.6003291858
C   C182      1.0  0.66580  0.56625  0.66609  1.0000 0.6003291858
C   C183      1.0  0.66580  0.56625  0.83391  1.0000 0.6003291858
C   C184      1.0  0.83420  0.06625  0.16609  1.0000 0.6003291858
C   C185      1.0  0.55870  0.96556  0.42864  1.0000 0.0836356594
C   C186      1.0  0.94130  0.46556  0.57136  1.0000 0.0836356594
C   C187      1.0  0.94130  0.46556  0.92864  1.0000 0.0836356594
C   C188      1.0  0.55870  0.96556  0.07136  1.0000 0.0854851929
C   C189      1.0  0.62930  0.05119  0.38095  1.0000 -0.1634696918
C   C190      1.0  0.87070  0.55119  0.61905  1.0000 -0.1634696918
C   C191      1.0  0.87070  0.55119  0.88095  1.0000 -0.1634696918
C   C192      1.0  0.62930  0.05119  0.11905  1.0000 -0.1634696918
C   C193      1.0  0.69500  0.07507  0.35791  1.0000 -0.0835360532
C   C194      1.0  0.80500  0.57507  0.64209  1.0000 -0.0835360532
C   C195      1.0  0.80500  0.57507  0.85791  1.0000 -0.0835360532
C   C196      1.0  0.69500  0.07507  0.14209  1.0000 -0.0835360532
C   C197      1.0  0.26330  0.01790  0.34349  1.0000 -0.0868302633
C   C198      1.0  0.23670  0.51790  0.65651  1.0000 -0.0868302633
C   C199      1.0  0.23670  0.51790  0.84349  1.0000 -0.0868302633
C   C200      1.0  0.26330  0.01790  0.15651  1.0000 -0.0868302633
C   C201      1.0  0.56290  0.92172  0.46942  1.0000 -0.1944589476
C   C202      1.0  0.93710  0.42172  0.53058  1.0000 -0.1944589476
C   C203      1.0  0.93710  0.42172  0.96942  1.0000 -0.1944589476
C   C204      1.0  0.56290  0.92172  0.03058  1.0000 -0.1944589476
C   C205      1.0  0.33230  0.99850  0.36027  1.0000 -0.1515563289
C   C206      1.0  0.16770  0.49850  0.63973  1.0000 -0.1515563289
C   C207      1.0  0.16770  0.49850  0.86027  1.0000 -0.1515563289
C   C208      1.0  0.33230  0.99850  0.13973  1.0000 -0.1515563289
C   C209      1.0  0.28220  0.97590  0.44480  1.0000 -0.1634696918
C   C210      1.0  0.21780  0.47590  0.55520  1.0000 -0.1634696918
C   C211      1.0  0.21780  0.47590  0.94480  1.0000 -0.1634696918
C   C212      1.0  0.28220  0.97590  0.05520  1.0000 -0.1634696918
C   C213      1.0  0.21170  0.99070  0.42610  1.0000 -0.0868302633
C   C214      1.0  0.28830  0.49070  0.57390  1.0000 -0.0868302633
C   C215      1.0  0.28830  0.49070  0.92610  1.0000 -0.0868302633
C   C216      1.0  0.21170  0.99070  0.07390  1.0000 -0.0868302633
O   O1        1.0  0.39357  0.46579  0.16042  1.0000 -0.5310147154
O   O2        1.0  0.10643  0.96579  0.83958  1.0000 -0.5310147154
O   O3        1.0  0.10643  0.96579  0.66042  1.0000 -0.5310147154
O   O4        1.0  0.39357  0.46579  0.33958  1.0000 -0.5310147154
O   O5        1.0  0.01577  0.89301  0.75000  1.0000 -0.9049990522
O   O6        1.0  0.48423  0.39301  0.25000  1.0000 -0.9064739692
O   O7        1.0  0.06122  0.78345  0.80852  1.0000 -0.5310147154
O   O8        1.0  0.43878  0.28345  0.19148  1.0000 -0.5310147154
O   O9        1.0  0.43878  0.28345  0.30852  1.0000 -0.5310147154
O   O10       1.0  0.06122  0.78345  0.69148  1.0000 -0.5310147154
O   O11       1.0  0.00030  0.85284  0.86076  1.0000 -0.5310147154
O   O12       1.0  0.49970  0.35284  0.13924  1.0000 -0.5310147154
O   O13       1.0  0.49970  0.35284  0.36076  1.0000 -0.5310147154
O   O14       1.0  0.00030  0.85284  0.63924  1.0000 -0.5310147154
O   O15       1.0  0.32711  0.38467  0.19265  1.0000 -0.5532182204
O   O16       1.0  0.17289  0.88467  0.80735  1.0000 -0.5532182204
O   O17       1.0  0.17289  0.88467  0.69265  1.0000 -0.5532182204
O   O18       1.0  0.32711  0.38467  0.30735  1.0000 -0.5532182204
O   O19       1.0  0.62080  0.43487  0.18598  1.0000 -0.4459878551
O   O20       1.0  0.87920  0.93487  0.81402  1.0000 -0.4459878551
O   O21       1.0  0.87920  0.93487  0.68598  1.0000 -0.4459878551
O   O22       1.0  0.62080  0.43487  0.31402  1.0000 -0.4459878551
O   O23       1.0  0.56490  0.48831  0.12490  1.0000 -0.4943151223
O   O24       1.0  0.93510  0.98831  0.87510  1.0000 -0.4943151223
O   O25       1.0  0.93510  0.98831  0.62490  1.0000 -0.4943151223
O   O26       1.0  0.56490  0.48831  0.37510  1.0000 -0.4943151223
O   O27       1.0  0.89357  0.03421  0.33958  1.0000 -0.5310147154
O   O28       1.0  0.60643  0.53421  0.66042  1.0000 -0.5310147154
O   O29       1.0  0.60643  0.53421  0.83958  1.0000 -0.5310147154
O   O30       1.0  0.89357  0.03421  0.16042  1.0000 -0.5310147154
O   O31       1.0  0.51577  0.60699  0.75000  1.0000 -0.9064739692
O   O32       1.0  0.98423  0.10699  0.25000  1.0000 -0.9064739692
O   O33       1.0  0.56122  0.71655  0.69148  1.0000 -0.5310147154
O   O34       1.0  0.93878  0.21655  0.30852  1.0000 -0.5310147154
O   O35       1.0  0.93878  0.21655  0.19148  1.0000 -0.5310147154
O   O36       1.0  0.56122  0.71655  0.80852  1.0000 -0.5310147154
O   O37       1.0  0.50030  0.64716  0.63924  1.0000 -0.5310147154
O   O38       1.0  0.99970  0.14716  0.36076  1.0000 -0.5310147154
O   O39       1.0  0.99970  0.14716  0.13924  1.0000 -0.5310147154
O   O40       1.0  0.50030  0.64716  0.86076  1.0000 -0.5310147154
O   O41       1.0  0.82711  0.11533  0.30735  1.0000 -0.5532182204
O   O42       1.0  0.67289  0.61533  0.69265  1.0000 -0.5532182204
O   O43       1.0  0.67289  0.61533  0.80735  1.0000 -0.5532182204
O   O44       1.0  0.82711  0.11533  0.19265  1.0000 -0.5532182204
O   O45       1.0  0.12080  0.06513  0.31402  1.0000 -0.4459878551
O   O46       1.0  0.37920  0.56513  0.68598  1.0000 -0.4459878551
O   O47       1.0  0.37920  0.56513  0.81402  1.0000 -0.4459878551
O   O48       1.0  0.12080  0.06513  0.18598  1.0000 -0.4459878551
O   O49       1.0  0.06490  0.01169  0.37510  1.0000 -0.4943151223
O   O50       1.0  0.43510  0.51169  0.62490  1.0000 -0.4943151223
O   O51       1.0  0.43510  0.51169  0.87510  1.0000 -0.4943151223
O   O52       1.0  0.06490  0.01169  0.12490  1.0000 -0.4943151223
