# DDEC6 charges by PACMAN v1.1 (https://github.com/mtap-research/PACMAN-charge/)
data_2011[Cu][lvt]3[ASR]2
_chemical_formula_sum              "Cu4 H20 C60 N4 O24"
_cell_length_a       10.922
_cell_length_b       14.981
_cell_length_c       20.4118
_cell_angle_alpha    111.529
_cell_angle_beta     105.518
_cell_angle_gamma    90

_symmetry_space_group_name_H-M    "P 1"
_symmetry_Int_Tables_number       1

loop_
  _symmetry_equiv_pos_as_xyz
  'x, y, z'

loop_
  _atom_site_type_symbol
  _atom_site_label
  _atom_site_symmetry_multiplicity
  _atom_site_fract_x
  _atom_site_fract_y
  _atom_site_fract_z
  _atom_site_occupancy
  _atom_site_charge
Cu  Cu1       1.0  0.55963  0.47373  0.94746  1.0000 0.8665603054
Cu  Cu2       1.0  0.11217  0.02627  0.05254  1.0000 0.8665603054
Cu  Cu3       1.0  0.88783  0.97373  0.94746  1.0000 0.8665603054
Cu  Cu4       1.0  0.44037  0.52627  0.05254  1.0000 0.8665603054
H   H1        1.0  0.73770  0.46060  0.21660  1.0000 0.1433834685
H   H2        1.0  0.76650  0.31200  0.43540  1.0000 0.1293758405
H   H3        1.0  0.02110  0.03940  0.78340  1.0000 0.1433834685
H   H4        1.0  0.83110  0.18800  0.56460  1.0000 0.1293758405
H   H5        1.0  0.97890  0.25600  0.21660  1.0000 0.1433834685
H   H6        1.0  0.16890  0.62340  0.43540  1.0000 0.1293758405
H   H7        1.0  0.26230  0.24400  0.78340  1.0000 0.1433834685
H   H8        1.0  0.23350  0.87660  0.56460  1.0000 0.1293758405
H   H9        1.0  0.26230  0.53940  0.78340  1.0000 0.1433834685
H   H10       1.0  0.23350  0.68800  0.56460  1.0000 0.1293758405
H   H11       1.0  0.97890  0.96060  0.21660  1.0000 0.1433834685
H   H12       1.0  0.16890  0.81200  0.43540  1.0000 0.1293758405
H   H13       1.0  0.02110  0.74400  0.78340  1.0000 0.1433834685
H   H14       1.0  0.83110  0.37660  0.56460  1.0000 0.1293758405
H   H15       1.0  0.73770  0.75600  0.21660  1.0000 0.1433834685
H   H16       1.0  0.76650  0.12340  0.43540  1.0000 0.1293758405
H   H17       1.0  0.76170  0.26170  0.02340  1.0000 0.1433834685
H   H18       1.0  0.23830  0.23830  0.97660  1.0000 0.1433834685
H   H19       1.0  0.23830  0.73830  0.97660  1.0000 0.1433834685
H   H20       1.0  0.76170  0.76170  0.02340  1.0000 0.1433834685
C   C1        1.0  0.64710  0.41814  0.07260  1.0000 0.5853435648
C   C2        1.0  0.73813  0.36951  0.11346  1.0000 -0.0013183969
C   C3        1.0  0.77426  0.40644  0.19012  1.0000 -0.1567298966
C   C4        1.0  0.84672  0.35882  0.34144  1.0000 0.4266385761
C   C5        1.0  0.88754  0.40114  0.42348  1.0000 -0.0517391572
C   C6        1.0  0.83216  0.36436  0.46132  1.0000 -0.085860298
C   C7        1.0  0.07450  0.08186  0.92740  1.0000 0.5853435648
C   C8        1.0  0.12467  0.13049  0.88654  1.0000 -0.0013183969
C   C9        1.0  0.08414  0.09356  0.80988  1.0000 -0.1567298966
C   C10       1.0  0.00528  0.14118  0.65856  1.0000 0.4266385761
C   C11       1.0  0.96406  0.09886  0.57652  1.0000 -0.0517391572
C   C12       1.0  0.87084  0.13564  0.53868  1.0000 -0.085860298
C   C13       1.0  0.92550  0.15446  0.07260  1.0000 0.5853435648
C   C14       1.0  0.87533  0.24395  0.11346  1.0000 -0.0013183969
C   C15       1.0  0.91586  0.28368  0.19012  1.0000 -0.1567298966
C   C16       1.0  0.99472  0.48262  0.34144  1.0000 0.4266385761
C   C17       1.0  0.03594  0.52234  0.42348  1.0000 -0.0517391572
C   C18       1.0  0.12916  0.59696  0.46132  1.0000 -0.085860298
C   C19       1.0  0.35290  0.34554  0.92740  1.0000 0.5853435648
C   C20       1.0  0.26187  0.25605  0.88654  1.0000 -0.0013183969
C   C21       1.0  0.22574  0.21632  0.80988  1.0000 -0.1567298966
C   C22       1.0  0.15328  0.01738  0.65856  1.0000 0.4266385761
C   C23       1.0  0.11246  0.97766  0.57652  1.0000 -0.0517391572
C   C24       1.0  0.16784  0.90304  0.53868  1.0000 -0.085860298
C   C25       1.0  0.35290  0.58186  0.92740  1.0000 0.5853435648
C   C26       1.0  0.26187  0.63049  0.88654  1.0000 -0.0013183969
C   C27       1.0  0.22574  0.59356  0.80988  1.0000 -0.1567298966
C   C28       1.0  0.15328  0.64118  0.65856  1.0000 0.4266385761
C   C29       1.0  0.11246  0.59886  0.57652  1.0000 -0.0517391572
C   C30       1.0  0.16784  0.63564  0.53868  1.0000 -0.085860298
C   C31       1.0  0.92550  0.91814  0.07260  1.0000 0.5853435648
C   C32       1.0  0.87533  0.86951  0.11346  1.0000 -0.0013183969
C   C33       1.0  0.91586  0.90644  0.19012  1.0000 -0.1567298966
C   C34       1.0  0.99472  0.85882  0.34144  1.0000 0.4266385761
C   C35       1.0  0.03594  0.90114  0.42348  1.0000 -0.0517391572
C   C36       1.0  0.12916  0.86436  0.46132  1.0000 -0.085860298
C   C37       1.0  0.07450  0.84554  0.92740  1.0000 0.5853435648
C   C38       1.0  0.12467  0.75605  0.88654  1.0000 -0.0013183969
C   C39       1.0  0.08414  0.71632  0.80988  1.0000 -0.1567298966
C   C40       1.0  0.00528  0.51738  0.65856  1.0000 0.4266385761
C   C41       1.0  0.96406  0.47766  0.57652  1.0000 -0.0517391572
C   C42       1.0  0.87084  0.40304  0.53868  1.0000 -0.085860298
C   C43       1.0  0.64710  0.65446  0.07260  1.0000 0.5853435648
C   C44       1.0  0.73813  0.74395  0.11346  1.0000 -0.0013183969
C   C45       1.0  0.77426  0.78368  0.19012  1.0000 -0.1567298966
C   C46       1.0  0.84672  0.98262  0.34144  1.0000 0.4266385761
C   C47       1.0  0.88754  0.02234  0.42348  1.0000 -0.0517391572
C   C48       1.0  0.83216  0.09696  0.46132  1.0000 -0.085860298
C   C49       1.0  0.86357  0.36357  0.22714  1.0000 0.1829379527
C   C50       1.0  0.78786  0.28786  0.07572  1.0000 -0.1073113205
C   C51       1.0  0.98043  0.48043  0.46086  1.0000 0.0239743087
C   C52       1.0  0.13643  0.13643  0.77286  1.0000 0.1829379527
C   C53       1.0  0.21214  0.21214  0.92428  1.0000 -0.1073113205
C   C54       1.0  0.01957  0.01957  0.53914  1.0000 0.0239743087
C   C55       1.0  0.13643  0.63643  0.77286  1.0000 0.1829379527
C   C56       1.0  0.21214  0.71214  0.92428  1.0000 -0.1073113205
C   C57       1.0  0.01957  0.51957  0.53914  1.0000 0.0239743087
C   C58       1.0  0.86357  0.86357  0.22714  1.0000 0.1829379527
C   C59       1.0  0.78786  0.78786  0.07572  1.0000 -0.1073113205
C   C60       1.0  0.98043  0.98043  0.46086  1.0000 0.0239743087
N   N1        1.0  0.90350  0.40350  0.30700  1.0000 -0.2256051945
N   N2        1.0  0.09650  0.09650  0.69300  1.0000 -0.2256051945
N   N3        1.0  0.09650  0.59650  0.69300  1.0000 -0.2256051945
N   N4        1.0  0.90350  0.90350  0.30700  1.0000 -0.2245293903
O   O1        1.0  0.66007  0.41212  0.01196  1.0000 -0.527134751
O   O2        1.0  0.56560  0.46134  0.10226  1.0000 -0.5161281052
O   O3        1.0  0.76936  0.28946  0.30652  1.0000 -0.3879350806
O   O4        1.0  0.14811  0.08788  0.98804  1.0000 -0.527134751
O   O5        1.0  0.96334  0.03866  0.89774  1.0000 -0.5161281052
O   O6        1.0  0.96284  0.21054  0.69348  1.0000 -0.3879350806
O   O7        1.0  0.85189  0.09984  0.01196  1.0000 -0.527134751
O   O8        1.0  0.03666  0.14092  0.10226  1.0000 -0.5161281052
O   O9        1.0  0.03716  0.51706  0.30652  1.0000 -0.3879350806
O   O10       1.0  0.33993  0.40016  0.98804  1.0000 -0.527134751
O   O11       1.0  0.43440  0.35908  0.89774  1.0000 -0.5161281052
O   O12       1.0  0.23064  0.98294  0.69348  1.0000 -0.3879350806
O   O13       1.0  0.33993  0.58788  0.98804  1.0000 -0.527134751
O   O14       1.0  0.43440  0.53866  0.89774  1.0000 -0.5161281052
O   O15       1.0  0.23064  0.71054  0.69348  1.0000 -0.3879350806
O   O16       1.0  0.85189  0.91212  0.01196  1.0000 -0.527134751
O   O17       1.0  0.03666  0.96134  0.10226  1.0000 -0.5161281052
O   O18       1.0  0.03716  0.78946  0.30652  1.0000 -0.3879350806
O   O19       1.0  0.14811  0.90016  0.98804  1.0000 -0.527134751
O   O20       1.0  0.96334  0.85908  0.89774  1.0000 -0.5161281052
O   O21       1.0  0.96284  0.48294  0.69348  1.0000 -0.3879350806
O   O22       1.0  0.66007  0.59984  0.01196  1.0000 -0.527134751
O   O23       1.0  0.56560  0.64092  0.10226  1.0000 -0.5161281052
O   O24       1.0  0.76936  0.01706  0.30652  1.0000 -0.3879350806
