# DDEC6 charges by PACMAN v1.1 (https://github.com/mtap-research/PACMAN-charge/)
data_2011[Y][flu]3[ASR]1
_chemical_formula_sum              "Y2 H14 C30 O14"
_cell_length_a       9.353
_cell_length_b       9.797
_cell_length_c       11.388
_cell_angle_alpha    94.34
_cell_angle_beta     99.407
_cell_angle_gamma    111.455

_symmetry_space_group_name_H-M    "P 1"
_symmetry_Int_Tables_number       1

loop_
  _symmetry_equiv_pos_as_xyz
  'x, y, z'

loop_
  _atom_site_type_symbol
  _atom_site_label
  _atom_site_symmetry_multiplicity
  _atom_site_fract_x
  _atom_site_fract_y
  _atom_site_fract_z
  _atom_site_occupancy
  _atom_site_charge
Y   Y1        1.0  0.72346  0.45490  0.51145  1.0000 1.7777665423
Y   Y2        1.0  0.27654  0.54510  0.48855  1.0000 1.7777665423
H   H1        1.0  0.72620  0.76690  0.87900  1.0000 0.1202895248
H   H2        1.0  0.27380  0.23310  0.12100  1.0000 0.1202895248
H   H3        1.0  0.82340  0.89820  0.06380  1.0000 0.1347669231
H   H4        1.0  0.17660  0.10180  0.93620  1.0000 0.1347669231
H   H5        1.0  0.15490  0.73010  0.11550  1.0000 0.1480675828
H   H6        1.0  0.84510  0.26990  0.88450  1.0000 0.1480675828
H   H7        1.0  0.06320  0.60290  0.92190  1.0000 0.1202895248
H   H8        1.0  0.93680  0.39710  0.07810  1.0000 0.1202895248
H   H9        1.0  0.80030  0.70760  0.27720  1.0000 0.1480675828
H   H10       1.0  0.19970  0.29240  0.72280  1.0000 0.1480675828
H   H11       1.0  0.67790  0.99750  0.45990  1.0000 0.1388937848
H   H12       1.0  0.32210  0.00250  0.54010  1.0000 0.1388937848
H   H13       1.0  0.07950  0.14050  0.33910  1.0000 0.1480675828
H   H14       1.0  0.92050  0.85950  0.66090  1.0000 0.1480675828
C   C1        1.0  0.82490  0.58730  0.75480  1.0000 0.5434728431
C   C2        1.0  0.17510  0.41270  0.24520  1.0000 0.5434728431
C   C3        1.0  0.88410  0.67230  0.87660  1.0000 -0.0605691673
C   C4        1.0  0.11590  0.32770  0.12340  1.0000 -0.0605691673
C   C5        1.0  0.81430  0.76040  0.92550  1.0000 -0.0653704761
C   C6        1.0  0.18570  0.23960  0.07450  1.0000 -0.0653704761
C   C7        1.0  0.86900  0.83540  0.03620  1.0000 -0.2132431252
C   C8        1.0  0.13100  0.16460  0.96380  1.0000 -0.2132431252
C   C9        1.0  0.99440  0.82050  0.11110  1.0000 0.2504790144
C   C10       1.0  0.00560  0.17950  0.88890  1.0000 0.2504790144
C   C11       1.0  0.06800  0.73660  0.06710  1.0000 -0.2018130256
C   C12       1.0  0.93200  0.26340  0.93290  1.0000 -0.2018130256
C   C13       1.0  0.01370  0.66120  0.95090  1.0000 -0.0822765065
C   C14       1.0  0.98630  0.33880  0.04910  1.0000 -0.0822765065
C   C15       1.0  0.95200  0.92250  0.29240  1.0000 0.242910953
C   C16       1.0  0.04800  0.07750  0.70760  1.0000 0.242910953
C   C17       1.0  0.81970  0.80440  0.30900  1.0000 -0.2203101201
C   C18       1.0  0.18030  0.19560  0.69100  1.0000 -0.2203101201
C   C19       1.0  0.71890  0.83420  0.37330  1.0000 -0.0184654335
C   C20       1.0  0.28110  0.16580  0.62670  1.0000 -0.0184654335
C   C21       1.0  0.74910  0.97750  0.42040  1.0000 -0.1264270825
C   C22       1.0  0.25090  0.02250  0.57960  1.0000 -0.1264270825
C   C23       1.0  0.88590  0.09370  0.40960  1.0000 -0.0281383881
C   C24       1.0  0.11410  0.90630  0.59040  1.0000 -0.0281383881
C   C25       1.0  0.98740  0.06440  0.34580  1.0000 -0.1922338886
C   C26       1.0  0.01260  0.93560  0.65420  1.0000 -0.1922338886
C   C27       1.0  0.58050  0.70900  0.39690  1.0000 0.6180820035
C   C28       1.0  0.41950  0.29100  0.60310  1.0000 0.6180820035
C   C29       1.0  0.91850  0.24670  0.46680  1.0000 0.6282257603
C   C30       1.0  0.08150  0.75330  0.53320  1.0000 0.6282257603
O   O1        1.0  0.87780  0.49550  0.71720  1.0000 -0.5665862693
O   O2        1.0  0.12220  0.50450  0.28280  1.0000 -0.5665862693
O   O3        1.0  0.71850  0.61070  0.68310  1.0000 -0.600966288
O   O4        1.0  0.28150  0.38930  0.31690  1.0000 -0.600966288
O   O5        1.0  0.45340  0.72490  0.39420  1.0000 -0.5665862693
O   O6        1.0  0.54660  0.27510  0.60580  1.0000 -0.5665862693
O   O7        1.0  0.59770  0.59230  0.42220  1.0000 -0.6421174241
O   O8        1.0  0.40230  0.40770  0.57780  1.0000 -0.6421174241
O   O9        1.0  0.81090  0.26930  0.50830  1.0000 -0.600966288
O   O10       1.0  0.18910  0.73070  0.49170  1.0000 -0.600966288
O   O11       1.0  0.05040  0.34470  0.47150  1.0000 -0.6200667454
O   O12       1.0  0.94960  0.65530  0.52850  1.0000 -0.6200667454
O   O13       1.0  0.05480  0.89500  0.22740  1.0000 -0.2132431252
O   O14       1.0  0.94520  0.10500  0.77260  1.0000 -0.2132431252
