# DDEC6 charges by PACMAN v1.1 (https://github.com/mtap-research/PACMAN-charge/)
data_2011[Ni][nan]3[ASR]3
_chemical_formula_sum              "Ni4 H60 C80 N8 O18"
_cell_length_a       19.9236
_cell_length_b       17.9413
_cell_length_c       14.0104
_cell_angle_alpha    76.0461
_cell_angle_beta     60.9184
_cell_angle_gamma    43.0355

_symmetry_space_group_name_H-M    "P 1"
_symmetry_Int_Tables_number       1

loop_
  _symmetry_equiv_pos_as_xyz
  'x, y, z'

loop_
  _atom_site_type_symbol
  _atom_site_label
  _atom_site_symmetry_multiplicity
  _atom_site_fract_x
  _atom_site_fract_y
  _atom_site_fract_z
  _atom_site_occupancy
  _atom_site_charge
Ni  Ni1       1.0  0.53633  0.29145  0.98459  1.0000 0.7807442253
Ni  Ni2       1.0  0.29145  0.53633  0.18763  1.0000 0.7807442253
Ni  Ni3       1.0  0.26541  0.06237  0.71367  1.0000 0.7807442253
Ni  Ni4       1.0  0.06237  0.26541  0.95855  1.0000 0.7807442253
H   H1        1.0  0.37120  0.35920  0.18080  1.0000 0.3322960441
H   H2        1.0  0.35920  0.37120  0.08880  1.0000 0.3322960441
H   H3        1.0  0.06920  0.16120  0.87880  1.0000 0.3322960441
H   H4        1.0  0.16120  0.06920  0.89080  1.0000 0.3322960441
H   H5        1.0  0.69590  0.04290  0.93330  1.0000 0.0982777487
H   H6        1.0  0.04290  0.69590  0.32790  1.0000 0.0982777487
H   H7        1.0  0.31670  0.92210  0.55410  1.0000 0.0982777487
H   H8        1.0  0.92210  0.31670  0.20710  1.0000 0.0982777487
H   H9        1.0  0.77570  0.88950  0.01270  1.0000 0.1320890069
H   H10       1.0  0.88950  0.77570  0.32210  1.0000 0.1320890069
H   H11       1.0  0.23730  0.92790  0.47430  1.0000 0.1320890069
H   H12       1.0  0.92790  0.23730  0.36050  1.0000 0.1320890069
H   H13       1.0  0.61990  0.08250  0.29370  1.0000 0.1413863803
H   H14       1.0  0.08250  0.61990  0.00390  1.0000 0.1413863803
H   H15       1.0  0.95630  0.24610  0.63010  1.0000 0.1413863803
H   H16       1.0  0.24610  0.95630  0.16750  1.0000 0.1413863803
H   H17       1.0  0.54280  0.23380  0.20520  1.0000 0.1107494719
H   H18       1.0  0.23380  0.54280  0.01820  1.0000 0.1107494719
H   H19       1.0  0.04480  0.23180  0.70720  1.0000 0.1107494719
H   H20       1.0  0.23180  0.04480  0.01620  1.0000 0.1107494719
H   H21       1.0  0.74420  0.88740  0.29020  1.0000 0.0982777487
H   H22       1.0  0.88740  0.74420  0.07820  1.0000 0.0982777487
H   H23       1.0  0.95980  0.17180  0.50580  1.0000 0.0982777487
H   H24       1.0  0.17180  0.95980  0.36260  1.0000 0.0982777487
H   H25       1.0  0.68980  0.82740  0.18740  1.0000 0.0982777487
H   H26       1.0  0.82740  0.68980  0.29540  1.0000 0.0982777487
H   H27       1.0  0.06260  0.95460  0.56020  1.0000 0.0982777487
H   H28       1.0  0.95460  0.06260  0.42260  1.0000 0.0982777487
H   H29       1.0  0.67350  0.75950  0.44970  1.0000 0.1320890069
H   H30       1.0  0.75950  0.67350  0.11730  1.0000 0.1320890069
H   H31       1.0  0.80030  0.13270  0.57650  1.0000 0.1320890069
H   H32       1.0  0.13270  0.80030  0.49050  1.0000 0.1320890069
H   H33       1.0  0.51200  0.85260  0.61480  1.0000 0.116770969
H   H34       1.0  0.85260  0.51200  0.02060  1.0000 0.116770969
H   H35       1.0  0.63520  0.22940  0.73800  1.0000 0.116770969
H   H36       1.0  0.22940  0.63520  0.39740  1.0000 0.116770969
H   H37       1.0  0.33850  0.09370  0.47590  1.0000 0.1107494719
H   H38       1.0  0.09370  0.33850  0.09190  1.0000 0.1107494719
H   H39       1.0  0.77410  0.15810  0.91150  1.0000 0.1107494719
H   H40       1.0  0.15810  0.77410  0.15630  1.0000 0.1107494719
H   H41       1.0  0.49240  0.00660  0.30560  1.0000 0.1413863803
H   H42       1.0  0.00660  0.49240  0.19540  1.0000 0.1413863803
H   H43       1.0  0.94440  0.05460  0.75760  1.0000 0.1413863803
H   H44       1.0  0.05460  0.94440  0.24340  1.0000 0.1413863803
H   H45       1.0  0.45890  0.53090  0.28810  1.0000 0.116770969
H   H46       1.0  0.53090  0.45890  0.72210  1.0000 0.116770969
H   H47       1.0  0.96190  0.52790  0.79110  1.0000 0.1107494719
H   H48       1.0  0.52790  0.96190  0.71910  1.0000 0.116770969
H   H49       1.0  0.55400  0.53860  0.32540  1.0000 0.1107494719
H   H50       1.0  0.53860  0.55400  0.58200  1.0000 0.1107494719
H   H51       1.0  0.92460  0.66800  0.69600  1.0000 0.1107494719
H   H52       1.0  0.66800  0.92460  0.71140  1.0000 0.1107494719
H   H53       1.0  0.73470  0.44690  0.19210  1.0000 0.1107494719
H   H54       1.0  0.44690  0.73470  0.62630  1.0000 0.1107494719
H   H55       1.0  0.05790  0.62370  0.51530  1.0000 0.1107494719
H   H56       1.0  0.62370  0.05790  0.80310  1.0000 0.1107494719
H   H57       1.0  0.73700  0.30160  0.01040  1.0000 0.116770969
H   H58       1.0  0.30160  0.73700  0.95100  1.0000 0.116770969
H   H59       1.0  0.23960  0.29900  0.51300  1.0000 0.116770969
H   H60       1.0  0.29900  0.23960  0.94840  1.0000 0.116770969
C   C1        1.0  0.68010  0.05150  0.00730  1.0000 0.0776215648
C   C2        1.0  0.05150  0.68010  0.26110  1.0000 0.0776215648
C   C3        1.0  0.24270  0.98890  0.56990  1.0000 0.0776215648
C   C4        1.0  0.98890  0.24270  0.19850  1.0000 0.0776215648
C   C5        1.0  0.72800  0.95920  0.05440  1.0000 -0.209199605
C   C6        1.0  0.95920  0.72800  0.25840  1.0000 -0.209199605
C   C7        1.0  0.19560  0.99160  0.52200  1.0000 -0.209199605
C   C8        1.0  0.99160  0.19560  0.29080  1.0000 -0.209199605
C   C9        1.0  0.70666  0.96786  0.16274  1.0000 0.1320890069
C   C10       1.0  0.96786  0.70666  0.16274  1.0000 0.1320890069
C   C11       1.0  0.08726  0.08726  0.54334  1.0000 0.1320890069
C   C12       1.0  0.08726  0.08726  0.28214  1.0000 0.1320890069
C   C13       1.0  0.63660  0.07240  0.21980  1.0000 -0.209199605
C   C14       1.0  0.07240  0.63660  0.07120  1.0000 -0.209199605
C   C15       1.0  0.03020  0.17880  0.61340  1.0000 -0.209199605
C   C16       1.0  0.17880  0.03020  0.17760  1.0000 -0.209199605
C   C17       1.0  0.59060  0.16300  0.16580  1.0000 0.1107494719
C   C18       1.0  0.16300  0.59060  0.08060  1.0000 0.1107494719
C   C19       1.0  0.08420  0.16940  0.65940  1.0000 0.1107494719
C   C20       1.0  0.16940  0.08420  0.08700  1.0000 0.1107494719
C   C21       1.0  0.75230  0.86950  0.22150  1.0000 -0.1106545711
C   C22       1.0  0.86950  0.75230  0.15670  1.0000 -0.1106545711
C   C23       1.0  0.02850  0.09330  0.49770  1.0000 -0.1106545711
C   C24       1.0  0.09330  0.02850  0.38050  1.0000 -0.1106545711
C   C25       1.0  0.70482  0.82162  0.24798  1.0000 -0.1106545711
C   C26       1.0  0.82162  0.70482  0.22558  1.0000 -0.1106545711
C   C27       1.0  0.00202  0.02442  0.54518  1.0000 -0.1106545711
C   C28       1.0  0.02442  0.00202  0.42838  1.0000 -0.1106545711
C   C29       1.0  0.60390  0.87190  0.35690  1.0000 0.1413863803
C   C30       1.0  0.87190  0.60390  0.16730  1.0000 0.1413863803
C   C31       1.0  0.89310  0.08270  0.64610  1.0000 0.1413863803
C   C32       1.0  0.08270  0.89310  0.37810  1.0000 0.1413863803
C   C33       1.0  0.60570  0.82810  0.45230  1.0000 -0.2185622523
C   C34       1.0  0.82810  0.60570  0.11390  1.0000 -0.2185622523
C   C35       1.0  0.79770  0.13610  0.64430  1.0000 -0.2185622523
C   C36       1.0  0.13610  0.79770  0.42190  1.0000 -0.2185622523
C   C37       1.0  0.50860  0.88480  0.55140  1.0000 0.090073328
C   C38       1.0  0.88480  0.50860  0.05520  1.0000 0.090073328
C   C39       1.0  0.69860  0.19480  0.74140  1.0000 0.090073328
C   C40       1.0  0.19480  0.69860  0.36520  1.0000 0.090073328
C   C41       1.0  0.40760  0.02480  0.47020  1.0000 0.090073328
C   C42       1.0  0.02480  0.40760  0.09740  1.0000 0.090073328
C   C43       1.0  0.77980  0.15260  0.84240  1.0000 0.090073328
C   C44       1.0  0.15260  0.77980  0.22520  1.0000 0.090073328
C   C45       1.0  0.49940  0.97360  0.36800  1.0000 -0.209199605
C   C46       1.0  0.97360  0.49940  0.15900  1.0000 -0.209199605
C   C47       1.0  0.88200  0.09100  0.75060  1.0000 -0.209199605
C   C48       1.0  0.09100  0.88200  0.27640  1.0000 -0.209199605
C   C49       1.0  0.58780  0.41400  0.14700  1.0000 -0.0298171318
C   C50       1.0  0.41400  0.58780  0.85120  1.0000 -0.0298171318
C   C51       1.0  0.10300  0.39880  0.66220  1.0000 -0.0298171318
C   C52       1.0  0.39880  0.10300  0.83600  1.0000 -0.0298171318
C   C53       1.0  0.53470  0.48650  0.23870  1.0000 -0.1041999082
C   C54       1.0  0.48650  0.53470  0.74010  1.0000 -0.1041999082
C   C55       1.0  0.01130  0.50990  0.71530  1.0000 -0.1041999082
C   C56       1.0  0.50990  0.01130  0.76350  1.0000 -0.1041999082
C   C57       1.0  0.58960  0.49440  0.25920  1.0000 -0.1106545711
C   C58       1.0  0.49440  0.58960  0.65680  1.0000 -0.1106545711
C   C59       1.0  0.99080  0.59320  0.66040  1.0000 -0.1106545711
C   C60       1.0  0.59320  0.99080  0.75560  1.0000 -0.1106545711
C   C61       1.0  0.69860  0.43680  0.18140  1.0000 -0.1106545711
C   C62       1.0  0.43680  0.69860  0.68320  1.0000 -0.1106545711
C   C63       1.0  0.06860  0.56680  0.55140  1.0000 -0.1106545711
C   C64       1.0  0.56680  0.06860  0.81320  1.0000 -0.1106545711
C   C65       1.0  0.75430  0.36470  0.08810  1.0000 -0.0298171318
C   C66       1.0  0.36470  0.75430  0.79290  1.0000 -0.0298171318
C   C67       1.0  0.16190  0.45710  0.49570  1.0000 -0.0298171318
C   C68       1.0  0.45710  0.16190  0.88530  1.0000 -0.0298171318
C   C69       1.0  0.69910  0.35210  0.07210  1.0000 -0.115679651
C   C70       1.0  0.35210  0.69910  0.87670  1.0000 -0.115679651
C   C71       1.0  0.17790  0.37330  0.55090  1.0000 -0.115679651
C   C72       1.0  0.37330  0.17790  0.89790  1.0000 -0.115679651
C   C73       1.0  0.52520  0.40700  0.12680  1.0000 0.5697735851
C   C74       1.0  0.40700  0.52520  0.94100  1.0000 0.5697735851
C   C75       1.0  0.12320  0.30900  0.72480  1.0000 0.5697735851
C   C76       1.0  0.30900  0.12320  0.84300  1.0000 0.5697735851
C   C77       1.0  0.87240  0.30260  0.00780  1.0000 0.5583484476
C   C78       1.0  0.30260  0.87240  0.81720  1.0000 0.5583484476
C   C79       1.0  0.24220  0.43280  0.37760  1.0000 0.5583484476
C   C80       1.0  0.43280  0.24220  0.94740  1.0000 0.5583484476
N   N1        1.0  0.61168  0.15368  0.06052  1.0000 -0.239193886
N   N2        1.0  0.15368  0.61168  0.17412  1.0000 -0.239193886
N   N3        1.0  0.18948  0.07588  0.63832  1.0000 -0.239193886
N   N4        1.0  0.07588  0.18948  0.09632  1.0000 -0.239193886
N   N5        1.0  0.41052  0.98252  0.56148  1.0000 -0.209199605
N   N6        1.0  0.98252  0.41052  0.04548  1.0000 -0.209199605
N   N7        1.0  0.68852  0.20452  0.83948  1.0000 -0.209199605
N   N8        1.0  0.20452  0.68852  0.26748  1.0000 -0.209199605
O   O1        1.0  0.57382  0.34934  0.03626  1.0000 -0.5560476477
O   O2        1.0  0.34934  0.57382  0.04058  1.0000 -0.5560476477
O   O3        1.0  0.21374  0.20942  0.67618  1.0000 -0.5560476477
O   O4        1.0  0.20942  0.21374  0.90066  1.0000 -0.5560476477
O   O5        1.0  0.42944  0.45514  0.20386  1.0000 -0.5441887076
O   O6        1.0  0.45514  0.42944  0.91156  1.0000 -0.5441887076
O   O7        1.0  0.04614  0.33844  0.82056  1.0000 -0.5441887076
O   O8        1.0  0.33844  0.04614  0.79486  1.0000 -0.5441887076
O   O9        1.0  0.92999  0.22419  0.93281  1.0000 -0.5346184666
O   O10       1.0  0.22419  0.92999  0.91301  1.0000 -0.5346184666
O   O11       1.0  0.31719  0.33699  0.32001  1.0000 -0.5346184666
O   O12       1.0  0.33699  0.31719  0.02581  1.0000 -0.5346184666
O   O13       1.0  0.90689  0.33265  0.02275  1.0000 -0.552342623
O   O14       1.0  0.33265  0.90689  0.73771  1.0000 -0.552342623
O   O15       1.0  0.22725  0.51229  0.34311  1.0000 -0.552342623
O   O16       1.0  0.51229  0.22725  0.91735  1.0000 -0.552342623
O   O17       1.0  0.37800  0.37800  0.12200  1.0000 -0.6257214244
O   O18       1.0  0.12800  0.12800  0.87200  1.0000 -0.6257214244
