# DDEC6 charges by PACMAN v1.1 (https://github.com/mtap-research/PACMAN-charge/)
data_2011[Dy][nan]3[ASR]1
_chemical_formula_sum              "Dy12 H192 C264 O96"
_cell_length_a       10.7029
_cell_length_b       28.176
_cell_length_c       34.014
_cell_angle_alpha    90
_cell_angle_beta     90
_cell_angle_gamma    90

_symmetry_space_group_name_H-M    "P 1"
_symmetry_Int_Tables_number       1

loop_
  _symmetry_equiv_pos_as_xyz
  'x, y, z'

loop_
  _atom_site_type_symbol
  _atom_site_label
  _atom_site_symmetry_multiplicity
  _atom_site_fract_x
  _atom_site_fract_y
  _atom_site_fract_z
  _atom_site_occupancy
  _atom_site_charge
Dy  Dy1       1.0  0.02318  0.30483  0.25000  1.0000 2.1492370354
Dy  Dy2       1.0  0.97682  0.69517  0.75000  1.0000 2.1492370354
Dy  Dy3       1.0  0.97682  0.80483  0.25000  1.0000 2.1492370354
Dy  Dy4       1.0  0.02318  0.19517  0.75000  1.0000 2.1492370354
Dy  Dy5       1.0  0.86528  0.17821  0.25000  1.0000 2.1371630417
Dy  Dy6       1.0  0.13472  0.82179  0.75000  1.0000 2.1371630417
Dy  Dy7       1.0  0.13472  0.67821  0.25000  1.0000 2.1371630417
Dy  Dy8       1.0  0.86528  0.32179  0.75000  1.0000 2.1371630417
Dy  Dy9       1.0  0.84750  0.50880  0.75000  1.0000 2.0998011814
Dy  Dy10      1.0  0.15250  0.49120  0.25000  1.0000 2.0998011814
Dy  Dy11      1.0  0.15250  0.00880  0.75000  1.0000 2.0998011814
Dy  Dy12      1.0  0.84750  0.99120  0.25000  1.0000 2.0998011814
H   H1        1.0  0.33202  0.30154  0.51716  1.0000 0.0699312313
H   H2        1.0  0.66798  0.69846  0.48284  1.0000 0.0699312313
H   H3        1.0  0.66798  0.69846  0.01716  1.0000 0.0699312313
H   H4        1.0  0.33202  0.30154  0.98284  1.0000 0.0699312313
H   H5        1.0  0.66798  0.80154  0.98284  1.0000 0.0699312313
H   H6        1.0  0.33202  0.19846  0.01716  1.0000 0.0699312313
H   H7        1.0  0.33202  0.19846  0.48284  1.0000 0.0699312313
H   H8        1.0  0.66798  0.80154  0.51716  1.0000 0.0699312313
H   H9        1.0  0.46874  0.31052  0.54744  1.0000 0.062283676
H   H10       1.0  0.53126  0.68948  0.45256  1.0000 0.062283676
H   H11       1.0  0.53126  0.68948  0.04744  1.0000 0.062283676
H   H12       1.0  0.46874  0.31052  0.95256  1.0000 0.062283676
H   H13       1.0  0.53126  0.81052  0.95256  1.0000 0.062283676
H   H14       1.0  0.46874  0.18948  0.04744  1.0000 0.062283676
H   H15       1.0  0.46874  0.18948  0.45256  1.0000 0.062283676
H   H16       1.0  0.53126  0.81052  0.54744  1.0000 0.062283676
H   H17       1.0  0.31092  0.41486  0.49893  1.0000 0.0768395388
H   H18       1.0  0.68908  0.58514  0.50107  1.0000 0.0768395388
H   H19       1.0  0.68908  0.58514  0.99893  1.0000 0.0768395388
H   H20       1.0  0.31092  0.41486  0.00107  1.0000 0.0768395388
H   H21       1.0  0.68908  0.91486  0.00107  1.0000 0.0768395388
H   H22       1.0  0.31092  0.08514  0.99893  1.0000 0.0768395388
H   H23       1.0  0.31092  0.08514  0.50107  1.0000 0.0768395388
H   H24       1.0  0.68908  0.91486  0.49893  1.0000 0.0768395388
H   H25       1.0  0.40527  0.41172  0.45480  1.0000 0.062283676
H   H26       1.0  0.59473  0.58828  0.54520  1.0000 0.062283676
H   H27       1.0  0.59473  0.58828  0.95480  1.0000 0.062283676
H   H28       1.0  0.40527  0.41172  0.04520  1.0000 0.062283676
H   H29       1.0  0.59473  0.91172  0.04520  1.0000 0.062283676
H   H30       1.0  0.40527  0.08828  0.95480  1.0000 0.062283676
H   H31       1.0  0.40527  0.08828  0.54520  1.0000 0.062283676
H   H32       1.0  0.59473  0.91172  0.45480  1.0000 0.062283676
H   H33       1.0  0.58138  0.30100  0.48560  1.0000 0.0699312313
H   H34       1.0  0.41862  0.69900  0.51440  1.0000 0.0699312313
H   H35       1.0  0.41862  0.69900  0.98560  1.0000 0.0699312313
H   H36       1.0  0.58138  0.30100  0.01440  1.0000 0.0699312313
H   H37       1.0  0.41862  0.80100  0.01440  1.0000 0.0699312313
H   H38       1.0  0.58138  0.19900  0.98560  1.0000 0.0699312313
H   H39       1.0  0.58138  0.19900  0.51440  1.0000 0.0699312313
H   H40       1.0  0.41862  0.80100  0.48560  1.0000 0.0699312313
H   H41       1.0  0.44080  0.30371  0.45618  1.0000 0.062283676
H   H42       1.0  0.55920  0.69629  0.54382  1.0000 0.062283676
H   H43       1.0  0.55920  0.69629  0.95618  1.0000 0.062283676
H   H44       1.0  0.44080  0.30371  0.04382  1.0000 0.062283676
H   H45       1.0  0.55920  0.80371  0.04382  1.0000 0.062283676
H   H46       1.0  0.44080  0.19629  0.95618  1.0000 0.062283676
H   H47       1.0  0.44080  0.19629  0.54382  1.0000 0.062283676
H   H48       1.0  0.55920  0.80371  0.45618  1.0000 0.062283676
H   H49       1.0  0.59165  0.41691  0.49450  1.0000 0.0768395388
H   H50       1.0  0.40835  0.58309  0.50550  1.0000 0.0768395388
H   H51       1.0  0.40835  0.58309  0.99450  1.0000 0.0768395388
H   H52       1.0  0.59165  0.41691  0.00550  1.0000 0.0768395388
H   H53       1.0  0.40835  0.91691  0.00550  1.0000 0.0768395388
H   H54       1.0  0.59165  0.08309  0.99450  1.0000 0.0768395388
H   H55       1.0  0.59165  0.08309  0.50550  1.0000 0.0768395388
H   H56       1.0  0.40835  0.91691  0.49450  1.0000 0.0768395388
H   H57       1.0  0.49803  0.41647  0.53874  1.0000 0.0699312313
H   H58       1.0  0.50197  0.58353  0.46126  1.0000 0.0699312313
H   H59       1.0  0.50197  0.58353  0.03874  1.0000 0.0699312313
H   H60       1.0  0.49803  0.41647  0.96126  1.0000 0.0699312313
H   H61       1.0  0.50197  0.91647  0.96126  1.0000 0.0699312313
H   H62       1.0  0.49803  0.08353  0.03874  1.0000 0.0699312313
H   H63       1.0  0.49803  0.08353  0.46126  1.0000 0.0699312313
H   H64       1.0  0.50197  0.91647  0.53874  1.0000 0.0699312313
H   H65       1.0  0.34801  0.26658  0.58024  1.0000 0.1021470377
H   H66       1.0  0.65199  0.73342  0.41976  1.0000 0.1021470377
H   H67       1.0  0.65199  0.73342  0.08024  1.0000 0.1021470377
H   H68       1.0  0.34801  0.26658  0.91976  1.0000 0.1021470377
H   H69       1.0  0.65199  0.76658  0.91976  1.0000 0.1021470377
H   H70       1.0  0.34801  0.23342  0.08024  1.0000 0.1021470377
H   H71       1.0  0.34801  0.23342  0.41976  1.0000 0.1021470377
H   H72       1.0  0.65199  0.76658  0.58024  1.0000 0.1021470377
H   H73       1.0  0.25714  0.23534  0.64258  1.0000 0.1082506661
H   H74       1.0  0.74286  0.76466  0.35742  1.0000 0.1021470377
H   H75       1.0  0.74286  0.76466  0.14258  1.0000 0.1082506661
H   H76       1.0  0.25714  0.23534  0.85742  1.0000 0.1021470377
H   H77       1.0  0.74286  0.73534  0.85742  1.0000 0.1021470377
H   H78       1.0  0.25714  0.26466  0.14258  1.0000 0.1082506661
H   H79       1.0  0.25714  0.26466  0.35742  1.0000 0.1021470377
H   H80       1.0  0.74286  0.73534  0.64258  1.0000 0.1082506661
H   H81       1.0  0.08421  0.37016  0.66569  1.0000 0.1082506661
H   H82       1.0  0.91579  0.62984  0.33431  1.0000 0.1082506661
H   H83       1.0  0.91579  0.62984  0.16569  1.0000 0.1082506661
H   H84       1.0  0.08421  0.37016  0.83431  1.0000 0.1082506661
H   H85       1.0  0.91579  0.87016  0.83431  1.0000 0.1082506661
H   H86       1.0  0.08421  0.12984  0.16569  1.0000 0.1082506661
H   H87       1.0  0.08421  0.12984  0.33431  1.0000 0.1082506661
H   H88       1.0  0.91579  0.87016  0.66569  1.0000 0.1082506661
H   H89       1.0  0.18240  0.40421  0.60414  1.0000 0.1213908902
H   H90       1.0  0.81760  0.59579  0.39586  1.0000 0.1213908902
H   H91       1.0  0.81760  0.59579  0.10414  1.0000 0.1213908902
H   H92       1.0  0.18240  0.40421  0.89586  1.0000 0.1213908902
H   H93       1.0  0.81760  0.90421  0.89586  1.0000 0.1213908902
H   H94       1.0  0.18240  0.09579  0.10414  1.0000 0.1213908902
H   H95       1.0  0.18240  0.09579  0.39586  1.0000 0.1213908902
H   H96       1.0  0.81760  0.90421  0.60414  1.0000 0.1213908902
H   H97       1.0  0.14490  0.30288  0.41750  1.0000 0.1213908902
H   H98       1.0  0.85510  0.69712  0.58250  1.0000 0.1213908902
H   H99       1.0  0.85510  0.69712  0.91750  1.0000 0.1213908902
H   H100      1.0  0.14490  0.30288  0.08250  1.0000 0.1213908902
H   H101      1.0  0.85510  0.80288  0.08250  1.0000 0.1213908902
H   H102      1.0  0.14490  0.19712  0.91750  1.0000 0.1213908902
H   H103      1.0  0.14490  0.19712  0.58250  1.0000 0.1213908902
H   H104      1.0  0.85510  0.80288  0.41750  1.0000 0.1213908902
H   H105      1.0  0.05659  0.32103  0.35017  1.0000 0.1021470377
H   H106      1.0  0.94341  0.67897  0.64983  1.0000 0.1021470377
H   H107      1.0  0.94341  0.67897  0.85017  1.0000 0.1021470377
H   H108      1.0  0.05659  0.32103  0.14983  1.0000 0.1021470377
H   H109      1.0  0.94341  0.82103  0.14983  1.0000 0.1021470377
H   H110      1.0  0.05659  0.17897  0.85017  1.0000 0.1021470377
H   H111      1.0  0.05659  0.17897  0.64983  1.0000 0.1021470377
H   H112      1.0  0.94341  0.82103  0.35017  1.0000 0.1021470377
H   H113      1.0  0.16942  0.46690  0.36200  1.0000 0.1021470377
H   H114      1.0  0.83058  0.53310  0.63800  1.0000 0.1021470377
H   H115      1.0  0.83058  0.53310  0.86200  1.0000 0.1021470377
H   H116      1.0  0.16942  0.46690  0.13800  1.0000 0.1021470377
H   H117      1.0  0.83058  0.96690  0.13800  1.0000 0.1021470377
H   H118      1.0  0.16942  0.03310  0.86200  1.0000 0.1021470377
H   H119      1.0  0.16942  0.03310  0.63800  1.0000 0.1021470377
H   H120      1.0  0.83058  0.96690  0.36200  1.0000 0.1021470377
H   H121      1.0  0.25871  0.45017  0.42870  1.0000 0.1082506661
H   H122      1.0  0.74129  0.54983  0.57130  1.0000 0.1082506661
H   H123      1.0  0.74129  0.54983  0.92870  1.0000 0.1082506661
H   H124      1.0  0.25871  0.45017  0.07130  1.0000 0.1082506661
H   H125      1.0  0.74129  0.95017  0.07130  1.0000 0.1082506661
H   H126      1.0  0.25871  0.04983  0.92870  1.0000 0.1082506661
H   H127      1.0  0.25871  0.04983  0.57130  1.0000 0.1082506661
H   H128      1.0  0.74129  0.95017  0.42870  1.0000 0.1082506661
H   H129      1.0  0.54441  0.25904  0.42170  1.0000 0.1021470377
H   H130      1.0  0.45559  0.74096  0.57830  1.0000 0.1021470377
H   H131      1.0  0.45559  0.74096  0.92170  1.0000 0.1021470377
H   H132      1.0  0.54441  0.25904  0.07830  1.0000 0.1021470377
H   H133      1.0  0.45559  0.75904  0.07830  1.0000 0.1021470377
H   H134      1.0  0.54441  0.24096  0.92170  1.0000 0.1021470377
H   H135      1.0  0.54441  0.24096  0.57830  1.0000 0.1021470377
H   H136      1.0  0.45559  0.75904  0.42170  1.0000 0.1021470377
H   H137      1.0  0.62807  0.22176  0.36040  1.0000 0.1082506661
H   H138      1.0  0.37193  0.77824  0.63960  1.0000 0.1082506661
H   H139      1.0  0.37193  0.77824  0.86040  1.0000 0.1082506661
H   H140      1.0  0.62807  0.22176  0.13960  1.0000 0.1082506661
H   H141      1.0  0.37193  0.72176  0.13960  1.0000 0.1082506661
H   H142      1.0  0.62807  0.27824  0.86040  1.0000 0.1082506661
H   H143      1.0  0.62807  0.27824  0.63960  1.0000 0.1082506661
H   H144      1.0  0.37193  0.72176  0.36040  1.0000 0.1082506661
H   H145      1.0  0.81341  0.35229  0.32993  1.0000 0.1082506661
H   H146      1.0  0.18659  0.64771  0.67007  1.0000 0.1082506661
H   H147      1.0  0.18659  0.64771  0.82993  1.0000 0.1082506661
H   H148      1.0  0.81341  0.35229  0.17007  1.0000 0.1082506661
H   H149      1.0  0.18659  0.85229  0.17007  1.0000 0.1082506661
H   H150      1.0  0.81341  0.14771  0.82993  1.0000 0.1082506661
H   H151      1.0  0.81341  0.14771  0.67007  1.0000 0.1082506661
H   H152      1.0  0.18659  0.85229  0.32993  1.0000 0.1082506661
H   H153      1.0  0.72124  0.39198  0.39000  1.0000 0.1213908902
H   H154      1.0  0.27876  0.60802  0.61000  1.0000 0.1213908902
H   H155      1.0  0.27876  0.60802  0.89000  1.0000 0.1213908902
H   H156      1.0  0.72124  0.39198  0.11000  1.0000 0.1213908902
H   H157      1.0  0.27876  0.89198  0.11000  1.0000 0.1213908902
H   H158      1.0  0.72124  0.10802  0.89000  1.0000 0.1213908902
H   H159      1.0  0.72124  0.10802  0.61000  1.0000 0.1213908902
H   H160      1.0  0.27876  0.89198  0.39000  1.0000 0.1213908902
H   H161      1.0  0.78018  0.31609  0.58138  1.0000 0.1213908902
H   H162      1.0  0.21982  0.68391  0.41862  1.0000 0.1213908902
H   H163      1.0  0.21982  0.68391  0.08138  1.0000 0.1213908902
H   H164      1.0  0.78018  0.31609  0.91862  1.0000 0.1213908902
H   H165      1.0  0.21982  0.81609  0.91862  1.0000 0.1213908902
H   H166      1.0  0.78018  0.18391  0.08138  1.0000 0.1213908902
H   H167      1.0  0.78018  0.18391  0.41862  1.0000 0.1213908902
H   H168      1.0  0.21982  0.81609  0.58138  1.0000 0.1213908902
H   H169      1.0  0.85516  0.33824  0.64918  1.0000 0.1021470377
H   H170      1.0  0.14484  0.66176  0.35082  1.0000 0.1021470377
H   H171      1.0  0.14484  0.66176  0.14918  1.0000 0.1021470377
H   H172      1.0  0.85516  0.33824  0.85082  1.0000 0.1021470377
H   H173      1.0  0.14484  0.83824  0.85082  1.0000 0.1021470377
H   H174      1.0  0.85516  0.16176  0.14918  1.0000 0.1021470377
H   H175      1.0  0.85516  0.16176  0.35082  1.0000 0.1021470377
H   H176      1.0  0.14484  0.83824  0.64918  1.0000 0.1021470377
H   H177      1.0  0.68118  0.47534  0.63828  1.0000 0.1021470377
H   H178      1.0  0.31882  0.52466  0.36172  1.0000 0.1021470377
H   H179      1.0  0.31882  0.52466  0.13828  1.0000 0.1021470377
H   H180      1.0  0.68118  0.47534  0.86172  1.0000 0.1021470377
H   H181      1.0  0.31882  0.97534  0.86172  1.0000 0.1021470377
H   H182      1.0  0.68118  0.02466  0.13828  1.0000 0.1021470377
H   H183      1.0  0.68118  0.02466  0.36172  1.0000 0.1021470377
H   H184      1.0  0.31882  0.97534  0.63828  1.0000 0.1021470377
H   H185      1.0  0.60862  0.45539  0.57085  1.0000 0.1021470377
H   H186      1.0  0.39138  0.54461  0.42915  1.0000 0.1021470377
H   H187      1.0  0.39138  0.54461  0.07085  1.0000 0.1021470377
H   H188      1.0  0.60862  0.45539  0.92915  1.0000 0.1021470377
H   H189      1.0  0.39138  0.95539  0.92915  1.0000 0.1021470377
H   H190      1.0  0.60862  0.04461  0.07085  1.0000 0.1021470377
H   H191      1.0  0.60862  0.04461  0.42915  1.0000 0.1021470377
H   H192      1.0  0.39138  0.95539  0.57085  1.0000 0.1021470377
C   C1        1.0  0.45427  0.35967  0.49897  1.0000 0.044760699
C   C2        1.0  0.54573  0.64033  0.50103  1.0000 0.044760699
C   C3        1.0  0.54573  0.64033  0.99897  1.0000 0.044760699
C   C4        1.0  0.45427  0.35967  0.00103  1.0000 0.044760699
C   C5        1.0  0.54573  0.85967  0.00103  1.0000 0.044760699
C   C6        1.0  0.45427  0.14033  0.99897  1.0000 0.044760699
C   C7        1.0  0.45427  0.14033  0.50103  1.0000 0.044760699
C   C8        1.0  0.54573  0.85967  0.49897  1.0000 0.044760699
C   C9        1.0  0.39394  0.32870  0.53062  1.0000 -0.0183686684
C   C10       1.0  0.60606  0.67130  0.46938  1.0000 -0.0183686684
C   C11       1.0  0.60606  0.67130  0.03062  1.0000 -0.0183686684
C   C12       1.0  0.39394  0.32870  0.96938  1.0000 -0.0183686684
C   C13       1.0  0.60606  0.82870  0.96938  1.0000 -0.0183686684
C   C14       1.0  0.39394  0.17130  0.03062  1.0000 -0.0183686684
C   C15       1.0  0.39394  0.17130  0.46938  1.0000 -0.0183686684
C   C16       1.0  0.60606  0.82870  0.53062  1.0000 -0.0183686684
C   C17       1.0  0.35749  0.39065  0.47782  1.0000 -0.0183686684
C   C18       1.0  0.64251  0.60935  0.52218  1.0000 -0.0183686684
C   C19       1.0  0.64251  0.60935  0.97782  1.0000 -0.0183686684
C   C20       1.0  0.35749  0.39065  0.02218  1.0000 -0.0183686684
C   C21       1.0  0.64251  0.89065  0.02218  1.0000 -0.0183686684
C   C22       1.0  0.35749  0.10935  0.97782  1.0000 -0.0183686684
C   C23       1.0  0.35749  0.10935  0.52218  1.0000 -0.0183686684
C   C24       1.0  0.64251  0.89065  0.47782  1.0000 -0.0183686684
C   C25       1.0  0.51550  0.32512  0.47015  1.0000 -0.0183686684
C   C26       1.0  0.48450  0.67488  0.52985  1.0000 -0.0183686684
C   C27       1.0  0.48450  0.67488  0.97015  1.0000 -0.0183686684
C   C28       1.0  0.51550  0.32512  0.02985  1.0000 -0.0183686684
C   C29       1.0  0.48450  0.82512  0.02985  1.0000 -0.0183686684
C   C30       1.0  0.51550  0.17488  0.97015  1.0000 -0.0183686684
C   C31       1.0  0.51550  0.17488  0.52985  1.0000 -0.0183686684
C   C32       1.0  0.48450  0.82512  0.47015  1.0000 -0.0183686684
C   C33       1.0  0.54861  0.39409  0.51733  1.0000 -0.0183686684
C   C34       1.0  0.45139  0.60591  0.48267  1.0000 -0.0183686684
C   C35       1.0  0.45139  0.60591  0.01733  1.0000 -0.0183686684
C   C36       1.0  0.54861  0.39409  0.98267  1.0000 -0.0183686684
C   C37       1.0  0.45139  0.89409  0.98267  1.0000 -0.0183686684
C   C38       1.0  0.54861  0.10591  0.01733  1.0000 -0.0183686684
C   C39       1.0  0.54861  0.10591  0.48267  1.0000 -0.0183686684
C   C40       1.0  0.45139  0.89409  0.51733  1.0000 -0.0183686684
C   C41       1.0  0.27234  0.33784  0.58906  1.0000 0.2619744079
C   C42       1.0  0.72766  0.66216  0.41094  1.0000 0.2619744079
C   C43       1.0  0.72766  0.66216  0.08906  1.0000 0.2619744079
C   C44       1.0  0.27234  0.33784  0.91094  1.0000 0.2619744079
C   C45       1.0  0.72766  0.83784  0.91094  1.0000 0.2619744079
C   C46       1.0  0.27234  0.16216  0.08906  1.0000 0.2619744079
C   C47       1.0  0.27234  0.16216  0.41094  1.0000 0.2619744079
C   C48       1.0  0.72766  0.83784  0.58906  1.0000 0.2619744079
C   C49       1.0  0.29291  0.29008  0.59910  1.0000 -0.2402657763
C   C50       1.0  0.70709  0.70992  0.40090  1.0000 -0.2402657763
C   C51       1.0  0.70709  0.70992  0.09910  1.0000 -0.2402657763
C   C52       1.0  0.29291  0.29008  0.90090  1.0000 -0.2402657763
C   C53       1.0  0.70709  0.79008  0.90090  1.0000 -0.2402657763
C   C54       1.0  0.29291  0.20992  0.09910  1.0000 -0.2402657763
C   C55       1.0  0.29291  0.20992  0.40090  1.0000 -0.2402657763
C   C56       1.0  0.70709  0.79008  0.59910  1.0000 -0.2402657763
C   C57       1.0  0.24198  0.27234  0.63392  1.0000 -0.0587209444
C   C58       1.0  0.75802  0.72766  0.36608  1.0000 -0.0587209444
C   C59       1.0  0.75802  0.72766  0.13392  1.0000 -0.0587209444
C   C60       1.0  0.24198  0.27234  0.86608  1.0000 -0.0587209444
C   C61       1.0  0.75802  0.77234  0.86608  1.0000 -0.0587209444
C   C62       1.0  0.24198  0.22766  0.13392  1.0000 -0.0587209444
C   C63       1.0  0.24198  0.22766  0.36608  1.0000 -0.0587209444
C   C64       1.0  0.75802  0.77234  0.63392  1.0000 -0.0587209444
C   C65       1.0  0.16763  0.30108  0.65798  1.0000 -0.0814497019
C   C66       1.0  0.83237  0.69892  0.34202  1.0000 -0.0814497019
C   C67       1.0  0.83237  0.69892  0.15798  1.0000 -0.0814497019
C   C68       1.0  0.16763  0.30108  0.84202  1.0000 -0.0814497019
C   C69       1.0  0.83237  0.80108  0.84202  1.0000 -0.0814497019
C   C70       1.0  0.16763  0.19892  0.15798  1.0000 -0.0814497019
C   C71       1.0  0.16763  0.19892  0.34202  1.0000 -0.0814497019
C   C72       1.0  0.83237  0.80108  0.65798  1.0000 -0.0814497019
C   C73       1.0  0.14502  0.34868  0.64697  1.0000 -0.0587209444
C   C74       1.0  0.85498  0.65132  0.35303  1.0000 -0.0587209444
C   C75       1.0  0.85498  0.65132  0.14697  1.0000 -0.0587209444
C   C76       1.0  0.14502  0.34868  0.85303  1.0000 -0.0587209444
C   C77       1.0  0.85498  0.84868  0.85303  1.0000 -0.0587209444
C   C78       1.0  0.14502  0.15132  0.14697  1.0000 -0.0587209444
C   C79       1.0  0.14502  0.15132  0.35303  1.0000 -0.0587209444
C   C80       1.0  0.85498  0.84868  0.64697  1.0000 -0.0587209444
C   C81       1.0  0.19788  0.36722  0.61297  1.0000 -0.2075782124
C   C82       1.0  0.80212  0.63278  0.38703  1.0000 -0.2075782124
C   C83       1.0  0.80212  0.63278  0.11297  1.0000 -0.2075782124
C   C84       1.0  0.19788  0.36722  0.88703  1.0000 -0.2075782124
C   C85       1.0  0.80212  0.86722  0.88703  1.0000 -0.2075782124
C   C86       1.0  0.19788  0.13278  0.11297  1.0000 -0.2075782124
C   C87       1.0  0.19788  0.13278  0.38703  1.0000 -0.2075782124
C   C88       1.0  0.80212  0.86722  0.61297  1.0000 -0.2075782124
C   C89       1.0  0.10624  0.28066  0.69325  1.0000 0.6656575934
C   C90       1.0  0.89376  0.71934  0.30675  1.0000 0.6656575934
C   C91       1.0  0.89376  0.71934  0.19325  1.0000 0.6656575934
C   C92       1.0  0.10624  0.28066  0.80675  1.0000 0.6656575934
C   C93       1.0  0.89376  0.78066  0.80675  1.0000 0.6656575934
C   C94       1.0  0.10624  0.21934  0.19325  1.0000 0.6656575934
C   C95       1.0  0.10624  0.21934  0.30675  1.0000 0.6656575934
C   C96       1.0  0.89376  0.78066  0.69325  1.0000 0.6656575934
C   C97       1.0  0.20958  0.37474  0.42612  1.0000 0.2665229389
C   C98       1.0  0.79042  0.62526  0.57388  1.0000 0.2665229389
C   C99       1.0  0.79042  0.62526  0.92612  1.0000 0.2665229389
C   C100      1.0  0.20958  0.37474  0.07388  1.0000 0.2665229389
C   C101      1.0  0.79042  0.87474  0.07388  1.0000 0.2665229389
C   C102      1.0  0.20958  0.12526  0.92612  1.0000 0.2665229389
C   C103      1.0  0.20958  0.12526  0.57388  1.0000 0.2665229389
C   C104      1.0  0.79042  0.87474  0.42612  1.0000 0.2665229389
C   C105      1.0  0.14762  0.33877  0.40508  1.0000 -0.2075782124
C   C106      1.0  0.85238  0.66123  0.59492  1.0000 -0.2075782124
C   C107      1.0  0.85238  0.66123  0.90508  1.0000 -0.2075782124
C   C108      1.0  0.14762  0.33877  0.09492  1.0000 -0.2075782124
C   C109      1.0  0.85238  0.83877  0.09492  1.0000 -0.2075782124
C   C110      1.0  0.14762  0.16123  0.90508  1.0000 -0.2075782124
C   C111      1.0  0.14762  0.16123  0.59492  1.0000 -0.2075782124
C   C112      1.0  0.85238  0.83877  0.40508  1.0000 -0.2075782124
C   C113      1.0  0.09888  0.34876  0.36824  1.0000 -0.0587209444
C   C114      1.0  0.90112  0.65124  0.63176  1.0000 -0.0587209444
C   C115      1.0  0.90112  0.65124  0.86824  1.0000 -0.0587209444
C   C116      1.0  0.09888  0.34876  0.13176  1.0000 -0.0587209444
C   C117      1.0  0.90112  0.84876  0.13176  1.0000 -0.0587209444
C   C118      1.0  0.09888  0.15124  0.86824  1.0000 -0.0587209444
C   C119      1.0  0.09888  0.15124  0.63176  1.0000 -0.0587209444
C   C120      1.0  0.90112  0.84876  0.36824  1.0000 -0.0587209444
C   C121      1.0  0.10948  0.39487  0.35248  1.0000 -0.0991065883
C   C122      1.0  0.89052  0.60513  0.64752  1.0000 -0.0991065883
C   C123      1.0  0.89052  0.60513  0.85248  1.0000 -0.0991065883
C   C124      1.0  0.10948  0.39487  0.14752  1.0000 -0.0991065883
C   C125      1.0  0.89052  0.89487  0.14752  1.0000 -0.0991065883
C   C126      1.0  0.10948  0.10513  0.85248  1.0000 -0.0991065883
C   C127      1.0  0.10948  0.10513  0.64752  1.0000 -0.0991065883
C   C128      1.0  0.89052  0.89487  0.35248  1.0000 -0.0991065883
C   C129      1.0  0.16387  0.43122  0.37483  1.0000 -0.0587209444
C   C130      1.0  0.83613  0.56878  0.62517  1.0000 -0.0587209444
C   C131      1.0  0.83613  0.56878  0.87483  1.0000 -0.0587209444
C   C132      1.0  0.16387  0.43122  0.12517  1.0000 -0.0587209444
C   C133      1.0  0.83613  0.93122  0.12517  1.0000 -0.0587209444
C   C134      1.0  0.16387  0.06878  0.87483  1.0000 -0.0587209444
C   C135      1.0  0.16387  0.06878  0.62517  1.0000 -0.0587209444
C   C136      1.0  0.83613  0.93122  0.37483  1.0000 -0.0587209444
C   C137      1.0  0.21417  0.42164  0.41183  1.0000 -0.2402657763
C   C138      1.0  0.78583  0.57836  0.58817  1.0000 -0.2402657763
C   C139      1.0  0.78583  0.57836  0.91183  1.0000 -0.2402657763
C   C140      1.0  0.21417  0.42164  0.08817  1.0000 -0.2402657763
C   C141      1.0  0.78583  0.92164  0.08817  1.0000 -0.2402657763
C   C142      1.0  0.21417  0.07836  0.91183  1.0000 -0.2402657763
C   C143      1.0  0.21417  0.07836  0.58817  1.0000 -0.2402657763
C   C144      1.0  0.78583  0.92164  0.41183  1.0000 -0.2402657763
C   C145      1.0  0.07341  0.40303  0.31111  1.0000 0.6886550957
C   C146      1.0  0.92659  0.59697  0.68889  1.0000 0.6886550957
C   C147      1.0  0.92659  0.59697  0.81111  1.0000 0.6886550957
C   C148      1.0  0.07341  0.40303  0.18889  1.0000 0.6886550957
C   C149      1.0  0.92659  0.90303  0.18889  1.0000 0.6886550957
C   C150      1.0  0.07341  0.09697  0.81111  1.0000 0.6886550957
C   C151      1.0  0.07341  0.09697  0.68889  1.0000 0.6886550957
C   C152      1.0  0.92659  0.90303  0.31111  1.0000 0.6886550957
C   C153      1.0  0.62658  0.32811  0.40888  1.0000 0.2619744079
C   C154      1.0  0.37342  0.67189  0.59112  1.0000 0.2619744079
C   C155      1.0  0.37342  0.67189  0.90888  1.0000 0.2619744079
C   C156      1.0  0.62658  0.32811  0.09112  1.0000 0.2619744079
C   C157      1.0  0.37342  0.82811  0.09112  1.0000 0.2619744079
C   C158      1.0  0.62658  0.17189  0.90888  1.0000 0.2619744079
C   C159      1.0  0.62658  0.17189  0.59112  1.0000 0.2619744079
C   C160      1.0  0.37342  0.82811  0.40888  1.0000 0.2619744079
C   C161      1.0  0.60060  0.28012  0.40126  1.0000 -0.2402657763
C   C162      1.0  0.39940  0.71988  0.59874  1.0000 -0.2402657763
C   C163      1.0  0.39940  0.71988  0.90126  1.0000 -0.2402657763
C   C164      1.0  0.60060  0.28012  0.09874  1.0000 -0.2402657763
C   C165      1.0  0.39940  0.78012  0.09874  1.0000 -0.2402657763
C   C166      1.0  0.60060  0.21988  0.90126  1.0000 -0.2402657763
C   C167      1.0  0.60060  0.21988  0.59874  1.0000 -0.2402657763
C   C168      1.0  0.39940  0.78012  0.40126  1.0000 -0.2402657763
C   C169      1.0  0.64744  0.25908  0.36709  1.0000 -0.0587209444
C   C170      1.0  0.35256  0.74092  0.63291  1.0000 -0.0587209444
C   C171      1.0  0.35256  0.74092  0.86709  1.0000 -0.0587209444
C   C172      1.0  0.64744  0.25908  0.13291  1.0000 -0.0587209444
C   C173      1.0  0.35256  0.75908  0.13291  1.0000 -0.0587209444
C   C174      1.0  0.64744  0.24092  0.86709  1.0000 -0.0587209444
C   C175      1.0  0.64744  0.24092  0.63291  1.0000 -0.0587209444
C   C176      1.0  0.35256  0.75908  0.36709  1.0000 -0.0587209444
C   C177      1.0  0.72379  0.28484  0.34127  1.0000 -0.0814497019
C   C178      1.0  0.27621  0.71516  0.65873  1.0000 -0.0814497019
C   C179      1.0  0.27621  0.71516  0.84127  1.0000 -0.0814497019
C   C180      1.0  0.72379  0.28484  0.15873  1.0000 -0.0814497019
C   C181      1.0  0.27621  0.78484  0.15873  1.0000 -0.0814497019
C   C182      1.0  0.72379  0.21516  0.84127  1.0000 -0.0814497019
C   C183      1.0  0.72379  0.21516  0.65873  1.0000 -0.0814497019
C   C184      1.0  0.27621  0.78484  0.34127  1.0000 -0.0814497019
C   C185      1.0  0.75108  0.33290  0.34974  1.0000 -0.0587209444
C   C186      1.0  0.24892  0.66710  0.65026  1.0000 -0.0587209444
C   C187      1.0  0.24892  0.66710  0.84974  1.0000 -0.0587209444
C   C188      1.0  0.75108  0.33290  0.15026  1.0000 -0.0587209444
C   C189      1.0  0.24892  0.83290  0.15026  1.0000 -0.0587209444
C   C190      1.0  0.75108  0.16710  0.84974  1.0000 -0.0587209444
C   C191      1.0  0.75108  0.16710  0.65026  1.0000 -0.0587209444
C   C192      1.0  0.24892  0.83290  0.34974  1.0000 -0.0587209444
C   C193      1.0  0.70163  0.35470  0.38293  1.0000 -0.2075782124
C   C194      1.0  0.29837  0.64530  0.61707  1.0000 -0.2075782124
C   C195      1.0  0.29837  0.64530  0.88293  1.0000 -0.2075782124
C   C196      1.0  0.70163  0.35470  0.11707  1.0000 -0.2075782124
C   C197      1.0  0.29837  0.85470  0.11707  1.0000 -0.2075782124
C   C198      1.0  0.70163  0.14530  0.88293  1.0000 -0.2075782124
C   C199      1.0  0.70163  0.14530  0.61707  1.0000 -0.2075782124
C   C200      1.0  0.29837  0.85470  0.38293  1.0000 -0.2075782124
C   C201      1.0  0.78294  0.26076  0.30719  1.0000 0.6603682326
C   C202      1.0  0.21706  0.73924  0.69281  1.0000 0.6603682326
C   C203      1.0  0.21706  0.73924  0.80719  1.0000 0.6603682326
C   C204      1.0  0.78294  0.26076  0.19281  1.0000 0.6603682326
C   C205      1.0  0.21706  0.76076  0.19281  1.0000 0.6603682326
C   C206      1.0  0.78294  0.23924  0.80719  1.0000 0.6603682326
C   C207      1.0  0.78294  0.23924  0.69281  1.0000 0.6603682326
C   C208      1.0  0.21706  0.76076  0.30719  1.0000 0.6603682326
C   C209      1.0  0.68863  0.38378  0.57225  1.0000 0.2619744079
C   C210      1.0  0.31137  0.61622  0.42775  1.0000 0.2619744079
C   C211      1.0  0.31137  0.61622  0.07225  1.0000 0.2619744079
C   C212      1.0  0.68863  0.38378  0.92775  1.0000 0.2619744079
C   C213      1.0  0.31137  0.88378  0.92775  1.0000 0.2619744079
C   C214      1.0  0.68863  0.11622  0.07225  1.0000 0.2619744079
C   C215      1.0  0.68863  0.11622  0.42775  1.0000 0.2619744079
C   C216      1.0  0.31137  0.88378  0.57225  1.0000 0.2619744079
C   C217      1.0  0.76114  0.35118  0.59386  1.0000 -0.2075782124
C   C218      1.0  0.23886  0.64882  0.40614  1.0000 -0.2075782124
C   C219      1.0  0.23886  0.64882  0.09386  1.0000 -0.2075782124
C   C220      1.0  0.76114  0.35118  0.90614  1.0000 -0.2075782124
C   C221      1.0  0.23886  0.85118  0.90614  1.0000 -0.2075782124
C   C222      1.0  0.76114  0.14882  0.09386  1.0000 -0.2075782124
C   C223      1.0  0.76114  0.14882  0.40614  1.0000 -0.2075782124
C   C224      1.0  0.23886  0.85118  0.59386  1.0000 -0.2075782124
C   C225      1.0  0.80213  0.36329  0.63124  1.0000 -0.0587209444
C   C226      1.0  0.19787  0.63671  0.36876  1.0000 -0.0587209444
C   C227      1.0  0.19787  0.63671  0.13124  1.0000 -0.0587209444
C   C228      1.0  0.80213  0.36329  0.86876  1.0000 -0.0587209444
C   C229      1.0  0.19787  0.86329  0.86876  1.0000 -0.0587209444
C   C230      1.0  0.80213  0.13671  0.13124  1.0000 -0.0587209444
C   C231      1.0  0.80213  0.13671  0.36876  1.0000 -0.0587209444
C   C232      1.0  0.19787  0.86329  0.63124  1.0000 -0.0587209444
C   C233      1.0  0.77234  0.40789  0.64750  1.0000 -0.0991065883
C   C234      1.0  0.22766  0.59211  0.35250  1.0000 -0.0991065883
C   C235      1.0  0.22766  0.59211  0.14750  1.0000 -0.0991065883
C   C236      1.0  0.77234  0.40789  0.85250  1.0000 -0.0991065883
C   C237      1.0  0.22766  0.90789  0.85250  1.0000 -0.0991065883
C   C238      1.0  0.77234  0.09211  0.14750  1.0000 -0.0991065883
C   C239      1.0  0.77234  0.09211  0.35250  1.0000 -0.0991065883
C   C240      1.0  0.22766  0.90789  0.64750  1.0000 -0.0991065883
C   C241      1.0  0.70425  0.44084  0.62522  1.0000 -0.0587209444
C   C242      1.0  0.29575  0.55916  0.37478  1.0000 -0.0587209444
C   C243      1.0  0.29575  0.55916  0.12522  1.0000 -0.0587209444
C   C244      1.0  0.70425  0.44084  0.87478  1.0000 -0.0587209444
C   C245      1.0  0.29575  0.94084  0.87478  1.0000 -0.0587209444
C   C246      1.0  0.70425  0.05916  0.12522  1.0000 -0.0587209444
C   C247      1.0  0.70425  0.05916  0.37478  1.0000 -0.0587209444
C   C248      1.0  0.29575  0.94084  0.62522  1.0000 -0.0587209444
C   C249      1.0  0.66278  0.42925  0.58751  1.0000 -0.2402657763
C   C250      1.0  0.33722  0.57075  0.41249  1.0000 -0.2402657763
C   C251      1.0  0.33722  0.57075  0.08751  1.0000 -0.2402657763
C   C252      1.0  0.66278  0.42925  0.91249  1.0000 -0.2402657763
C   C253      1.0  0.33722  0.92925  0.91249  1.0000 -0.2402657763
C   C254      1.0  0.66278  0.07075  0.08751  1.0000 -0.2402657763
C   C255      1.0  0.66278  0.07075  0.41249  1.0000 -0.2402657763
C   C256      1.0  0.33722  0.92925  0.58751  1.0000 -0.2402657763
C   C257      1.0  0.80719  0.41777  0.68871  1.0000 0.6886550957
C   C258      1.0  0.19281  0.58223  0.31129  1.0000 0.6886550957
C   C259      1.0  0.19281  0.58223  0.18871  1.0000 0.6886550957
C   C260      1.0  0.80719  0.41777  0.81129  1.0000 0.6886550957
C   C261      1.0  0.19281  0.91777  0.81129  1.0000 0.6886550957
C   C262      1.0  0.80719  0.08223  0.18871  1.0000 0.6886550957
C   C263      1.0  0.80719  0.08223  0.31129  1.0000 0.6886550957
C   C264      1.0  0.19281  0.91777  0.68871  1.0000 0.6886550957
O   O1        1.0  0.32226  0.35885  0.55603  1.0000 -0.2011469473
O   O2        1.0  0.67774  0.64115  0.44397  1.0000 -0.2011469473
O   O3        1.0  0.67774  0.64115  0.05603  1.0000 -0.2011469473
O   O4        1.0  0.32226  0.35885  0.94397  1.0000 -0.2011469473
O   O5        1.0  0.67774  0.85885  0.94397  1.0000 -0.2011469473
O   O6        1.0  0.32226  0.14115  0.05603  1.0000 -0.2011469473
O   O7        1.0  0.32226  0.14115  0.44397  1.0000 -0.2011469473
O   O8        1.0  0.67774  0.85885  0.55603  1.0000 -0.2011469473
O   O9        1.0  0.13482  0.23839  0.70450  1.0000 -0.6978195025
O   O10       1.0  0.86518  0.76161  0.29550  1.0000 -0.6978195025
O   O11       1.0  0.86518  0.76161  0.20450  1.0000 -0.6978195025
O   O12       1.0  0.13482  0.23839  0.79550  1.0000 -0.6978195025
O   O13       1.0  0.86518  0.73839  0.79550  1.0000 -0.6978195025
O   O14       1.0  0.13482  0.26161  0.20450  1.0000 -0.6978195025
O   O15       1.0  0.13482  0.26161  0.29550  1.0000 -0.6978195025
O   O16       1.0  0.86518  0.73839  0.70450  1.0000 -0.6978195025
O   O17       1.0  0.02332  0.30657  0.70981  1.0000 -0.728247331
O   O18       1.0  0.97668  0.69343  0.29019  1.0000 -0.728247331
O   O19       1.0  0.97668  0.69343  0.20981  1.0000 -0.728247331
O   O20       1.0  0.02332  0.30657  0.79019  1.0000 -0.728247331
O   O21       1.0  0.97668  0.80657  0.79019  1.0000 -0.728247331
O   O22       1.0  0.02332  0.19343  0.20981  1.0000 -0.728247331
O   O23       1.0  0.02332  0.19343  0.29019  1.0000 -0.728247331
O   O24       1.0  0.97668  0.80657  0.70981  1.0000 -0.728247331
O   O25       1.0  0.26643  0.35965  0.46018  1.0000 -0.2011469473
O   O26       1.0  0.73357  0.64035  0.53982  1.0000 -0.2011469473
O   O27       1.0  0.73357  0.64035  0.96018  1.0000 -0.2011469473
O   O28       1.0  0.26643  0.35965  0.03982  1.0000 -0.2011469473
O   O29       1.0  0.73357  0.85965  0.03982  1.0000 -0.2011469473
O   O30       1.0  0.26643  0.14035  0.96018  1.0000 -0.2011469473
O   O31       1.0  0.26643  0.14035  0.53982  1.0000 -0.2011469473
O   O32       1.0  0.73357  0.85965  0.46018  1.0000 -0.2011469473
O   O33       1.0  0.03744  0.36747  0.29101  1.0000 -0.6978195025
O   O34       1.0  0.96256  0.63253  0.70899  1.0000 -0.6978195025
O   O35       1.0  0.96256  0.63253  0.79101  1.0000 -0.6978195025
O   O36       1.0  0.03744  0.36747  0.20899  1.0000 -0.6978195025
O   O37       1.0  0.96256  0.86747  0.20899  1.0000 -0.6978195025
O   O38       1.0  0.03744  0.13253  0.79101  1.0000 -0.6978195025
O   O39       1.0  0.03744  0.13253  0.70899  1.0000 -0.6978195025
O   O40       1.0  0.96256  0.86747  0.29101  1.0000 -0.6978195025
O   O41       1.0  0.08155  0.44569  0.29705  1.0000 -0.7688114098
O   O42       1.0  0.91845  0.55431  0.70295  1.0000 -0.7688114098
O   O43       1.0  0.91845  0.55431  0.79705  1.0000 -0.7688114098
O   O44       1.0  0.08155  0.44569  0.20295  1.0000 -0.7688114098
O   O45       1.0  0.91845  0.94569  0.20295  1.0000 -0.7688114098
O   O46       1.0  0.08155  0.05431  0.79705  1.0000 -0.7688114098
O   O47       1.0  0.08155  0.05431  0.70295  1.0000 -0.7688114098
O   O48       1.0  0.91845  0.94569  0.29705  1.0000 -0.7688114098
O   O49       1.0  0.58183  0.35221  0.44119  1.0000 -0.2011469473
O   O50       1.0  0.41817  0.64779  0.55881  1.0000 -0.2011469473
O   O51       1.0  0.41817  0.64779  0.94119  1.0000 -0.2011469473
O   O52       1.0  0.58183  0.35221  0.05881  1.0000 -0.2011469473
O   O53       1.0  0.41817  0.85221  0.05881  1.0000 -0.2011469473
O   O54       1.0  0.58183  0.14779  0.94119  1.0000 -0.2011469473
O   O55       1.0  0.58183  0.14779  0.55881  1.0000 -0.2011469473
O   O56       1.0  0.41817  0.85221  0.44119  1.0000 -0.2011469473
O   O57       1.0  0.87056  0.28364  0.28975  1.0000 -0.7539347796
O   O58       1.0  0.12944  0.71636  0.71025  1.0000 -0.7539347796
O   O59       1.0  0.12944  0.71636  0.78975  1.0000 -0.7539347796
O   O60       1.0  0.87056  0.28364  0.21025  1.0000 -0.7539347796
O   O61       1.0  0.12944  0.78364  0.21025  1.0000 -0.7539347796
O   O62       1.0  0.87056  0.21636  0.78975  1.0000 -0.7539347796
O   O63       1.0  0.87056  0.21636  0.71025  1.0000 -0.7539347796
O   O64       1.0  0.12944  0.78364  0.28975  1.0000 -0.7539347796
O   O65       1.0  0.74993  0.21854  0.29728  1.0000 -0.6891822629
O   O66       1.0  0.25007  0.78146  0.70272  1.0000 -0.6891822629
O   O67       1.0  0.25007  0.78146  0.79728  1.0000 -0.6891822629
O   O68       1.0  0.74993  0.21854  0.20272  1.0000 -0.6891822629
O   O69       1.0  0.25007  0.71854  0.20272  1.0000 -0.6891822629
O   O70       1.0  0.74993  0.28146  0.79728  1.0000 -0.6844669594
O   O71       1.0  0.74993  0.28146  0.70272  1.0000 -0.6891822629
O   O72       1.0  0.25007  0.71854  0.29728  1.0000 -0.6891822629
O   O73       1.0  0.64510  0.36718  0.53662  1.0000 -0.1903709951
O   O74       1.0  0.35490  0.63282  0.46338  1.0000 -0.1903709951
O   O75       1.0  0.35490  0.63282  0.03662  1.0000 -0.1903709951
O   O76       1.0  0.64510  0.36718  0.96338  1.0000 -0.1903709951
O   O77       1.0  0.35490  0.86718  0.96338  1.0000 -0.1903709951
O   O78       1.0  0.64510  0.13282  0.03662  1.0000 -0.1903709951
O   O79       1.0  0.64510  0.13282  0.46338  1.0000 -0.1903709951
O   O80       1.0  0.35490  0.86718  0.53662  1.0000 -0.1903709951
O   O81       1.0  0.79016  0.46009  0.70256  1.0000 -0.7688114098
O   O82       1.0  0.20984  0.53991  0.29744  1.0000 -0.7688114098
O   O83       1.0  0.20984  0.53991  0.20256  1.0000 -0.7688114098
O   O84       1.0  0.79016  0.46009  0.79744  1.0000 -0.7688114098
O   O85       1.0  0.20984  0.96009  0.79744  1.0000 -0.7688114098
O   O86       1.0  0.79016  0.03991  0.20256  1.0000 -0.7688114098
O   O87       1.0  0.79016  0.03991  0.29744  1.0000 -0.7688114098
O   O88       1.0  0.20984  0.96009  0.70256  1.0000 -0.7688114098
O   O89       1.0  0.85162  0.38386  0.70900  1.0000 -0.6891822629
O   O90       1.0  0.14838  0.61614  0.29100  1.0000 -0.6891822629
O   O91       1.0  0.14838  0.61614  0.20900  1.0000 -0.6891822629
O   O92       1.0  0.85162  0.38386  0.79100  1.0000 -0.6891822629
O   O93       1.0  0.14838  0.88386  0.79100  1.0000 -0.6891822629
O   O94       1.0  0.85162  0.11614  0.20900  1.0000 -0.6891822629
O   O95       1.0  0.85162  0.11614  0.29100  1.0000 -0.6891822629
O   O96       1.0  0.14838  0.88386  0.70900  1.0000 -0.6891822629
