# DDEC6 charges by PACMAN v1.1 (https://github.com/mtap-research/PACMAN-charge/)
data_2011[Cd][zzz]3[ASR]1
_chemical_formula_sum              "Cd12 H56 C120 Cl8 O48"
_cell_length_a       28.9318
_cell_length_b       28.9318
_cell_length_c       10.3646
_cell_angle_alpha    90
_cell_angle_beta     90
_cell_angle_gamma    90

_symmetry_space_group_name_H-M    "P 1"
_symmetry_Int_Tables_number       1

loop_
  _symmetry_equiv_pos_as_xyz
  'x, y, z'

loop_
  _atom_site_type_symbol
  _atom_site_label
  _atom_site_symmetry_multiplicity
  _atom_site_fract_x
  _atom_site_fract_y
  _atom_site_fract_z
  _atom_site_occupancy
  _atom_site_charge
Cd  Cd1       1.0  0.84451  0.73842  0.76824  1.0000 1.0005083528
Cd  Cd2       1.0  0.23842  0.65549  0.76824  1.0000 1.0005083528
Cd  Cd3       1.0  0.15549  0.26158  0.76824  1.0000 1.0005083528
Cd  Cd4       1.0  0.76158  0.34451  0.76824  1.0000 1.0005083528
Cd  Cd5       1.0  0.65549  0.76158  0.23176  1.0000 1.0005083528
Cd  Cd6       1.0  0.26158  0.84451  0.23176  1.0000 1.0005083528
Cd  Cd7       1.0  0.34451  0.23842  0.23176  1.0000 1.0005083528
Cd  Cd8       1.0  0.73842  0.15549  0.23176  1.0000 1.0005083528
Cd  Cd9       1.0  0.75000  0.75000  0.00000  1.0000 1.0619600933
Cd  Cd10      1.0  0.25000  0.75000  0.00000  1.0000 1.0619600933
Cd  Cd11      1.0  0.25000  0.25000  0.00000  1.0000 1.0619600933
Cd  Cd12      1.0  0.75000  0.25000  0.00000  1.0000 1.0619600933
H   H1        1.0  0.66050  0.60630  0.32900  1.0000 0.1446002644
H   H2        1.0  0.10630  0.83950  0.32900  1.0000 0.1446002644
H   H3        1.0  0.33950  0.39370  0.32900  1.0000 0.1446002644
H   H4        1.0  0.89370  0.16050  0.32900  1.0000 0.1446002644
H   H5        1.0  0.83950  0.89370  0.67100  1.0000 0.1446002644
H   H6        1.0  0.39370  0.66050  0.67100  1.0000 0.1446002644
H   H7        1.0  0.16050  0.10630  0.67100  1.0000 0.1488525106
H   H8        1.0  0.60630  0.33950  0.67100  1.0000 0.1446002644
H   H9        1.0  0.67440  0.52880  0.37300  1.0000 0.1238099035
H   H10       1.0  0.02880  0.82560  0.37300  1.0000 0.1238099035
H   H11       1.0  0.32560  0.47120  0.37300  1.0000 0.1238099035
H   H12       1.0  0.97120  0.17440  0.37300  1.0000 0.1238099035
H   H13       1.0  0.82560  0.97120  0.62700  1.0000 0.1292820776
H   H14       1.0  0.47120  0.67440  0.62700  1.0000 0.1292820776
H   H15       1.0  0.17440  0.02880  0.62700  1.0000 0.1238099035
H   H16       1.0  0.52880  0.32560  0.62700  1.0000 0.1238099035
H   H17       1.0  0.77470  0.52740  0.10320  1.0000 0.1238099035
H   H18       1.0  0.02740  0.72530  0.10320  1.0000 0.1238099035
H   H19       1.0  0.22530  0.47260  0.10320  1.0000 0.1238099035
H   H20       1.0  0.97260  0.27470  0.10320  1.0000 0.1238099035
H   H21       1.0  0.72530  0.97260  0.89680  1.0000 0.1238099035
H   H22       1.0  0.47260  0.77470  0.89680  1.0000 0.1238099035
H   H23       1.0  0.27470  0.02740  0.89680  1.0000 0.1238099035
H   H24       1.0  0.52740  0.22530  0.89680  1.0000 0.1238099035
H   H25       1.0  0.76270  0.60520  0.06420  1.0000 0.1488525106
H   H26       1.0  0.10520  0.73730  0.06420  1.0000 0.1488525106
H   H27       1.0  0.23730  0.39480  0.06420  1.0000 0.1488525106
H   H28       1.0  0.89480  0.26270  0.06420  1.0000 0.1488525106
H   H29       1.0  0.73730  0.89480  0.93580  1.0000 0.1488525106
H   H30       1.0  0.39480  0.76270  0.93580  1.0000 0.1488525106
H   H31       1.0  0.26270  0.10520  0.93580  1.0000 0.1488525106
H   H32       1.0  0.60520  0.23730  0.93580  1.0000 0.1488525106
H   H33       1.0  0.74190  0.45370  0.07380  1.0000 0.1292820776
H   H34       1.0  0.95370  0.75810  0.07380  1.0000 0.1292820776
H   H35       1.0  0.25810  0.54630  0.07380  1.0000 0.1292820776
H   H36       1.0  0.04630  0.24190  0.07380  1.0000 0.1292820776
H   H37       1.0  0.75810  0.04630  0.92620  1.0000 0.1292820776
H   H38       1.0  0.54630  0.74190  0.92620  1.0000 0.1292820776
H   H39       1.0  0.24190  0.95370  0.92620  1.0000 0.1292820776
H   H40       1.0  0.45370  0.25810  0.92620  1.0000 0.1292820776
H   H41       1.0  0.75260  0.34260  0.30590  1.0000 0.1488525106
H   H42       1.0  0.84260  0.74740  0.30590  1.0000 0.1488525106
H   H43       1.0  0.24740  0.65740  0.30590  1.0000 0.1488525106
H   H44       1.0  0.15740  0.25260  0.30590  1.0000 0.1488525106
H   H45       1.0  0.74740  0.15740  0.69410  1.0000 0.1488525106
H   H46       1.0  0.65740  0.75260  0.69410  1.0000 0.1488525106
H   H47       1.0  0.25260  0.84260  0.69410  1.0000 0.1488525106
H   H48       1.0  0.34260  0.24740  0.69410  1.0000 0.1488525106
H   H49       1.0  0.73080  0.46980  0.45830  1.0000 0.1292820776
H   H50       1.0  0.96980  0.76920  0.45830  1.0000 0.1292820776
H   H51       1.0  0.26920  0.53020  0.45830  1.0000 0.1292820776
H   H52       1.0  0.03020  0.23080  0.45830  1.0000 0.1292820776
H   H53       1.0  0.76920  0.03020  0.54170  1.0000 0.1292820776
H   H54       1.0  0.53020  0.73080  0.54170  1.0000 0.1292820776
H   H55       1.0  0.23080  0.96980  0.54170  1.0000 0.1292820776
H   H56       1.0  0.46980  0.26920  0.54170  1.0000 0.1292820776
C   C1        1.0  0.70120  0.66380  0.16110  1.0000 0.5923612486
C   C2        1.0  0.16380  0.79880  0.16110  1.0000 0.5923612486
C   C3        1.0  0.29880  0.33620  0.16110  1.0000 0.5923612486
C   C4        1.0  0.83620  0.20120  0.16110  1.0000 0.5923612486
C   C5        1.0  0.79880  0.83620  0.83890  1.0000 0.5923612486
C   C6        1.0  0.33620  0.70120  0.83890  1.0000 0.5923612486
C   C7        1.0  0.20120  0.16380  0.83890  1.0000 0.5923612486
C   C8        1.0  0.66380  0.29880  0.83890  1.0000 0.5923612486
C   C9        1.0  0.70930  0.61320  0.18970  1.0000 -0.001833579
C   C10       1.0  0.11320  0.79070  0.18970  1.0000 -0.001833579
C   C11       1.0  0.29070  0.38680  0.18970  1.0000 -0.001833579
C   C12       1.0  0.88680  0.20930  0.18970  1.0000 -0.001833579
C   C13       1.0  0.79070  0.88680  0.81030  1.0000 -0.001833579
C   C14       1.0  0.38680  0.70930  0.81030  1.0000 -0.001833579
C   C15       1.0  0.20930  0.11320  0.81030  1.0000 -0.001833579
C   C16       1.0  0.61320  0.29070  0.81030  1.0000 -0.001833579
C   C17       1.0  0.68390  0.59020  0.28270  1.0000 -0.0781758436
C   C18       1.0  0.09020  0.81610  0.28270  1.0000 -0.0781758436
C   C19       1.0  0.31610  0.40980  0.28270  1.0000 -0.0781758436
C   C20       1.0  0.90980  0.18390  0.28270  1.0000 -0.0781758436
C   C21       1.0  0.81610  0.90980  0.71730  1.0000 -0.0781758436
C   C22       1.0  0.40980  0.68390  0.71730  1.0000 -0.0781758436
C   C23       1.0  0.18390  0.09020  0.71730  1.0000 -0.0781758436
C   C24       1.0  0.59020  0.31610  0.71730  1.0000 -0.0781758436
C   C25       1.0  0.69220  0.54410  0.30890  1.0000 -0.1331261817
C   C26       1.0  0.04410  0.80780  0.30890  1.0000 -0.1331261817
C   C27       1.0  0.30780  0.45590  0.30890  1.0000 -0.1331261817
C   C28       1.0  0.95590  0.19220  0.30890  1.0000 -0.1331261817
C   C29       1.0  0.80780  0.95590  0.69110  1.0000 -0.1331261817
C   C30       1.0  0.45590  0.69220  0.69110  1.0000 -0.1331261817
C   C31       1.0  0.19220  0.04410  0.69110  1.0000 -0.1331261817
C   C32       1.0  0.54410  0.30780  0.69110  1.0000 -0.1331261817
C   C33       1.0  0.72630  0.51980  0.24260  1.0000 0.0917510135
C   C34       1.0  0.01980  0.77370  0.24260  1.0000 0.0917510135
C   C35       1.0  0.27370  0.48020  0.24260  1.0000 0.0917510135
C   C36       1.0  0.98020  0.22630  0.24260  1.0000 0.0917510135
C   C37       1.0  0.77370  0.98020  0.75740  1.0000 0.0917510135
C   C38       1.0  0.48020  0.72630  0.75740  1.0000 0.0917510135
C   C39       1.0  0.22630  0.01980  0.75740  1.0000 0.0917510135
C   C40       1.0  0.51980  0.27370  0.75740  1.0000 0.0917510135
C   C41       1.0  0.75150  0.54340  0.15050  1.0000 -0.1331261817
C   C42       1.0  0.04340  0.74850  0.15050  1.0000 -0.1353470463
C   C43       1.0  0.24850  0.45660  0.15050  1.0000 -0.1353470463
C   C44       1.0  0.95660  0.25150  0.15050  1.0000 -0.1331261817
C   C45       1.0  0.74850  0.95660  0.84950  1.0000 -0.1331261817
C   C46       1.0  0.45660  0.75150  0.84950  1.0000 -0.1353470463
C   C47       1.0  0.25150  0.04340  0.84950  1.0000 -0.1331261817
C   C48       1.0  0.54340  0.24850  0.84950  1.0000 -0.1353470463
C   C49       1.0  0.74400  0.58960  0.12550  1.0000 -0.0781758436
C   C50       1.0  0.08960  0.75600  0.12550  1.0000 -0.0781758436
C   C51       1.0  0.25600  0.41040  0.12550  1.0000 -0.0781758436
C   C52       1.0  0.91040  0.24400  0.12550  1.0000 -0.0781758436
C   C53       1.0  0.75600  0.91040  0.87450  1.0000 -0.0781758436
C   C54       1.0  0.41040  0.74400  0.87450  1.0000 -0.0781758436
C   C55       1.0  0.24400  0.08960  0.87450  1.0000 -0.0781758436
C   C56       1.0  0.58960  0.25600  0.87450  1.0000 -0.0781758436
C   C57       1.0  0.73380  0.46960  0.26400  1.0000 0.0678550421
C   C58       1.0  0.96960  0.76620  0.26400  1.0000 0.0678550421
C   C59       1.0  0.26620  0.53040  0.26400  1.0000 0.0678550421
C   C60       1.0  0.03040  0.23380  0.26400  1.0000 0.0678550421
C   C61       1.0  0.76620  0.03040  0.73600  1.0000 0.0678550421
C   C62       1.0  0.53040  0.73380  0.73600  1.0000 0.0678550421
C   C63       1.0  0.23380  0.96960  0.73600  1.0000 0.0678550421
C   C64       1.0  0.46960  0.26620  0.73600  1.0000 0.0678550421
C   C65       1.0  0.74160  0.44070  0.15800  1.0000 -0.1331261817
C   C66       1.0  0.94070  0.75840  0.15800  1.0000 -0.1331261817
C   C67       1.0  0.25840  0.55930  0.15800  1.0000 -0.1331261817
C   C68       1.0  0.05930  0.24160  0.15800  1.0000 -0.1331261817
C   C69       1.0  0.75840  0.05930  0.84200  1.0000 -0.1331261817
C   C70       1.0  0.55930  0.74160  0.84200  1.0000 -0.1331261817
C   C71       1.0  0.24160  0.94070  0.84200  1.0000 -0.1331261817
C   C72       1.0  0.44070  0.25840  0.84200  1.0000 -0.1331261817
C   C73       1.0  0.74870  0.39390  0.17230  1.0000 0.0085282999
C   C74       1.0  0.89390  0.75130  0.17230  1.0000 0.0085282999
C   C75       1.0  0.25130  0.60610  0.17230  1.0000 0.0085282999
C   C76       1.0  0.10610  0.24870  0.17230  1.0000 0.0085282999
C   C77       1.0  0.75130  0.10610  0.82770  1.0000 0.0085282999
C   C78       1.0  0.60610  0.74870  0.82770  1.0000 0.0085282999
C   C79       1.0  0.24870  0.89390  0.82770  1.0000 0.0085282999
C   C80       1.0  0.39390  0.25130  0.82770  1.0000 0.0085282999
C   C81       1.0  0.74870  0.37500  0.29520  1.0000 -0.0859983744
C   C82       1.0  0.87500  0.75130  0.29520  1.0000 -0.0859983744
C   C83       1.0  0.25130  0.62500  0.29520  1.0000 -0.0859983744
C   C84       1.0  0.12500  0.24870  0.29520  1.0000 -0.0859983744
C   C85       1.0  0.75130  0.12500  0.70480  1.0000 -0.0859983744
C   C86       1.0  0.62500  0.74870  0.70480  1.0000 -0.0859983744
C   C87       1.0  0.24870  0.87500  0.70480  1.0000 -0.0859983744
C   C88       1.0  0.37500  0.25130  0.70480  1.0000 -0.0859983744
C   C89       1.0  0.74290  0.40290  0.40270  1.0000 0.0085282999
C   C90       1.0  0.90290  0.75710  0.40270  1.0000 0.0085282999
C   C91       1.0  0.25710  0.59710  0.40270  1.0000 0.0085282999
C   C92       1.0  0.09710  0.24290  0.40270  1.0000 0.0085282999
C   C93       1.0  0.75710  0.09710  0.59730  1.0000 0.0085282999
C   C94       1.0  0.59710  0.74290  0.59730  1.0000 0.0085282999
C   C95       1.0  0.24290  0.90290  0.59730  1.0000 0.0085282999
C   C96       1.0  0.40290  0.25710  0.59730  1.0000 0.0085282999
C   C97       1.0  0.73520  0.45050  0.38510  1.0000 -0.1331261817
C   C98       1.0  0.95050  0.76480  0.38510  1.0000 -0.1331261817
C   C99       1.0  0.26480  0.54950  0.38510  1.0000 -0.1331261817
C   C100      1.0  0.04950  0.23520  0.38510  1.0000 -0.1353470463
C   C101      1.0  0.76480  0.04950  0.61490  1.0000 -0.1331261817
C   C102      1.0  0.54950  0.73520  0.61490  1.0000 -0.1331261817
C   C103      1.0  0.23520  0.95050  0.61490  1.0000 -0.1331261817
C   C104      1.0  0.45050  0.26480  0.61490  1.0000 -0.1331261817
C   C105      1.0  0.74850  0.38300  0.53560  1.0000 0.5448747795
C   C106      1.0  0.88300  0.75150  0.53560  1.0000 0.5448747795
C   C107      1.0  0.25150  0.61700  0.53560  1.0000 0.5455754917
C   C108      1.0  0.11700  0.24850  0.53560  1.0000 0.5455754917
C   C109      1.0  0.75150  0.11700  0.46440  1.0000 0.5448747795
C   C110      1.0  0.61700  0.74850  0.46440  1.0000 0.5455754917
C   C111      1.0  0.24850  0.88300  0.46440  1.0000 0.5455754917
C   C112      1.0  0.38300  0.25150  0.46440  1.0000 0.5455754917
C   C113      1.0  0.75710  0.36420  0.05480  1.0000 0.598550893
C   C114      1.0  0.86420  0.74290  0.05480  1.0000 0.598550893
C   C115      1.0  0.24290  0.63580  0.05480  1.0000 0.598550893
C   C116      1.0  0.13580  0.25710  0.05480  1.0000 0.598550893
C   C117      1.0  0.74290  0.13580  0.94520  1.0000 0.598550893
C   C118      1.0  0.63580  0.75710  0.94520  1.0000 0.598550893
C   C119      1.0  0.25710  0.86420  0.94520  1.0000 0.598550893
C   C120      1.0  0.36420  0.24290  0.94520  1.0000 0.598550893
Cl  Cl1       1.0  0.76083  0.70994  0.77937  1.0000 -0.547770128
Cl  Cl2       1.0  0.20994  0.73917  0.77937  1.0000 -0.547770128
Cl  Cl3       1.0  0.23917  0.29006  0.77937  1.0000 -0.547770128
Cl  Cl4       1.0  0.79006  0.26083  0.77937  1.0000 -0.547770128
Cl  Cl5       1.0  0.73917  0.79006  0.22063  1.0000 -0.547770128
Cl  Cl6       1.0  0.29006  0.76083  0.22063  1.0000 -0.547770128
Cl  Cl7       1.0  0.26083  0.20994  0.22063  1.0000 -0.547770128
Cl  Cl8       1.0  0.70994  0.23917  0.22063  1.0000 -0.547770128
O   O1        1.0  0.67045  0.68390  0.22330  1.0000 -0.5085359294
O   O2        1.0  0.18390  0.82955  0.22330  1.0000 -0.5085359294
O   O3        1.0  0.32955  0.31610  0.22330  1.0000 -0.5085359294
O   O4        1.0  0.81610  0.17045  0.22330  1.0000 -0.5085359294
O   O5        1.0  0.82955  0.81610  0.77670  1.0000 -0.5085359294
O   O6        1.0  0.31610  0.67045  0.77670  1.0000 -0.5085359294
O   O7        1.0  0.17045  0.18390  0.77670  1.0000 -0.5085359294
O   O8        1.0  0.68390  0.32955  0.77670  1.0000 -0.5085359294
O   O9        1.0  0.72783  0.68161  0.07890  1.0000 -0.5295659332
O   O10       1.0  0.18161  0.77217  0.07890  1.0000 -0.5295659332
O   O11       1.0  0.27217  0.31839  0.07890  1.0000 -0.5295659332
O   O12       1.0  0.81839  0.22783  0.07890  1.0000 -0.5295659332
O   O13       1.0  0.77217  0.81839  0.92110  1.0000 -0.5295659332
O   O14       1.0  0.31839  0.72783  0.92110  1.0000 -0.5295659332
O   O15       1.0  0.22783  0.18161  0.92110  1.0000 -0.5295659332
O   O16       1.0  0.68161  0.27217  0.92110  1.0000 -0.5295659332
O   O17       1.0  0.75116  0.38390  0.94810  1.0000 -0.5218829094
O   O18       1.0  0.88390  0.74884  0.94810  1.0000 -0.5218829094
O   O19       1.0  0.24884  0.61610  0.94810  1.0000 -0.5218829094
O   O20       1.0  0.11610  0.25116  0.94810  1.0000 -0.5218829094
O   O21       1.0  0.74884  0.11610  0.05190  1.0000 -0.5218829094
O   O22       1.0  0.61610  0.75116  0.05190  1.0000 -0.5218829094
O   O23       1.0  0.25116  0.88390  0.05190  1.0000 -0.5218829094
O   O24       1.0  0.38390  0.24884  0.05190  1.0000 -0.5218829094
O   O25       1.0  0.76886  0.32312  0.07100  1.0000 -0.5218829094
O   O26       1.0  0.82312  0.73114  0.07100  1.0000 -0.5295659332
O   O27       1.0  0.23114  0.67688  0.07100  1.0000 -0.5295659332
O   O28       1.0  0.17688  0.26886  0.07100  1.0000 -0.5295659332
O   O29       1.0  0.73114  0.17688  0.92900  1.0000 -0.5218829094
O   O30       1.0  0.67688  0.76886  0.92900  1.0000 -0.5218829094
O   O31       1.0  0.26886  0.82312  0.92900  1.0000 -0.5295659332
O   O32       1.0  0.32312  0.23114  0.92900  1.0000 -0.5218829094
O   O33       1.0  0.74340  0.40880  0.63200  1.0000 -0.4983675111
O   O34       1.0  0.90880  0.75660  0.63200  1.0000 -0.4983675111
O   O35       1.0  0.25660  0.59120  0.63200  1.0000 -0.4983675111
O   O36       1.0  0.09120  0.24340  0.63200  1.0000 -0.4983675111
O   O37       1.0  0.75660  0.09120  0.36800  1.0000 -0.4983675111
O   O38       1.0  0.59120  0.74340  0.36800  1.0000 -0.4983675111
O   O39       1.0  0.24340  0.90880  0.36800  1.0000 -0.4983675111
O   O40       1.0  0.40880  0.25660  0.36800  1.0000 -0.4983675111
O   O41       1.0  0.75905  0.34061  0.54460  1.0000 -0.4853034693
O   O42       1.0  0.84061  0.74095  0.54460  1.0000 -0.4853034693
O   O43       1.0  0.24095  0.65939  0.54460  1.0000 -0.4853034693
O   O44       1.0  0.15939  0.25905  0.54460  1.0000 -0.4840715605
O   O45       1.0  0.74095  0.15939  0.45540  1.0000 -0.4840715605
O   O46       1.0  0.65939  0.75905  0.45540  1.0000 -0.4853034693
O   O47       1.0  0.25905  0.84061  0.45540  1.0000 -0.4840715605
O   O48       1.0  0.34061  0.24095  0.45540  1.0000 -0.4853034693
