# DDEC6 charges by PACMAN v1.1 (https://github.com/mtap-research/PACMAN-charge/)
data_2011[Gd][pcu]3[ASR]1
_chemical_formula_sum              "Gd2 H12 C24 O18"
_cell_length_a       10.414
_cell_length_b       10.954
_cell_length_c       12.432
_cell_angle_alpha    104.286
_cell_angle_beta     106.961
_cell_angle_gamma    98.027

_symmetry_space_group_name_H-M    "P 1"
_symmetry_Int_Tables_number       1

loop_
  _symmetry_equiv_pos_as_xyz
  'x, y, z'

loop_
  _atom_site_type_symbol
  _atom_site_label
  _atom_site_symmetry_multiplicity
  _atom_site_fract_x
  _atom_site_fract_y
  _atom_site_fract_z
  _atom_site_occupancy
  _atom_site_charge
Gd  Gd1       1.0  0.89352  0.92423  0.80621  1.0000 2.0054140149
Gd  Gd2       1.0  0.09433  0.06687  0.19436  1.0000 1.9396860658
H   H1        1.0  0.30459  0.50616  0.19119  1.0000 0.3505904137
H   H2        1.0  0.61238  0.05058  0.86156  1.0000 0.1356653481
H   H3        1.0  0.78231  0.31828  0.88323  1.0000 0.1313703193
H   H4        1.0  0.57622  0.92102  0.24595  1.0000 0.3593401819
H   H5        1.0  0.74062  0.63843  0.90202  1.0000 0.3505904137
H   H6        1.0  0.37396  0.96142  0.13593  1.0000 0.1223460544
H   H7        1.0  0.19879  0.66303  0.13389  1.0000 0.1223460544
H   H8        1.0  0.28776  0.13493  0.81650  1.0000 0.3687575667
H   H9        1.0  0.43966  0.65660  0.63575  1.0000 0.1223460544
H   H10       1.0  0.55992  0.32862  0.35026  1.0000 0.1313703193
H   H11       1.0  0.81054  0.61950  0.48929  1.0000 0.3687575667
H   H12       1.0  0.21682  0.53324  0.55972  1.0000 0.3593401819
C   C1        1.0  0.63400  0.51093  0.48721  1.0000 0.2790555416
C   C2        1.0  0.46630  0.58626  0.57266  1.0000 -0.2277079315
C   C3        1.0  0.70577  0.71909  0.65903  1.0000 0.580585426
C   C4        1.0  0.56444  0.97131  0.09713  1.0000 0.2877426653
C   C5        1.0  0.56093  0.02886  0.92105  1.0000 -0.1913118155
C   C6        1.0  0.98789  0.21548  0.99206  1.0000 0.63238824
C   C7        1.0  0.99057  0.35723  0.00444  1.0000 -0.1367153243
C   C8        1.0  0.10772  0.45784  0.07661  1.0000 0.2727738677
C   C9        1.0  0.87461  0.39232  0.93811  1.0000 -0.2044530154
C   C10       1.0  0.78579  0.99638  0.04765  1.0000 0.6655473172
C   C11       1.0  0.63348  0.99296  0.01807  1.0000 -0.1134631277
C   C12       1.0  0.60153  0.60457  0.57095  1.0000 -0.1367153243
C   C13       1.0  0.36459  0.47707  0.49483  1.0000 0.2727738677
C   C14       1.0  0.53363  0.39943  0.41326  1.0000 -0.2074566276
C   C15       1.0  0.29199  0.26826  0.33051  1.0000 0.5874002038
C   C16       1.0  0.42525  0.04640  0.90338  1.0000 0.2877426653
C   C17       1.0  0.42625  0.98411  0.07730  1.0000 -0.2198523373
C   C18       1.0  0.99931  0.76220  0.01391  1.0000 0.67989493
C   C19       1.0  0.99172  0.62259  0.01162  1.0000 -0.1470454426
C   C20       1.0  0.87282  0.52183  0.94195  1.0000 0.2790555416
C   C21       1.0  0.10694  0.58815  0.07975  1.0000 -0.2455830963
C   C22       1.0  0.20087  0.01529  0.95051  1.0000 0.6164937674
C   C23       1.0  0.35391  0.02127  0.98079  1.0000 -0.1329354436
C   C24       1.0  0.39857  0.38249  0.41462  1.0000 -0.1219103427
O   O1        1.0  0.86364  0.03675  0.15389  1.0000 -0.5970035137
O   O2        1.0  0.85028  0.97246  0.97512  1.0000 -0.6566721738
O   O3        1.0  0.89455  0.13057  0.90310  1.0000 -0.6511134447
O   O4        1.0  0.08694  0.18113  0.05924  1.0000 -0.4063786806
O   O5        1.0  0.83498  0.72725  0.68317  1.0000 -0.6345593871
O   O6        1.0  0.67452  0.81792  0.71744  1.0000 -0.6718596161
O   O7        1.0  0.22622  0.42796  0.14238  1.0000 -0.479658111
O   O8        1.0  0.63331  0.93467  0.19459  1.0000 -0.4597707183
O   O9        1.0  0.76173  0.52645  0.47060  1.0000 -0.479658111
O   O10       1.0  0.12389  0.97859  0.84392  1.0000 -0.6113310993
O   O11       1.0  0.13347  0.03535  0.02202  1.0000 -0.4380844177
O   O12       1.0  0.06439  0.85027  0.11345  1.0000 -0.7222813905
O   O13       1.0  0.94197  0.78515  0.91607  1.0000 -0.6804693283
O   O14       1.0  0.16479  0.27159  0.29774  1.0000 -0.6113310993
O   O15       1.0  0.31742  0.15884  0.28642  1.0000 -0.6804693283
O   O16       1.0  0.74881  0.54550  0.87835  1.0000 -0.5041555108
O   O17       1.0  0.36730  0.09370  0.80994  1.0000 -0.4597707183
O   O18       1.0  0.23051  0.46033  0.49883  1.0000 -0.479658111
