# DDEC6 charges by PACMAN v1.1 (https://github.com/mtap-research/PACMAN-charge/)
data_2011[Cu][bcu]3[ASR]1
_chemical_formula_sum              "Cu8 H80 C88 N24 O22"
_cell_length_a       17.2544
_cell_length_b       17.2544
_cell_length_c       15.3517
_cell_angle_alpha    90
_cell_angle_beta     90
_cell_angle_gamma    90

_symmetry_space_group_name_H-M    "P 1"
_symmetry_Int_Tables_number       1

loop_
  _symmetry_equiv_pos_as_xyz
  'x, y, z'

loop_
  _atom_site_type_symbol
  _atom_site_label
  _atom_site_symmetry_multiplicity
  _atom_site_fract_x
  _atom_site_fract_y
  _atom_site_fract_z
  _atom_site_occupancy
  _atom_site_charge
Cu  Cu1       1.0  0.54997  0.43218  0.41692  1.0000 0.841953961
Cu  Cu2       1.0  0.45003  0.56782  0.41692  1.0000 0.841953961
Cu  Cu3       1.0  0.95003  0.93218  0.08308  1.0000 0.841953961
Cu  Cu4       1.0  0.04997  0.06782  0.08308  1.0000 0.841953961
Cu  Cu5       1.0  0.93218  0.04997  0.91692  1.0000 0.841953961
Cu  Cu6       1.0  0.06782  0.95003  0.91692  1.0000 0.841953961
Cu  Cu7       1.0  0.43218  0.45003  0.58308  1.0000 0.841953961
Cu  Cu8       1.0  0.56782  0.54997  0.58308  1.0000 0.841953961
H   H1        1.0  0.53770  0.18390  0.20010  1.0000 0.1270692198
H   H2        1.0  0.46230  0.81610  0.20010  1.0000 0.1270692198
H   H3        1.0  0.96230  0.68390  0.29990  1.0000 0.1270692198
H   H4        1.0  0.03770  0.31610  0.29990  1.0000 0.1270692198
H   H5        1.0  0.68390  0.03770  0.70010  1.0000 0.1270692198
H   H6        1.0  0.31610  0.96230  0.70010  1.0000 0.1270692198
H   H7        1.0  0.18390  0.46230  0.79990  1.0000 0.1270692198
H   H8        1.0  0.81610  0.53770  0.79990  1.0000 0.1270692198
H   H9        1.0  0.61670  0.10920  0.11200  1.0000 0.1386004629
H   H10       1.0  0.38330  0.89080  0.11200  1.0000 0.1386004629
H   H11       1.0  0.88330  0.60920  0.38800  1.0000 0.1386004629
H   H12       1.0  0.11670  0.39080  0.38800  1.0000 0.1386004629
H   H13       1.0  0.60920  0.11670  0.61200  1.0000 0.1386004629
H   H14       1.0  0.39080  0.88330  0.61200  1.0000 0.1386004629
H   H15       1.0  0.10920  0.38330  0.88800  1.0000 0.1386004629
H   H16       1.0  0.89080  0.61670  0.88800  1.0000 0.1386004629
H   H17       1.0  0.80090  0.22760  0.19590  1.0000 0.1386004629
H   H18       1.0  0.19910  0.77240  0.19590  1.0000 0.1386004629
H   H19       1.0  0.69910  0.72760  0.30410  1.0000 0.1386004629
H   H20       1.0  0.30090  0.27240  0.30410  1.0000 0.1386004629
H   H21       1.0  0.72760  0.30090  0.69590  1.0000 0.1386004629
H   H22       1.0  0.27240  0.69910  0.69590  1.0000 0.1386004629
H   H23       1.0  0.22760  0.19910  0.80410  1.0000 0.1386004629
H   H24       1.0  0.77240  0.80090  0.80410  1.0000 0.1386004629
H   H25       1.0  0.72070  0.30840  0.27810  1.0000 0.1215844451
H   H26       1.0  0.27930  0.69160  0.27810  1.0000 0.1215844451
H   H27       1.0  0.77930  0.80840  0.22190  1.0000 0.1215844451
H   H28       1.0  0.22070  0.19160  0.22190  1.0000 0.1215844451
H   H29       1.0  0.80840  0.22070  0.77810  1.0000 0.1215844451
H   H30       1.0  0.19160  0.77930  0.77810  1.0000 0.1215844451
H   H31       1.0  0.30840  0.27930  0.72190  1.0000 0.1215844451
H   H32       1.0  0.69160  0.72070  0.72190  1.0000 0.1215844451
H   H33       1.0  0.74100  0.02560  0.24250  1.0000 0.1482324002
H   H34       1.0  0.25900  0.97440  0.24250  1.0000 0.1482324002
H   H35       1.0  0.75900  0.52560  0.25750  1.0000 0.1482324002
H   H36       1.0  0.24100  0.47440  0.25750  1.0000 0.1482324002
H   H37       1.0  0.52560  0.24100  0.74250  1.0000 0.1482324002
H   H38       1.0  0.47440  0.75900  0.74250  1.0000 0.1482324002
H   H39       1.0  0.02560  0.25900  0.75750  1.0000 0.1482324002
H   H40       1.0  0.97440  0.74100  0.75750  1.0000 0.1482324002
H   H41       1.0  0.70410  0.96650  0.17540  1.0000 0.1482324002
H   H42       1.0  0.29590  0.03350  0.17540  1.0000 0.1482324002
H   H43       1.0  0.79590  0.46650  0.32460  1.0000 0.1482324002
H   H44       1.0  0.20410  0.53350  0.32460  1.0000 0.1482324002
H   H45       1.0  0.46650  0.20410  0.67540  1.0000 0.1482324002
H   H46       1.0  0.53350  0.79590  0.67540  1.0000 0.1482324002
H   H47       1.0  0.96650  0.29590  0.82460  1.0000 0.1482324002
H   H48       1.0  0.03350  0.70410  0.82460  1.0000 0.1482324002
H   H49       1.0  0.78830  0.95150  0.21290  1.0000 0.1581737891
H   H50       1.0  0.21170  0.04850  0.21290  1.0000 0.1581737891
H   H51       1.0  0.71170  0.45150  0.28710  1.0000 0.1581737891
H   H52       1.0  0.28830  0.54850  0.28710  1.0000 0.1581737891
H   H53       1.0  0.45150  0.28830  0.71290  1.0000 0.1581737891
H   H54       1.0  0.54850  0.71170  0.71290  1.0000 0.1581737891
H   H55       1.0  0.95150  0.21170  0.78710  1.0000 0.1581737891
H   H56       1.0  0.04850  0.78830  0.78710  1.0000 0.1581737891
H   H57       1.0  0.85750  0.20880  0.94960  1.0000 0.1666197161
H   H58       1.0  0.14250  0.79120  0.94960  1.0000 0.1666197161
H   H59       1.0  0.64250  0.70880  0.55040  1.0000 0.1666197161
H   H60       1.0  0.35750  0.29120  0.55040  1.0000 0.1666197161
H   H61       1.0  0.70880  0.35750  0.44960  1.0000 0.1666197161
H   H62       1.0  0.29120  0.64250  0.44960  1.0000 0.1666197161
H   H63       1.0  0.20880  0.14250  0.05040  1.0000 0.1666197161
H   H64       1.0  0.79120  0.85750  0.05040  1.0000 0.1666197161
H   H65       1.0  0.76680  0.21720  0.96290  1.0000 0.1581737891
H   H66       1.0  0.23320  0.78280  0.96290  1.0000 0.1581737891
H   H67       1.0  0.73320  0.71720  0.53710  1.0000 0.1581737891
H   H68       1.0  0.26680  0.28280  0.53710  1.0000 0.1581737891
H   H69       1.0  0.71720  0.26680  0.46290  1.0000 0.1581737891
H   H70       1.0  0.28280  0.73320  0.46290  1.0000 0.1581737891
H   H71       1.0  0.21720  0.23320  0.03710  1.0000 0.1581737891
H   H72       1.0  0.78280  0.76680  0.03710  1.0000 0.1581737891
H   H73       1.0  0.82460  0.24700  0.03590  1.0000 0.1581737891
H   H74       1.0  0.17540  0.75300  0.03590  1.0000 0.1581737891
H   H75       1.0  0.67540  0.74700  0.46410  1.0000 0.1581737891
H   H76       1.0  0.32460  0.25300  0.46410  1.0000 0.1581737891
H   H77       1.0  0.74700  0.32460  0.53590  1.0000 0.1581737891
H   H78       1.0  0.25300  0.67540  0.53590  1.0000 0.1581737891
H   H79       1.0  0.24700  0.17540  0.96410  1.0000 0.1581737891
H   H80       1.0  0.75300  0.82460  0.96410  1.0000 0.1581737891
C   C1        1.0  0.56870  0.30520  0.30130  1.0000 0.5400346795
C   C2        1.0  0.43130  0.69480  0.30130  1.0000 0.5400346795
C   C3        1.0  0.93130  0.80520  0.19870  1.0000 0.5400346795
C   C4        1.0  0.06870  0.19480  0.19870  1.0000 0.5400346795
C   C5        1.0  0.80520  0.06870  0.80130  1.0000 0.5400346795
C   C6        1.0  0.19480  0.93130  0.80130  1.0000 0.5400346795
C   C7        1.0  0.30520  0.43130  0.69870  1.0000 0.5400346795
C   C8        1.0  0.69480  0.56870  0.69870  1.0000 0.5400346795
C   C9        1.0  0.61940  0.25560  0.24660  1.0000 -0.0310714004
C   C10       1.0  0.38060  0.74440  0.24660  1.0000 -0.0310714004
C   C11       1.0  0.88060  0.75560  0.25340  1.0000 -0.0310714004
C   C12       1.0  0.11940  0.24440  0.25340  1.0000 -0.0310714004
C   C13       1.0  0.75560  0.11940  0.74660  1.0000 -0.0310714004
C   C14       1.0  0.24440  0.88060  0.74660  1.0000 -0.0310714004
C   C15       1.0  0.25560  0.38060  0.75340  1.0000 -0.0310714004
C   C16       1.0  0.74440  0.61940  0.75340  1.0000 -0.0310714004
C   C17       1.0  0.59110  0.19450  0.19830  1.0000 -0.0823291411
C   C18       1.0  0.40890  0.80550  0.19830  1.0000 -0.0823291411
C   C19       1.0  0.90890  0.69450  0.30170  1.0000 -0.0823291411
C   C20       1.0  0.09110  0.30550  0.30170  1.0000 -0.0823291411
C   C21       1.0  0.69450  0.09110  0.69830  1.0000 -0.0823291411
C   C22       1.0  0.30550  0.90890  0.69830  1.0000 -0.0823291411
C   C23       1.0  0.19450  0.40890  0.80170  1.0000 -0.0823291411
C   C24       1.0  0.80550  0.59110  0.80170  1.0000 -0.0823291411
C   C25       1.0  0.63790  0.14830  0.14730  1.0000 -0.168094637
C   C26       1.0  0.36210  0.85170  0.14730  1.0000 -0.168094637
C   C27       1.0  0.86210  0.64830  0.35270  1.0000 -0.168094637
C   C28       1.0  0.13790  0.35170  0.35270  1.0000 -0.168094637
C   C29       1.0  0.64830  0.13790  0.64730  1.0000 -0.168094637
C   C30       1.0  0.35170  0.86210  0.64730  1.0000 -0.168094637
C   C31       1.0  0.14830  0.36210  0.85270  1.0000 -0.168094637
C   C32       1.0  0.85170  0.63790  0.85270  1.0000 -0.168094637
C   C33       1.0  0.71680  0.16130  0.14980  1.0000 0.1581737891
C   C34       1.0  0.28320  0.83870  0.14980  1.0000 0.1581737891
C   C35       1.0  0.78320  0.66130  0.35020  1.0000 0.1581737891
C   C36       1.0  0.21680  0.33870  0.35020  1.0000 0.1581737891
C   C37       1.0  0.66130  0.21680  0.64980  1.0000 0.1581737891
C   C38       1.0  0.33870  0.78320  0.64980  1.0000 0.1581737891
C   C39       1.0  0.16130  0.28320  0.85020  1.0000 0.1581737891
C   C40       1.0  0.83870  0.71680  0.85020  1.0000 0.1581737891
C   C41       1.0  0.74700  0.21930  0.19630  1.0000 -0.1633621735
C   C42       1.0  0.25300  0.78070  0.19630  1.0000 -0.1633621735
C   C43       1.0  0.75300  0.71930  0.30370  1.0000 -0.1633621735
C   C44       1.0  0.24700  0.28070  0.30370  1.0000 -0.1633621735
C   C45       1.0  0.71930  0.24700  0.69630  1.0000 -0.1633621735
C   C46       1.0  0.28070  0.75300  0.69630  1.0000 -0.1633621735
C   C47       1.0  0.21930  0.25300  0.80370  1.0000 -0.1633621735
C   C48       1.0  0.78070  0.74700  0.80370  1.0000 -0.1633621735
C   C49       1.0  0.69910  0.26770  0.24560  1.0000 -0.0823291411
C   C50       1.0  0.30090  0.73230  0.24560  1.0000 -0.0823291411
C   C51       1.0  0.80090  0.76770  0.25440  1.0000 -0.0823291411
C   C52       1.0  0.19910  0.23230  0.25440  1.0000 -0.0823291411
C   C53       1.0  0.76770  0.19910  0.74560  1.0000 -0.0823291411
C   C54       1.0  0.23230  0.80090  0.74560  1.0000 -0.0823291411
C   C55       1.0  0.26770  0.30090  0.75440  1.0000 -0.0823291411
C   C56       1.0  0.73230  0.69910  0.75440  1.0000 -0.0823291411
C   C57       1.0  0.75180  0.99090  0.19430  1.0000 -0.5006486794
C   C58       1.0  0.24820  0.00910  0.19430  1.0000 -0.5006486794
C   C59       1.0  0.74820  0.49090  0.30570  1.0000 -0.5006486794
C   C60       1.0  0.25180  0.50910  0.30570  1.0000 -0.5006486794
C   C61       1.0  0.49090  0.25180  0.69430  1.0000 -0.5006486794
C   C62       1.0  0.50910  0.74820  0.69430  1.0000 -0.5006486794
C   C63       1.0  0.99090  0.24820  0.80570  1.0000 -0.5006486794
C   C64       1.0  0.00910  0.75180  0.80570  1.0000 -0.5006486794
C   C65       1.0  0.78600  0.03610  0.12030  1.0000 0.3516150283
C   C66       1.0  0.21400  0.96390  0.12030  1.0000 0.3516150283
C   C67       1.0  0.71400  0.53610  0.37970  1.0000 0.3516150283
C   C68       1.0  0.28600  0.46390  0.37970  1.0000 0.3516150283
C   C69       1.0  0.53610  0.28600  0.62030  1.0000 0.3516150283
C   C70       1.0  0.46390  0.71400  0.62030  1.0000 0.3516150283
C   C71       1.0  0.03610  0.21400  0.87970  1.0000 0.3516150283
C   C72       1.0  0.96390  0.78600  0.87970  1.0000 0.3516150283
C   C73       1.0  0.81350  0.13090  0.03360  1.0000 0.3432250301
C   C74       1.0  0.18650  0.86910  0.03360  1.0000 0.3432250301
C   C75       1.0  0.68650  0.63090  0.46640  1.0000 0.3432250301
C   C76       1.0  0.31350  0.36910  0.46640  1.0000 0.3432250301
C   C77       1.0  0.63090  0.31350  0.53360  1.0000 0.3432250301
C   C78       1.0  0.36910  0.68650  0.53360  1.0000 0.3432250301
C   C79       1.0  0.13090  0.18650  0.96640  1.0000 0.3432250301
C   C80       1.0  0.86910  0.81350  0.96640  1.0000 0.3432250301
C   C81       1.0  0.81580  0.20750  0.99200  1.0000 -0.523012357
C   C82       1.0  0.18420  0.79250  0.99200  1.0000 -0.523012357
C   C83       1.0  0.68420  0.70750  0.50800  1.0000 -0.523012357
C   C84       1.0  0.31580  0.29250  0.50800  1.0000 -0.523012357
C   C85       1.0  0.70750  0.31580  0.49200  1.0000 -0.523012357
C   C86       1.0  0.29250  0.68420  0.49200  1.0000 -0.523012357
C   C87       1.0  0.20750  0.18420  0.00800  1.0000 -0.523012357
C   C88       1.0  0.79250  0.81580  0.00800  1.0000 -0.523012357
N   N1        1.0  0.83820  0.01080  0.06790  1.0000 -0.2692333182
N   N2        1.0  0.16180  0.98920  0.06790  1.0000 -0.2692333182
N   N3        1.0  0.66180  0.51080  0.43210  1.0000 -0.2692333182
N   N4        1.0  0.33820  0.48920  0.43210  1.0000 -0.2692333182
N   N5        1.0  0.51080  0.33820  0.56790  1.0000 -0.2692333182
N   N6        1.0  0.48920  0.66180  0.56790  1.0000 -0.2692333182
N   N7        1.0  0.01080  0.16180  0.93210  1.0000 -0.2692333182
N   N8        1.0  0.98920  0.83820  0.93210  1.0000 -0.2692333182
N   N9        1.0  0.85460  0.07130  0.01130  1.0000 -0.2451161018
N   N10       1.0  0.14540  0.92870  0.01130  1.0000 -0.2451161018
N   N11       1.0  0.64540  0.57130  0.48870  1.0000 -0.2451161018
N   N12       1.0  0.35460  0.42870  0.48870  1.0000 -0.2451161018
N   N13       1.0  0.57130  0.35460  0.51130  1.0000 -0.2451161018
N   N14       1.0  0.42870  0.64540  0.51130  1.0000 -0.2451161018
N   N15       1.0  0.07130  0.14540  0.98870  1.0000 -0.2451161018
N   N16       1.0  0.92870  0.85460  0.98870  1.0000 -0.2451161018
N   N17       1.0  0.76790  0.11080  0.10290  1.0000 -0.1358443779
N   N18       1.0  0.23210  0.88920  0.10290  1.0000 -0.1358443779
N   N19       1.0  0.73210  0.61080  0.39710  1.0000 -0.1358443779
N   N20       1.0  0.26790  0.38920  0.39710  1.0000 -0.1358443779
N   N21       1.0  0.61080  0.26790  0.60290  1.0000 -0.1358443779
N   N22       1.0  0.38920  0.73210  0.60290  1.0000 -0.1358443779
N   N23       1.0  0.11080  0.23210  0.89710  1.0000 -0.1358443779
N   N24       1.0  0.88920  0.76790  0.89710  1.0000 -0.1358443779
O   O1        1.0  0.50000  0.50000  0.50000  1.0000 -0.824241372
O   O2        1.0  0.00000  0.00000  0.00000  1.0000 -0.824241372
O   O3        1.0  0.50000  0.50000  0.33070  1.0000 -0.5404404521
O   O4        1.0  0.00000  0.00000  0.16930  1.0000 -0.5404404521
O   O5        1.0  0.00000  0.00000  0.83070  1.0000 -0.5404404521
O   O6        1.0  0.50000  0.50000  0.66930  1.0000 -0.5404404521
O   O7        1.0  0.59860  0.36610  0.32840  1.0000 -0.4807006141
O   O8        1.0  0.40140  0.63390  0.32840  1.0000 -0.4807006141
O   O9        1.0  0.90140  0.86610  0.17160  1.0000 -0.4807006141
O   O10       1.0  0.09860  0.13390  0.17160  1.0000 -0.4807006141
O   O11       1.0  0.86610  0.09860  0.82840  1.0000 -0.4807006141
O   O12       1.0  0.13390  0.90140  0.82840  1.0000 -0.4807006141
O   O13       1.0  0.36610  0.40140  0.67160  1.0000 -0.4807006141
O   O14       1.0  0.63390  0.59860  0.67160  1.0000 -0.4807006141
O   O15       1.0  0.50140  0.28390  0.31780  1.0000 -0.5404404521
O   O16       1.0  0.49860  0.71610  0.31780  1.0000 -0.5404404521
O   O17       1.0  0.99860  0.78390  0.18220  1.0000 -0.5404404521
O   O18       1.0  0.00140  0.21610  0.18220  1.0000 -0.5404404521
O   O19       1.0  0.78390  0.00140  0.81780  1.0000 -0.5404404521
O   O20       1.0  0.21610  0.99860  0.81780  1.0000 -0.5404404521
O   O21       1.0  0.28390  0.49860  0.68220  1.0000 -0.5404404521
O   O22       1.0  0.71610  0.50140  0.68220  1.0000 -0.5404404521
