# DDEC6 charges by PACMAN v1.1 (https://github.com/mtap-research/PACMAN-charge/)
data_2011[Zn][uni]3[ASR]4
_chemical_formula_sum              "Zn6 H90 C66 Br6 N12 O12"
_cell_length_a       17.7786
_cell_length_b       17.7786
_cell_length_c       10.4868
_cell_angle_alpha    90
_cell_angle_beta     90
_cell_angle_gamma    120

_symmetry_space_group_name_H-M    "P 1"
_symmetry_Int_Tables_number       1

loop_
  _symmetry_equiv_pos_as_xyz
  'x, y, z'

loop_
  _atom_site_type_symbol
  _atom_site_label
  _atom_site_symmetry_multiplicity
  _atom_site_fract_x
  _atom_site_fract_y
  _atom_site_fract_z
  _atom_site_occupancy
  _atom_site_charge
Zn  Zn1       1.0  0.07043  0.54262  0.07724  1.0000 0.6667366461
Zn  Zn2       1.0  0.52781  0.07043  0.91057  1.0000 0.6667366461
Zn  Zn3       1.0  0.45738  0.52781  0.74391  1.0000 0.6667366461
Zn  Zn4       1.0  0.92957  0.45738  0.57724  1.0000 0.6667366461
Zn  Zn5       1.0  0.47219  0.92957  0.41057  1.0000 0.6667366461
Zn  Zn6       1.0  0.54262  0.47219  0.24391  1.0000 0.6667366461
H   H1        1.0  0.92040  0.47410  0.16900  1.0000 0.2545079625
H   H2        1.0  0.44630  0.92040  0.00233  1.0000 0.2545079625
H   H3        1.0  0.52590  0.44630  0.83567  1.0000 0.2545079625
H   H4        1.0  0.07960  0.52590  0.66900  1.0000 0.2545079625
H   H5        1.0  0.55370  0.07960  0.50233  1.0000 0.2545079625
H   H6        1.0  0.47410  0.55370  0.33567  1.0000 0.2545079625
H   H7        1.0  0.69800  0.47690  0.36370  1.0000 0.1182628707
H   H8        1.0  0.22110  0.69800  0.19703  1.0000 0.1182628707
H   H9        1.0  0.52310  0.22110  0.03037  1.0000 0.1182628707
H   H10       1.0  0.30200  0.52310  0.86370  1.0000 0.1182628707
H   H11       1.0  0.77890  0.30200  0.69703  1.0000 0.1182628707
H   H12       1.0  0.47690  0.77890  0.53037  1.0000 0.1182628707
H   H13       1.0  0.67640  0.57300  0.04270  1.0000 0.1110475915
H   H14       1.0  0.10340  0.67640  0.87603  1.0000 0.1110475915
H   H15       1.0  0.42700  0.10340  0.70937  1.0000 0.1110475915
H   H16       1.0  0.32360  0.42700  0.54270  1.0000 0.1110475915
H   H17       1.0  0.89660  0.32360  0.37603  1.0000 0.1110475915
H   H18       1.0  0.57300  0.89660  0.20937  1.0000 0.1110475915
H   H19       1.0  0.81800  0.61260  0.98780  1.0000 0.1418366594
H   H20       1.0  0.20540  0.81800  0.82113  1.0000 0.1418366594
H   H21       1.0  0.38740  0.20540  0.65447  1.0000 0.1418366594
H   H22       1.0  0.18200  0.38740  0.48780  1.0000 0.1418366594
H   H23       1.0  0.79460  0.18200  0.32113  1.0000 0.1418366594
H   H24       1.0  0.61260  0.79460  0.15447  1.0000 0.1418366594
H   H25       1.0  0.83640  0.51370  0.32010  1.0000 0.1468701995
H   H26       1.0  0.32270  0.83640  0.15343  1.0000 0.1468701995
H   H27       1.0  0.48630  0.32270  0.98677  1.0000 0.1468701995
H   H28       1.0  0.16360  0.48630  0.82010  1.0000 0.1468701995
H   H29       1.0  0.67730  0.16360  0.65343  1.0000 0.1468701995
H   H30       1.0  0.51370  0.67730  0.48677  1.0000 0.1468701995
H   H31       1.0  0.95200  0.62080  0.03730  1.0000 0.1182628707
H   H32       1.0  0.33120  0.95200  0.87063  1.0000 0.1182628707
H   H33       1.0  0.37920  0.33120  0.70397  1.0000 0.1182628707
H   H34       1.0  0.04800  0.37920  0.53730  1.0000 0.1182628707
H   H35       1.0  0.66880  0.04800  0.37063  1.0000 0.1182628707
H   H36       1.0  0.62080  0.66880  0.20397  1.0000 0.1182628707
H   H37       1.0  0.97310  0.62170  0.18250  1.0000 0.1418366594
H   H38       1.0  0.35140  0.97310  0.01583  1.0000 0.1318658339
H   H39       1.0  0.37830  0.35140  0.84917  1.0000 0.1318658339
H   H40       1.0  0.02690  0.37830  0.68250  1.0000 0.1318658339
H   H41       1.0  0.64860  0.02690  0.51583  1.0000 0.1318658339
H   H42       1.0  0.62170  0.64860  0.34917  1.0000 0.1318658339
H   H43       1.0  0.84670  0.47230  0.96460  1.0000 0.1110475915
H   H44       1.0  0.37440  0.84670  0.79793  1.0000 0.1110475915
H   H45       1.0  0.52770  0.37440  0.63127  1.0000 0.1110475915
H   H46       1.0  0.15330  0.52770  0.46460  1.0000 0.1110475915
H   H47       1.0  0.62560  0.15330  0.29793  1.0000 0.1110475915
H   H48       1.0  0.47230  0.62560  0.13127  1.0000 0.1110475915
H   H49       1.0  0.80370  0.32540  0.93770  1.0000 0.0863991043
H   H50       1.0  0.47830  0.80370  0.77103  1.0000 0.0863991043
H   H51       1.0  0.67460  0.47830  0.60437  1.0000 0.0863991043
H   H52       1.0  0.19630  0.67460  0.43770  1.0000 0.0863991043
H   H53       1.0  0.52170  0.19630  0.27103  1.0000 0.0863991043
H   H54       1.0  0.32540  0.52170  0.10437  1.0000 0.0863991043
H   H55       1.0  0.91960  0.34630  0.13510  1.0000 0.1110475915
H   H56       1.0  0.57330  0.91960  0.96843  1.0000 0.1110475915
H   H57       1.0  0.65370  0.57330  0.80177  1.0000 0.1110475915
H   H58       1.0  0.08040  0.65370  0.63510  1.0000 0.1110475915
H   H59       1.0  0.42670  0.08040  0.46843  1.0000 0.1110475915
H   H60       1.0  0.34630  0.42670  0.30177  1.0000 0.1110475915
H   H61       1.0  0.92990  0.32690  0.99230  1.0000 0.1318658339
H   H62       1.0  0.60300  0.92990  0.82563  1.0000 0.1318658339
H   H63       1.0  0.67310  0.60300  0.65897  1.0000 0.1318658339
H   H64       1.0  0.07010  0.67310  0.49230  1.0000 0.1318658339
H   H65       1.0  0.39700  0.07010  0.32563  1.0000 0.1318658339
H   H66       1.0  0.32690  0.39700  0.15897  1.0000 0.1318658339
H   H67       1.0  0.85340  0.25650  0.07460  1.0000 0.1318658339
H   H68       1.0  0.59690  0.85340  0.90793  1.0000 0.1318658339
H   H69       1.0  0.74350  0.59690  0.74127  1.0000 0.1318658339
H   H70       1.0  0.14660  0.74350  0.57460  1.0000 0.1318658339
H   H71       1.0  0.40310  0.14660  0.40793  1.0000 0.1318658339
H   H72       1.0  0.25650  0.40310  0.24127  1.0000 0.1318658339
H   H73       1.0  0.72600  0.27310  0.12650  1.0000 0.1318658339
H   H74       1.0  0.45290  0.72600  0.95983  1.0000 0.1318658339
H   H75       1.0  0.72690  0.45290  0.79317  1.0000 0.1318658339
H   H76       1.0  0.27400  0.72690  0.62650  1.0000 0.1318658339
H   H77       1.0  0.54710  0.27400  0.45983  1.0000 0.1318658339
H   H78       1.0  0.27310  0.54710  0.29317  1.0000 0.1318658339
H   H79       1.0  0.72200  0.35450  0.07820  1.0000 0.1318658339
H   H80       1.0  0.36750  0.72200  0.91153  1.0000 0.1318658339
H   H81       1.0  0.64550  0.36750  0.74487  1.0000 0.1318658339
H   H82       1.0  0.27800  0.64550  0.57820  1.0000 0.1318658339
H   H83       1.0  0.63250  0.27800  0.41153  1.0000 0.1318658339
H   H84       1.0  0.35450  0.63250  0.24487  1.0000 0.1318658339
H   H85       1.0  0.78380  0.36370  0.19120  1.0000 0.1182628707
H   H86       1.0  0.42010  0.78380  0.02453  1.0000 0.1182628707
H   H87       1.0  0.63630  0.42010  0.85787  1.0000 0.1182628707
H   H88       1.0  0.21620  0.63630  0.69120  1.0000 0.1182628707
H   H89       1.0  0.57990  0.21620  0.52453  1.0000 0.1182628707
H   H90       1.0  0.36370  0.57990  0.35787  1.0000 0.1182628707
C   C1        1.0  0.72210  0.50360  0.28620  1.0000 0.0678222216
C   C2        1.0  0.21850  0.72210  0.11953  1.0000 0.0678222216
C   C3        1.0  0.49640  0.21850  0.95287  1.0000 0.0678222216
C   C4        1.0  0.27790  0.49640  0.78620  1.0000 0.0678222216
C   C5        1.0  0.78150  0.27790  0.61953  1.0000 0.0678222216
C   C6        1.0  0.50360  0.78150  0.45287  1.0000 0.0678222216
C   C7        1.0  0.70880  0.55950  0.09800  1.0000 0.0823924354
C   C8        1.0  0.14930  0.70880  0.93133  1.0000 0.0823924354
C   C9        1.0  0.44050  0.14930  0.76467  1.0000 0.0823924354
C   C10       1.0  0.29120  0.44050  0.59800  1.0000 0.0823924354
C   C11       1.0  0.85070  0.29120  0.43133  1.0000 0.0823924354
C   C12       1.0  0.55950  0.85070  0.26467  1.0000 0.0823924354
C   C13       1.0  0.79460  0.58470  0.06490  1.0000 -0.2029441559
C   C14       1.0  0.20990  0.79460  0.89823  1.0000 -0.2029441559
C   C15       1.0  0.41530  0.20990  0.73157  1.0000 -0.2029441559
C   C16       1.0  0.20540  0.41530  0.56490  1.0000 -0.2029441559
C   C17       1.0  0.79010  0.20540  0.39823  1.0000 -0.2029441559
C   C18       1.0  0.58470  0.79010  0.23157  1.0000 -0.2029441559
C   C19       1.0  0.84330  0.56740  0.14840  1.0000 0.1418366594
C   C20       1.0  0.27590  0.84330  0.98173  1.0000 0.1418366594
C   C21       1.0  0.43260  0.27590  0.81507  1.0000 0.1418366594
C   C22       1.0  0.15670  0.43260  0.64840  1.0000 0.1418366594
C   C23       1.0  0.72410  0.15670  0.48173  1.0000 0.1418366594
C   C24       1.0  0.56740  0.72410  0.31507  1.0000 0.1418366594
C   C25       1.0  0.80490  0.52600  0.26120  1.0000 -0.17406955
C   C26       1.0  0.27890  0.80490  0.09453  1.0000 -0.17406955
C   C27       1.0  0.47400  0.27890  0.92787  1.0000 -0.17406955
C   C28       1.0  0.19510  0.47400  0.76120  1.0000 -0.17406955
C   C29       1.0  0.72110  0.19510  0.59453  1.0000 -0.17406955
C   C30       1.0  0.52600  0.72110  0.42787  1.0000 -0.17406955
C   C31       1.0  0.93370  0.58680  0.11510  1.0000 -0.1555919785
C   C32       1.0  0.34690  0.93370  0.94843  1.0000 -0.1555919785
C   C33       1.0  0.41320  0.34690  0.78177  1.0000 -0.1555919785
C   C34       1.0  0.06630  0.41320  0.61510  1.0000 -0.1555919785
C   C35       1.0  0.65310  0.06630  0.44843  1.0000 -0.1555919785
C   C36       1.0  0.58680  0.65310  0.28177  1.0000 -0.1555919785
C   C37       1.0  0.94730  0.46910  0.87120  1.0000 0.5599126156
C   C38       1.0  0.47820  0.94730  0.70453  1.0000 0.5599126156
C   C39       1.0  0.53090  0.47820  0.53787  1.0000 0.5599126156
C   C40       1.0  0.05270  0.53090  0.37120  1.0000 0.5599126156
C   C41       1.0  0.52180  0.05270  0.20453  1.0000 0.5599126156
C   C42       1.0  0.46910  0.52180  0.03787  1.0000 0.5599126156
C   C43       1.0  0.88700  0.45190  0.98760  1.0000 -0.0868683818
C   C44       1.0  0.43510  0.88700  0.82093  1.0000 -0.0868683818
C   C45       1.0  0.54810  0.43510  0.65427  1.0000 -0.0868683818
C   C46       1.0  0.11300  0.54810  0.48760  1.0000 -0.0868683818
C   C47       1.0  0.56490  0.11300  0.32093  1.0000 -0.0868683818
C   C48       1.0  0.45190  0.56490  0.15427  1.0000 -0.0868683818
C   C49       1.0  0.83170  0.35440  0.01770  1.0000 0.1039271167
C   C50       1.0  0.47730  0.83170  0.85103  1.0000 0.1039271167
C   C51       1.0  0.64560  0.47730  0.68437  1.0000 0.1039271167
C   C52       1.0  0.16830  0.64560  0.51770  1.0000 0.1039271167
C   C53       1.0  0.52270  0.16830  0.35103  1.0000 0.1039271167
C   C54       1.0  0.35440  0.52270  0.18437  1.0000 0.1039271167
C   C55       1.0  0.88890  0.31760  0.05870  1.0000 -0.4295670354
C   C56       1.0  0.57130  0.88890  0.89203  1.0000 -0.4295670354
C   C57       1.0  0.68240  0.57130  0.72537  1.0000 -0.4295670354
C   C58       1.0  0.11110  0.68240  0.55870  1.0000 -0.4295670354
C   C59       1.0  0.42870  0.11110  0.39203  1.0000 -0.4295670354
C   C60       1.0  0.31760  0.42870  0.22537  1.0000 -0.4295670354
C   C61       1.0  0.75920  0.33460  0.11210  1.0000 -0.4532537424
C   C62       1.0  0.42460  0.75920  0.94543  1.0000 -0.4532537424
C   C63       1.0  0.66540  0.42460  0.77877  1.0000 -0.4532537424
C   C64       1.0  0.24080  0.66540  0.61210  1.0000 -0.4532537424
C   C65       1.0  0.57540  0.24080  0.44543  1.0000 -0.4532537424
C   C66       1.0  0.33460  0.57540  0.27877  1.0000 -0.4532537424
Br  Br1       1.0  0.13126  0.45179  0.08769  1.0000 -0.5131564998
Br  Br2       1.0  0.67947  0.13126  0.92102  1.0000 -0.5131564998
Br  Br3       1.0  0.54821  0.67947  0.75436  1.0000 -0.5131564998
Br  Br4       1.0  0.86874  0.54821  0.58769  1.0000 -0.5131564998
Br  Br5       1.0  0.32053  0.86874  0.42102  1.0000 -0.5131564998
Br  Br6       1.0  0.45179  0.32053  0.25436  1.0000 -0.5131564998
N   N1        1.0  0.67250  0.51780  0.20380  1.0000 -0.216324147
N   N2        1.0  0.15470  0.67250  0.03713  1.0000 -0.216324147
N   N3        1.0  0.48220  0.15470  0.87047  1.0000 -0.216324147
N   N4        1.0  0.32750  0.48220  0.70380  1.0000 -0.216324147
N   N5        1.0  0.84530  0.32750  0.53713  1.0000 -0.216324147
N   N6        1.0  0.51780  0.84530  0.37047  1.0000 -0.216324147
N   N7        1.0  0.94060  0.50660  0.09690  1.0000 -0.3143264019
N   N8        1.0  0.43400  0.94060  0.93023  1.0000 -0.3150758707
N   N9        1.0  0.49340  0.43400  0.76357  1.0000 -0.3143264019
N   N10       1.0  0.05940  0.49340  0.59690  1.0000 -0.3143264019
N   N11       1.0  0.56600  0.05940  0.43023  1.0000 -0.3143264019
N   N12       1.0  0.50660  0.56600  0.26357  1.0000 -0.3143264019
O   O1        1.0  0.02630  0.51510  0.88200  1.0000 -0.5274685883
O   O2        1.0  0.51120  0.02630  0.71533  1.0000 -0.5274685883
O   O3        1.0  0.48490  0.51120  0.54867  1.0000 -0.5274685883
O   O4        1.0  0.97370  0.48490  0.38200  1.0000 -0.5274685883
O   O5        1.0  0.48880  0.97370  0.21533  1.0000 -0.5274685883
O   O6        1.0  0.51510  0.48880  0.04867  1.0000 -0.5274685883
O   O7        1.0  0.90790  0.42990  0.77200  1.0000 -0.5274685883
O   O8        1.0  0.47800  0.90790  0.60533  1.0000 -0.5274685883
O   O9        1.0  0.57010  0.47800  0.43867  1.0000 -0.5274685883
O   O10       1.0  0.09210  0.57010  0.27200  1.0000 -0.5274685883
O   O11       1.0  0.52200  0.09210  0.10533  1.0000 -0.5274685883
O   O12       1.0  0.42990  0.52200  0.93867  1.0000 -0.5274685883
