# DDEC6 charges by PACMAN v1.1 (https://github.com/mtap-research/PACMAN-charge/)
data_2011[Tb][fit]3[ASR]1
_chemical_formula_sum              "Tb2 H24 C42 N2 O12"
_cell_length_a       8.257
_cell_length_b       13.163
_cell_length_c       14.238
_cell_angle_alpha    114.261
_cell_angle_beta     96.493
_cell_angle_gamma    101.699

_symmetry_space_group_name_H-M    "P 1"
_symmetry_Int_Tables_number       1

loop_
  _symmetry_equiv_pos_as_xyz
  'x, y, z'

loop_
  _atom_site_type_symbol
  _atom_site_label
  _atom_site_symmetry_multiplicity
  _atom_site_fract_x
  _atom_site_fract_y
  _atom_site_fract_z
  _atom_site_occupancy
  _atom_site_charge
Tb  Tb1       1.0  0.26933  0.54978  0.49918  1.0000 2.0905571236
Tb  Tb2       1.0  0.73067  0.45022  0.50082  1.0000 2.0905571236
H   H1        1.0  0.34480  0.43710  0.75520  1.0000 0.1212973883
H   H2        1.0  0.65520  0.56290  0.24480  1.0000 0.1212973883
H   H3        1.0  0.37360  0.33060  0.84750  1.0000 0.1275514989
H   H4        1.0  0.62640  0.66940  0.15250  1.0000 0.1275514989
H   H5        1.0  0.87240  0.22700  0.80320  1.0000 0.1212973883
H   H6        1.0  0.12760  0.77300  0.19680  1.0000 0.1212973883
H   H7        1.0  0.84480  0.33480  0.71260  1.0000 0.1212973883
H   H8        1.0  0.15520  0.66520  0.28740  1.0000 0.1212973883
H   H9        1.0  0.38530  0.17000  0.16470  1.0000 0.1212973883
H   H10       1.0  0.61470  0.83000  0.83530  1.0000 0.1212973883
H   H11       1.0  0.25750  0.09490  0.99030  1.0000 0.1212973883
H   H12       1.0  0.74250  0.90510  0.00970  1.0000 0.1212973883
H   H13       1.0  0.19810  0.40380  0.03510  1.0000 0.1212973883
H   H14       1.0  0.80190  0.59620  0.96490  1.0000 0.1212973883
H   H15       1.0  0.30890  0.47480  0.21180  1.0000 0.1212973883
H   H16       1.0  0.69110  0.52520  0.78820  1.0000 0.1212973883
H   H17       1.0  0.28060  0.87950  0.67790  1.0000 0.1275514989
H   H18       1.0  0.71940  0.12050  0.32210  1.0000 0.1275514989
H   H19       1.0  0.34140  0.07300  0.79130  1.0000 0.1212973883
H   H20       1.0  0.65860  0.92700  0.20870  1.0000 0.1212973883
H   H21       1.0  0.85780  0.03560  0.81830  1.0000 0.1212973883
H   H22       1.0  0.14220  0.96440  0.18170  1.0000 0.1212973883
H   H23       1.0  0.79890  0.84080  0.70100  1.0000 0.1212973883
H   H24       1.0  0.20110  0.15920  0.29900  1.0000 0.1212973883
C   C1        1.0  0.07180  0.46130  0.65920  1.0000 0.6424203171
C   C2        1.0  0.92820  0.53870  0.34080  1.0000 0.6424203171
C   C3        1.0  0.09100  0.39480  0.72280  1.0000 -0.041195463
C   C4        1.0  0.90900  0.60520  0.27720  1.0000 -0.041195463
C   C5        1.0  0.24880  0.39440  0.76440  1.0000 -0.0814590072
C   C6        1.0  0.75120  0.60560  0.23560  1.0000 -0.0814590072
C   C7        1.0  0.26610  0.33070  0.82000  1.0000 -0.1907221125
C   C8        1.0  0.73390  0.66930  0.18000  1.0000 -0.1907221125
C   C9        1.0  0.12620  0.26800  0.83490  1.0000 0.167138706
C   C10       1.0  0.87380  0.73200  0.16510  1.0000 0.167138706
C   C11       1.0  0.96860  0.26940  0.79390  1.0000 -0.1822098242
C   C12       1.0  0.03140  0.73060  0.20610  1.0000 -0.1822098242
C   C13       1.0  0.95220  0.33350  0.73900  1.0000 -0.0879211751
C   C14       1.0  0.04780  0.66650  0.26100  1.0000 -0.0879211751
C   C15       1.0  0.44850  0.37920  0.32200  1.0000 0.6146002067
C   C16       1.0  0.55150  0.62080  0.67800  1.0000 0.6146002067
C   C17       1.0  0.36410  0.33200  0.20750  1.0000 -0.0279802242
C   C18       1.0  0.63590  0.66800  0.79250  1.0000 -0.0279802242
C   C19       1.0  0.34630  0.21730  0.13920  1.0000 -0.0814590072
C   C20       1.0  0.65370  0.78270  0.86080  1.0000 -0.0814590072
C   C21       1.0  0.27160  0.17280  0.03430  1.0000 -0.2018273146
C   C22       1.0  0.72840  0.82720  0.96570  1.0000 -0.2018273146
C   C23       1.0  0.21680  0.24120  0.99250  1.0000 0.186298783
C   C24       1.0  0.78320  0.75880  0.00750  1.0000 0.1849714918
C   C25       1.0  0.23380  0.35570  0.06090  1.0000 -0.1907221125
C   C26       1.0  0.76620  0.64430  0.93910  1.0000 -0.1907221125
C   C27       1.0  0.30310  0.39860  0.16660  1.0000 -0.0879211751
C   C28       1.0  0.69690  0.60140  0.83340  1.0000 -0.0879211751
C   C29       1.0  0.99370  0.71240  0.60910  1.0000 0.6519403113
C   C30       1.0  0.00630  0.28760  0.39090  1.0000 0.6519403113
C   C31       1.0  0.03490  0.84030  0.68010  1.0000 -0.041195463
C   C32       1.0  0.96510  0.15970  0.31990  1.0000 -0.0452760244
C   C33       1.0  0.19540  0.91020  0.70610  1.0000 -0.0814590072
C   C34       1.0  0.80460  0.08980  0.29390  1.0000 -0.0814590072
C   C35       1.0  0.23140  0.02590  0.77390  1.0000 -0.1907221125
C   C36       1.0  0.76860  0.97410  0.22610  1.0000 -0.1907221125
C   C37       1.0  0.10640  0.07350  0.81660  1.0000 0.167138706
C   C38       1.0  0.89360  0.92650  0.18340  1.0000 0.167138706
C   C39       1.0  0.94320  0.00490  0.79040  1.0000 -0.1907221125
C   C40       1.0  0.05680  0.99510  0.20960  1.0000 -0.1907221125
C   C41       1.0  0.90930  0.88800  0.72070  1.0000 -0.0814590072
C   C42       1.0  0.09070  0.11200  0.27930  1.0000 -0.0814590072
N   N1        1.0  0.14110  0.19510  0.88480  1.0000 -0.1907221125
N   N2        1.0  0.85890  0.80490  0.11520  1.0000 -0.1907221125
O   O1        1.0  0.19670  0.49540  0.62810  1.0000 -0.6382270502
O   O2        1.0  0.80330  0.50460  0.37190  1.0000 -0.6382270502
O   O3        1.0  0.92960  0.47590  0.64160  1.0000 -0.6716199862
O   O4        1.0  0.07040  0.52410  0.35840  1.0000 -0.6716199862
O   O5        1.0  0.44800  0.47840  0.38680  1.0000 -0.7198572801
O   O6        1.0  0.55200  0.52160  0.61320  1.0000 -0.7198572801
O   O7        1.0  0.51960  0.31540  0.34740  1.0000 -0.6382270502
O   O8        1.0  0.48040  0.68460  0.65260  1.0000 -0.6382270502
O   O9        1.0  0.11320  0.67270  0.57540  1.0000 -0.7124598967
O   O10       1.0  0.88680  0.32730  0.42460  1.0000 -0.7124598967
O   O11       1.0  0.84060  0.65410  0.58670  1.0000 -0.6559149967
O   O12       1.0  0.15940  0.34590  0.41330  1.0000 -0.6548422323
