# DDEC6 charges by PACMAN v1.1 (https://github.com/mtap-research/PACMAN-charge/)
data_2011[Er][nan]3[ASR]2
_chemical_formula_sum              "Er2 H24 C24 N6 O18"
_cell_length_a       7.8529
_cell_length_b       12.186
_cell_length_c       13.2217
_cell_angle_alpha    112.156
_cell_angle_beta     105.457
_cell_angle_gamma    91.541

_symmetry_space_group_name_H-M    "P 1"
_symmetry_Int_Tables_number       1

loop_
  _symmetry_equiv_pos_as_xyz
  'x, y, z'

loop_
  _atom_site_type_symbol
  _atom_site_label
  _atom_site_symmetry_multiplicity
  _atom_site_fract_x
  _atom_site_fract_y
  _atom_site_fract_z
  _atom_site_occupancy
  _atom_site_charge
Er  Er1       1.0  0.25030  0.01855  0.98926  1.0000 2.0713892674
Er  Er2       1.0  0.74970  0.98145  0.01074  1.0000 2.0713892674
H   H1        1.0  0.92320  0.84630  0.58470  1.0000 0.1103470216
H   H2        1.0  0.07680  0.15370  0.41530  1.0000 0.1103470216
H   H3        1.0  0.93200  0.72500  0.60000  1.0000 0.1103470216
H   H4        1.0  0.06800  0.27500  0.40000  1.0000 0.1103470216
H   H5        1.0  0.73810  0.77130  0.70750  1.0000 0.1494608393
H   H6        1.0  0.26190  0.22870  0.29250  1.0000 0.1494608393
H   H7        1.0  0.70230  0.88580  0.68180  1.0000 0.1494608393
H   H8        1.0  0.29770  0.11420  0.31820  1.0000 0.1494608393
H   H9        1.0  0.40610  0.88450  0.31810  1.0000 0.1187620556
H   H10       1.0  0.59390  0.11550  0.68190  1.0000 0.1187620556
H   H11       1.0  0.30520  0.76780  0.21200  1.0000 0.1103470216
H   H12       1.0  0.69480  0.23220  0.78800  1.0000 0.1103470216
H   H13       1.0  0.55190  0.75790  0.14160  1.0000 0.1570580846
H   H14       1.0  0.44810  0.24210  0.85840  1.0000 0.1570580846
H   H15       1.0  0.64880  0.87660  0.24650  1.0000 0.1570580846
H   H16       1.0  0.35120  0.12340  0.75350  1.0000 0.1570580846
H   H17       1.0  0.38010  0.39490  0.22160  1.0000 0.1103470216
H   H18       1.0  0.61990  0.60510  0.77840  1.0000 0.1103470216
H   H19       1.0  0.48870  0.38750  0.33670  1.0000 0.1042237824
H   H20       1.0  0.51130  0.61250  0.66330  1.0000 0.1042237824
H   H21       1.0  0.65360  0.40410  0.17680  1.0000 0.1494608393
H   H22       1.0  0.34640  0.59590  0.82320  1.0000 0.1494608393
H   H23       1.0  0.74910  0.38150  0.28590  1.0000 0.1494608393
H   H24       1.0  0.25090  0.61850  0.71410  1.0000 0.1494608393
C   C1        1.0  0.66040  0.60130  0.44130  1.0000 0.5340822434
C   C2        1.0  0.33960  0.39870  0.55870  1.0000 0.5340822434
C   C3        1.0  0.63380  0.79480  0.42750  1.0000 0.5340822434
C   C4        1.0  0.36620  0.20520  0.57250  1.0000 0.5340822434
C   C5        1.0  0.46300  0.61290  0.27000  1.0000 0.5340822434
C   C6        1.0  0.53700  0.38710  0.73000  1.0000 0.5340822434
C   C7        1.0  0.85390  0.78300  0.59040  1.0000 -0.0295489381
C   C8        1.0  0.14610  0.21700  0.40960  1.0000 -0.0295489381
C   C9        1.0  0.79190  0.83520  0.69410  1.0000 -0.3401804074
C   C10       1.0  0.20810  0.16480  0.30590  1.0000 -0.3401804074
C   C11       1.0  0.94650  0.90760  0.79690  1.0000 0.6718792414
C   C12       1.0  0.05350  0.09240  0.20310  1.0000 0.6718792414
C   C13       1.0  0.42220  0.80910  0.26300  1.0000 -0.0295489381
C   C14       1.0  0.57780  0.19090  0.73700  1.0000 -0.0295489381
C   C15       1.0  0.53300  0.83340  0.19510  1.0000 -0.3401804074
C   C16       1.0  0.46700  0.16660  0.80490  1.0000 -0.3401804074
C   C17       1.0  0.44600  0.90530  0.12990  1.0000 0.6898363626
C   C18       1.0  0.55400  0.09470  0.87010  1.0000 0.6898363626
C   C19       1.0  0.49530  0.41810  0.27980  1.0000 -0.0350042337
C   C20       1.0  0.50470  0.58190  0.72020  1.0000 -0.0350042337
C   C21       1.0  0.63710  0.36500  0.22590  1.0000 -0.3401804074
C   C22       1.0  0.36290  0.63500  0.77410  1.0000 -0.3401804074
C   C23       1.0  0.59390  0.23160  0.15640  1.0000 0.6898363626
C   C24       1.0  0.40610  0.76840  0.84360  1.0000 0.6898363626
N   N1        1.0  0.53690  0.54970  0.33410  1.0000 -0.2412801625
N   N2        1.0  0.46310  0.45030  0.66590  1.0000 -0.2412801625
N   N3        1.0  0.70820  0.72420  0.48320  1.0000 -0.2412801625
N   N4        1.0  0.29180  0.27580  0.51680  1.0000 -0.2412801625
N   N5        1.0  0.50610  0.73590  0.32410  1.0000 -0.2622228616
N   N6        1.0  0.49390  0.26410  0.67590  1.0000 -0.2622228616
O   O1        1.0  0.07630  0.95750  0.78570  1.0000 -0.5908351147
O   O2        1.0  0.92370  0.04250  0.21430  1.0000 -0.5908351147
O   O3        1.0  0.94460  0.91360  0.89600  1.0000 -0.7765653336
O   O4        1.0  0.05540  0.08640  0.10400  1.0000 -0.7765653336
O   O5        1.0  0.44230  0.18100  0.13930  1.0000 -0.6632642651
O   O6        1.0  0.55770  0.81900  0.86070  1.0000 -0.6632642651
O   O7        1.0  0.71760  0.18140  0.11960  1.0000 -0.6632642651
O   O8        1.0  0.28240  0.81860  0.88040  1.0000 -0.6632642651
O   O9        1.0  0.53550  0.95000  0.08520  1.0000 -0.7542702461
O   O10       1.0  0.46450  0.05000  0.91480  1.0000 -0.7542702461
O   O11       1.0  0.28590  0.91910  0.11890  1.0000 -0.5908351147
O   O12       1.0  0.71410  0.08090  0.88110  1.0000 -0.5908351147
O   O13       1.0  0.36250  0.56360  0.17350  1.0000 -0.4594964289
O   O14       1.0  0.63750  0.43640  0.82650  1.0000 -0.4594964289
O   O15       1.0  0.72480  0.54280  0.49430  1.0000 -0.4772041047
O   O16       1.0  0.27520  0.45720  0.50570  1.0000 -0.4772041047
O   O17       1.0  0.67720  0.90220  0.46900  1.0000 -0.466360023
O   O18       1.0  0.32280  0.09780  0.53100  1.0000 -0.466360023
