# DDEC6 charges by PACMAN v1.1 (https://github.com/mtap-research/PACMAN-charge/)
data_2011[Sc][bpq]3[ASR]1
_chemical_formula_sum              "Sc4 H20 C32 O20"
_cell_length_a       7.3013
_cell_length_b       9.1802
_cell_length_c       19.344
_cell_angle_alpha    90
_cell_angle_beta     90
_cell_angle_gamma    90

_symmetry_space_group_name_H-M    "P 1"
_symmetry_Int_Tables_number       1

loop_
  _symmetry_equiv_pos_as_xyz
  'x, y, z'

loop_
  _atom_site_type_symbol
  _atom_site_label
  _atom_site_symmetry_multiplicity
  _atom_site_fract_x
  _atom_site_fract_y
  _atom_site_fract_z
  _atom_site_occupancy
  _atom_site_charge
Sc  Sc1       1.0  0.35390  0.49560  0.50050  1.0000 1.7961717193
Sc  Sc2       1.0  0.85390  0.50440  0.49950  1.0000 1.7961717193
Sc  Sc3       1.0  0.35390  0.00440  0.00050  1.0000 1.7961717193
Sc  Sc4       1.0  0.85390  0.99560  0.99950  1.0000 1.7961717193
H   H1        1.0  0.87210  0.76100  0.31210  1.0000 0.1278749649
H   H2        1.0  0.37210  0.23900  0.68790  1.0000 0.1278749649
H   H3        1.0  0.87210  0.73900  0.81210  1.0000 0.1278749649
H   H4        1.0  0.37210  0.26100  0.18790  1.0000 0.1278749649
H   H5        1.0  0.86810  0.83030  0.19720  1.0000 0.1204806412
H   H6        1.0  0.36810  0.16970  0.80280  1.0000 0.1204806412
H   H7        1.0  0.86810  0.66970  0.69720  1.0000 0.1204806412
H   H8        1.0  0.36810  0.33030  0.30280  1.0000 0.1204806412
H   H9        1.0  0.33540  0.72470  0.17900  1.0000 0.1204806412
H   H10       1.0  0.83540  0.27530  0.82100  1.0000 0.1204806412
H   H11       1.0  0.33540  0.77530  0.67900  1.0000 0.1204806412
H   H12       1.0  0.83540  0.22470  0.32100  1.0000 0.1204806412
H   H13       1.0  0.33680  0.64100  0.29500  1.0000 0.1204806412
H   H14       1.0  0.83680  0.35900  0.70500  1.0000 0.1204806412
H   H15       1.0  0.33680  0.85900  0.79500  1.0000 0.1204806412
H   H16       1.0  0.83680  0.14100  0.20500  1.0000 0.1204806412
H   H17       1.0  0.65400  0.33800  0.46900  1.0000 0.409947509
H   H18       1.0  0.15400  0.66200  0.53100  1.0000 0.409947509
H   H19       1.0  0.65400  0.16200  0.96900  1.0000 0.409947509
H   H20       1.0  0.15400  0.83800  0.03100  1.0000 0.409947509
C   C1        1.0  0.59860  0.63990  0.38770  1.0000 0.624351943
C   C2        1.0  0.09860  0.36010  0.61230  1.0000 0.624351943
C   C3        1.0  0.59860  0.86010  0.88770  1.0000 0.624351943
C   C4        1.0  0.09860  0.13990  0.11230  1.0000 0.624351943
C   C5        1.0  0.60410  0.69050  0.31280  1.0000 -0.0103434677
C   C6        1.0  0.10410  0.30950  0.68720  1.0000 -0.0103434677
C   C7        1.0  0.60410  0.80950  0.81280  1.0000 -0.0103434677
C   C8        1.0  0.10410  0.19050  0.18720  1.0000 -0.0103434677
C   C9        1.0  0.76450  0.75030  0.28500  1.0000 -0.108447438
C   C10       1.0  0.26450  0.24970  0.71500  1.0000 -0.108447438
C   C11       1.0  0.76450  0.74970  0.78500  1.0000 -0.108447438
C   C12       1.0  0.26450  0.25030  0.21500  1.0000 -0.108447438
C   C13       1.0  0.75960  0.79240  0.21760  1.0000 -0.108447438
C   C14       1.0  0.25960  0.20760  0.78240  1.0000 -0.108447438
C   C15       1.0  0.75960  0.70760  0.71760  1.0000 -0.108447438
C   C16       1.0  0.25960  0.29240  0.28240  1.0000 -0.108447438
C   C17       1.0  0.59760  0.78190  0.17590  1.0000 -0.0400737355
C   C18       1.0  0.09760  0.21810  0.82410  1.0000 -0.0400737355
C   C19       1.0  0.59760  0.71810  0.67590  1.0000 -0.0400737355
C   C20       1.0  0.09760  0.28190  0.32410  1.0000 -0.0400737355
C   C21       1.0  0.44520  0.72930  0.20520  1.0000 -0.0910831223
C   C22       1.0  0.94520  0.27070  0.79480  1.0000 -0.0910831223
C   C23       1.0  0.44520  0.77070  0.70520  1.0000 -0.0910831223
C   C24       1.0  0.94520  0.22930  0.29480  1.0000 -0.0910831223
C   C25       1.0  0.44480  0.68020  0.27490  1.0000 -0.1176485176
C   C26       1.0  0.94480  0.31980  0.72510  1.0000 -0.1176485176
C   C27       1.0  0.44480  0.81980  0.77490  1.0000 -0.1176485176
C   C28       1.0  0.94480  0.18020  0.22510  1.0000 -0.1176485176
C   C29       1.0  0.59590  0.82950  0.10310  1.0000 0.629284138
C   C30       1.0  0.09590  0.17050  0.89690  1.0000 0.629284138
C   C31       1.0  0.59590  0.67050  0.60310  1.0000 0.629284138
C   C32       1.0  0.09590  0.32950  0.39690  1.0000 0.629284138
O   O1        1.0  0.44860  0.61300  0.41450  1.0000 -0.5992248113
O   O2        1.0  0.94860  0.38700  0.58550  1.0000 -0.5992248113
O   O3        1.0  0.44860  0.88700  0.91450  1.0000 -0.5992248113
O   O4        1.0  0.94860  0.11300  0.08550  1.0000 -0.5992248113
O   O5        1.0  0.75300  0.62770  0.41750  1.0000 -0.6318154092
O   O6        1.0  0.25300  0.37230  0.58250  1.0000 -0.6318154092
O   O7        1.0  0.75300  0.87230  0.91750  1.0000 -0.6318154092
O   O8        1.0  0.25300  0.12770  0.08250  1.0000 -0.6318154092
O   O9        1.0  0.75320  0.84510  0.07340  1.0000 -0.6318154092
O   O10       1.0  0.25320  0.15490  0.92660  1.0000 -0.6318154092
O   O11       1.0  0.75320  0.65490  0.57340  1.0000 -0.6318154092
O   O12       1.0  0.25320  0.34510  0.42660  1.0000 -0.6318154092
O   O13       1.0  0.44970  0.84970  0.07400  1.0000 -0.5992248113
O   O14       1.0  0.94970  0.15030  0.92600  1.0000 -0.5992248113
O   O15       1.0  0.44970  0.65030  0.57400  1.0000 -0.5992248113
O   O16       1.0  0.94970  0.34970  0.42600  1.0000 -0.5992248113
O   O17       1.0  0.60990  0.39330  0.50840  1.0000 -1.0109480376
O   O18       1.0  0.10990  0.60670  0.49160  1.0000 -1.0109480376
O   O19       1.0  0.60990  0.10670  0.00840  1.0000 -1.0109480376
O   O20       1.0  0.10990  0.89330  0.99160  1.0000 -1.0109480376
