# DDEC6 charges by PACMAN v1.1 (https://github.com/mtap-research/PACMAN-charge/)
data_2011[Cu][nan]3[ASR]6
_chemical_formula_sum              "Cu8 P16 H8 C8 S12 N4 Cl8"
_cell_length_a       19.0899
_cell_length_b       11.1224
_cell_length_c       6.1748
_cell_angle_alpha    90
_cell_angle_beta     94.074
_cell_angle_gamma    90

_symmetry_space_group_name_H-M    "P 1"
_symmetry_Int_Tables_number       1

loop_
  _symmetry_equiv_pos_as_xyz
  'x, y, z'

loop_
  _atom_site_type_symbol
  _atom_site_label
  _atom_site_symmetry_multiplicity
  _atom_site_fract_x
  _atom_site_fract_y
  _atom_site_fract_z
  _atom_site_occupancy
  _atom_site_charge
Cu  Cu1       1.0  0.34366  0.14543  0.36992  1.0000 0.2832531379
Cu  Cu2       1.0  0.65634  0.85457  0.63008  1.0000 0.2832531379
Cu  Cu3       1.0  0.65634  0.64543  0.13008  1.0000 0.2832531379
Cu  Cu4       1.0  0.34366  0.35457  0.86992  1.0000 0.2832531379
Cu  Cu5       1.0  0.99636  0.85452  0.21682  1.0000 0.3212980376
Cu  Cu6       1.0  0.00364  0.14548  0.78318  1.0000 0.3212980376
Cu  Cu7       1.0  0.00364  0.35452  0.28318  1.0000 0.3212980376
Cu  Cu8       1.0  0.99636  0.64548  0.71682  1.0000 0.3212980376
P   P1        1.0  0.24995  0.05646  0.46163  1.0000 0.1184593485
P   P2        1.0  0.75005  0.94354  0.53837  1.0000 0.1184593485
P   P3        1.0  0.75006  0.55646  0.03837  1.0000 0.1184593485
P   P4        1.0  0.24994  0.44354  0.96163  1.0000 0.1184593485
P   P5        1.0  0.09729  0.92789  0.37747  1.0000 0.0316333049
P   P6        1.0  0.90271  0.07211  0.62253  1.0000 0.0316333049
P   P7        1.0  0.90271  0.42789  0.12253  1.0000 0.0316333049
P   P8        1.0  0.09729  0.57211  0.87747  1.0000 0.0316333049
P   P9        1.0  0.14953  0.85990  0.69697  1.0000 0.1648415373
P   P10       1.0  0.85047  0.14010  0.30303  1.0000 0.1661184079
P   P11       1.0  0.85047  0.35990  0.80303  1.0000 0.1661184079
P   P12       1.0  0.14953  0.64010  0.19697  1.0000 0.1661184079
P   P13       1.0  0.09793  0.04892  0.66513  1.0000 0.0503157709
P   P14       1.0  0.90207  0.95108  0.33487  1.0000 0.0422327658
P   P15       1.0  0.90207  0.54892  0.83487  1.0000 0.0422327658
P   P16       1.0  0.09793  0.45108  0.16513  1.0000 0.0503157709
H   H1        1.0  0.42908  0.95272  0.16450  1.0000 0.0874617444
H   H2        1.0  0.57092  0.04728  0.83550  1.0000 0.0874617444
H   H3        1.0  0.57092  0.45272  0.33550  1.0000 0.0874617444
H   H4        1.0  0.42908  0.54728  0.66450  1.0000 0.0874617444
H   H5        1.0  0.45846  0.15630  0.73984  1.0000 0.0874617444
H   H6        1.0  0.54154  0.84370  0.26016  1.0000 0.0874617444
H   H7        1.0  0.54154  0.65630  0.76016  1.0000 0.0874617444
H   H8        1.0  0.45846  0.34370  0.23984  1.0000 0.0874617444
C   C1        1.0  0.46045  0.97441  0.31470  1.0000 0.0316333049
C   C2        1.0  0.53955  0.02559  0.68530  1.0000 0.0316333049
C   C3        1.0  0.53955  0.47441  0.18530  1.0000 0.0316333049
C   C4        1.0  0.46045  0.52559  0.81470  1.0000 0.0316333049
C   C5        1.0  0.47697  0.08700  0.63025  1.0000 0.0503157709
C   C6        1.0  0.52303  0.91300  0.36975  1.0000 0.0503157709
C   C7        1.0  0.52302  0.58700  0.86975  1.0000 0.0503157709
C   C8        1.0  0.47698  0.41300  0.13025  1.0000 0.0503157709
S   S1        1.0  0.18109  0.99255  0.20299  1.0000 -0.0631281995
S   S2        1.0  0.81891  0.00745  0.79701  1.0000 -0.0631281995
S   S3        1.0  0.81891  0.49255  0.29701  1.0000 -0.0631281995
S   S4        1.0  0.18109  0.50745  0.70299  1.0000 -0.0631281995
S   S5        1.0  0.25573  0.90030  0.66373  1.0000 -0.0456489036
S   S6        1.0  0.74427  0.09970  0.33627  1.0000 -0.0434127926
S   S7        1.0  0.74427  0.40030  0.83627  1.0000 -0.0434127926
S   S8        1.0  0.25573  0.59970  0.16373  1.0000 -0.0456489036
S   S9        1.0  0.18138  0.16682  0.62566  1.0000 -0.0335803889
S   S10       1.0  0.81862  0.83318  0.37434  1.0000 -0.0335803889
S   S11       1.0  0.81862  0.66682  0.87434  1.0000 -0.0335803889
S   S12       1.0  0.18138  0.33318  0.12566  1.0000 -0.0335803889
N   N1        1.0  0.43699  0.06258  0.44536  1.0000 -0.1775382972
N   N2        1.0  0.56301  0.93742  0.55464  1.0000 -0.1775382972
N   N3        1.0  0.56301  0.56258  0.05464  1.0000 -0.1775382972
N   N4        1.0  0.43699  0.43742  0.94536  1.0000 -0.1775382972
Cl  Cl1       1.0  0.34869  0.34548  0.48448  1.0000 -0.4692749633
Cl  Cl2       1.0  0.65131  0.65452  0.51552  1.0000 -0.4692749633
Cl  Cl3       1.0  0.65131  0.84548  0.01552  1.0000 -0.4692749633
Cl  Cl4       1.0  0.34869  0.15452  0.98448  1.0000 -0.4692749633
Cl  Cl5       1.0  0.98863  0.84243  0.83857  1.0000 -0.4364997997
Cl  Cl6       1.0  0.01137  0.15757  0.16143  1.0000 -0.43457451
Cl  Cl7       1.0  0.01137  0.34243  0.66143  1.0000 -0.43457451
Cl  Cl8       1.0  0.98863  0.65757  0.33857  1.0000 -0.4364997997
