# DDEC6 charges by PACMAN v1.1 (https://github.com/mtap-research/PACMAN-charge/)
data_2011[Eu][flu]3[ASR]1
_chemical_formula_sum              "Eu2 H14 C30 O14"
_cell_length_a       9.341
_cell_length_b       9.849
_cell_length_c       11.422
_cell_angle_alpha    94.076
_cell_angle_beta     98.577
_cell_angle_gamma    110.927

_symmetry_space_group_name_H-M    "P 1"
_symmetry_Int_Tables_number       1

loop_
  _symmetry_equiv_pos_as_xyz
  'x, y, z'

loop_
  _atom_site_type_symbol
  _atom_site_label
  _atom_site_symmetry_multiplicity
  _atom_site_fract_x
  _atom_site_fract_y
  _atom_site_fract_z
  _atom_site_occupancy
  _atom_site_charge
Eu  Eu1       1.0  0.28199  0.54536  0.98529  1.0000 2.0875559129
Eu  Eu2       1.0  0.71801  0.45464  0.01471  1.0000 2.0875559129
H   H1        1.0  0.93450  0.39580  0.57710  1.0000 0.1144383602
H   H2        1.0  0.06550  0.60420  0.42290  1.0000 0.1144383602
H   H3        1.0  0.84560  0.27150  0.38410  1.0000 0.1498644106
H   H4        1.0  0.15440  0.72850  0.61590  1.0000 0.1498644106
H   H5        1.0  0.17710  0.10220  0.43140  1.0000 0.1286106981
H   H6        1.0  0.82290  0.89780  0.56860  1.0000 0.1286106981
H   H7        1.0  0.26870  0.22690  0.61970  1.0000 0.1199076004
H   H8        1.0  0.73130  0.77310  0.38030  1.0000 0.1199076004
H   H9        1.0  0.92040  0.86100  0.16460  1.0000 0.1420023716
H   H10       1.0  0.07960  0.13900  0.83540  1.0000 0.1420023716
H   H11       1.0  0.32050  0.99700  0.03810  1.0000 0.1420023716
H   H12       1.0  0.67950  0.00300  0.96190  1.0000 0.1420023716
H   H13       1.0  0.19590  0.28810  0.22070  1.0000 0.1420023716
H   H14       1.0  0.80410  0.71190  0.77930  1.0000 0.1420023716
C   C1        1.0  0.17570  0.41170  0.74000  1.0000 0.5599226034
C   C2        1.0  0.82430  0.58830  0.26000  1.0000 0.5599226034
C   C3        1.0  0.11410  0.32740  0.61960  1.0000 -0.0529809226
C   C4        1.0  0.88590  0.67260  0.38040  1.0000 -0.0529809226
C   C5        1.0  0.98490  0.33840  0.54760  1.0000 -0.0742963277
C   C6        1.0  0.01510  0.66160  0.45240  1.0000 -0.0742963277
C   C7        1.0  0.93120  0.26340  0.43190  1.0000 -0.199808503
C   C8        1.0  0.06880  0.73660  0.56810  1.0000 -0.199808503
C   C9        1.0  0.00350  0.17880  0.38880  1.0000 0.2396001843
C   C10       1.0  0.99650  0.82120  0.61120  1.0000 0.2451356031
C   C11       1.0  0.13000  0.16290  0.46040  1.0000 -0.2187028848
C   C12       1.0  0.87000  0.83710  0.53960  1.0000 -0.2187028848
C   C13       1.0  0.18360  0.23680  0.57270  1.0000 -0.0632342458
C   C14       1.0  0.81640  0.76320  0.42730  1.0000 -0.0632342458
C   C15       1.0  0.04710  0.07870  0.20790  1.0000 0.2396001843
C   C16       1.0  0.95290  0.92130  0.79210  1.0000 0.2396001843
C   C17       1.0  0.01120  0.93590  0.15560  1.0000 -0.1908032992
C   C18       1.0  0.98880  0.06410  0.84440  1.0000 -0.1908032992
C   C19       1.0  0.11200  0.90670  0.09010  1.0000 -0.0090820612
C   C20       1.0  0.88800  0.09330  0.90990  1.0000 -0.0090820612
C   C21       1.0  0.24960  0.01830  0.07790  1.0000 -0.1212643706
C   C22       1.0  0.75040  0.98170  0.92210  1.0000 -0.1212643706
C   C23       1.0  0.27980  0.16200  0.12580  1.0000 -0.0090820612
C   C24       1.0  0.72020  0.83800  0.87420  1.0000 -0.0090820612
C   C25       1.0  0.17710  0.19210  0.19000  1.0000 -0.2187028848
C   C26       1.0  0.82290  0.80790  0.81000  1.0000 -0.2187028848
C   C27       1.0  0.07760  0.75300  0.03270  1.0000 0.6516146339
C   C28       1.0  0.92240  0.24700  0.96730  1.0000 0.6516146339
C   C29       1.0  0.42010  0.28200  0.10240  1.0000 0.6225983776
C   C30       1.0  0.57990  0.71800  0.89760  1.0000 0.6225983776
O   O1        1.0  0.28480  0.38980  0.80800  1.0000 -0.6579342507
O   O2        1.0  0.71520  0.61020  0.19200  1.0000 -0.6579342507
O   O3        1.0  0.12060  0.50300  0.77740  1.0000 -0.6200322233
O   O4        1.0  0.87940  0.49700  0.22260  1.0000 -0.6200322233
O   O5        1.0  0.18260  0.72930  0.98930  1.0000 -0.6579342507
O   O6        1.0  0.81740  0.27070  0.01070  1.0000 -0.6579342507
O   O7        1.0  0.94500  0.65900  0.03180  1.0000 -0.6937278532
O   O8        1.0  0.05500  0.34100  0.96820  1.0000 -0.6937278532
O   O9        1.0  0.54710  0.26190  0.11120  1.0000 -0.6200322233
O   O10       1.0  0.45290  0.73810  0.88880  1.0000 -0.6200322233
O   O11       1.0  0.41010  0.39950  0.07450  1.0000 -0.7242704951
O   O12       1.0  0.58990  0.60050  0.92550  1.0000 -0.7242704951
O   O13       1.0  0.94370  0.10510  0.27380  1.0000 -0.210598933
O   O14       1.0  0.05630  0.89490  0.72620  1.0000 -0.210598933
