# DDEC6 charges by PACMAN v1.1 (https://github.com/mtap-research/PACMAN-charge/)
data_2011[Zn][srs]3[ASR]7
_chemical_formula_sum              "Zn24 H192 C288 I48 N96"
_cell_length_a       13.785
_cell_length_b       27.11
_cell_length_c       45.814
_cell_angle_alpha    90
_cell_angle_beta     90
_cell_angle_gamma    90

_symmetry_space_group_name_H-M    "P 1"
_symmetry_Int_Tables_number       1

loop_
  _symmetry_equiv_pos_as_xyz
  'x, y, z'

loop_
  _atom_site_type_symbol
  _atom_site_label
  _atom_site_symmetry_multiplicity
  _atom_site_fract_x
  _atom_site_fract_y
  _atom_site_fract_z
  _atom_site_occupancy
  _atom_site_charge
Zn  Zn1       1.0  0.65442  0.24344  0.68866  1.0000 0.4709565651
Zn  Zn2       1.0  0.34558  0.25656  0.18866  1.0000 0.4709565651
Zn  Zn3       1.0  0.15442  0.75656  0.81134  1.0000 0.4709565651
Zn  Zn4       1.0  0.84558  0.74344  0.31134  1.0000 0.4709565651
Zn  Zn5       1.0  0.35688  0.96729  0.91689  1.0000 0.4480311763
Zn  Zn6       1.0  0.64312  0.53271  0.41689  1.0000 0.4480311763
Zn  Zn7       1.0  0.85688  0.03271  0.58311  1.0000 0.4480311763
Zn  Zn8       1.0  0.14312  0.46729  0.08311  1.0000 0.4480311763
Zn  Zn9       1.0  0.35381  0.44897  0.92599  1.0000 0.4442548415
Zn  Zn10      1.0  0.64619  0.05103  0.42599  1.0000 0.4480311763
Zn  Zn11      1.0  0.85381  0.55103  0.57401  1.0000 0.4442548415
Zn  Zn12      1.0  0.14619  0.94897  0.07401  1.0000 0.4442548415
Zn  Zn13      1.0  0.34558  0.75656  0.31134  1.0000 0.4709565651
Zn  Zn14      1.0  0.65442  0.74344  0.81134  1.0000 0.4709565651
Zn  Zn15      1.0  0.84558  0.24344  0.18866  1.0000 0.4709565651
Zn  Zn16      1.0  0.15442  0.25656  0.68866  1.0000 0.4709565651
Zn  Zn17      1.0  0.64312  0.03271  0.08311  1.0000 0.4480311763
Zn  Zn18      1.0  0.35688  0.46729  0.58311  1.0000 0.4480311763
Zn  Zn19      1.0  0.14312  0.96729  0.41689  1.0000 0.4480311763
Zn  Zn20      1.0  0.85688  0.53271  0.91689  1.0000 0.4480311763
Zn  Zn21      1.0  0.64619  0.55103  0.07401  1.0000 0.4442548415
Zn  Zn22      1.0  0.35381  0.94897  0.57401  1.0000 0.4442548415
Zn  Zn23      1.0  0.14619  0.44897  0.42599  1.0000 0.4442548415
Zn  Zn24      1.0  0.85381  0.05103  0.92599  1.0000 0.4480311763
H   H1        1.0  0.55620  0.30460  0.73340  1.0000 0.1094945563
H   H2        1.0  0.44380  0.19540  0.23340  1.0000 0.1094945563
H   H3        1.0  0.05620  0.69540  0.76660  1.0000 0.1094945563
H   H4        1.0  0.94380  0.80460  0.26660  1.0000 0.1094945563
H   H5        1.0  0.49950  0.29720  0.78190  1.0000 0.1320861211
H   H6        1.0  0.50050  0.20280  0.28190  1.0000 0.1320861211
H   H7        1.0  0.99950  0.70280  0.71810  1.0000 0.1320861211
H   H8        1.0  0.00050  0.79720  0.21810  1.0000 0.1320861211
H   H9        1.0  0.51050  0.14890  0.77180  1.0000 0.1381197903
H   H10       1.0  0.48950  0.35110  0.27180  1.0000 0.1381197903
H   H11       1.0  0.01050  0.85110  0.72820  1.0000 0.1381197903
H   H12       1.0  0.98950  0.64890  0.22820  1.0000 0.1381197903
H   H13       1.0  0.58030  0.16000  0.72730  1.0000 0.1175881603
H   H14       1.0  0.41970  0.34000  0.22730  1.0000 0.1175881603
H   H15       1.0  0.08030  0.84000  0.77270  1.0000 0.1175881603
H   H16       1.0  0.91970  0.66000  0.27270  1.0000 0.1175881603
H   H17       1.0  0.39390  0.00350  0.85560  1.0000 0.1094945563
H   H18       1.0  0.60610  0.49650  0.35560  1.0000 0.1094945563
H   H19       1.0  0.89390  0.99650  0.64440  1.0000 0.1094945563
H   H20       1.0  0.10610  0.50350  0.14440  1.0000 0.1094945563
H   H21       1.0  0.42390  0.07810  0.83050  1.0000 0.1381197903
H   H22       1.0  0.57610  0.42190  0.33050  1.0000 0.1381197903
H   H23       1.0  0.92390  0.92190  0.66950  1.0000 0.1381197903
H   H24       1.0  0.07610  0.57810  0.16950  1.0000 0.1381197903
H   H25       1.0  0.42260  0.14690  0.90760  1.0000 0.1320861211
H   H26       1.0  0.57740  0.35310  0.40760  1.0000 0.1320861211
H   H27       1.0  0.92260  0.85310  0.59240  1.0000 0.1320861211
H   H28       1.0  0.07740  0.64690  0.09240  1.0000 0.1320861211
H   H29       1.0  0.39400  0.07320  0.93100  1.0000 0.1094945563
H   H30       1.0  0.60600  0.42680  0.43100  1.0000 0.1094945563
H   H31       1.0  0.89400  0.92680  0.56900  1.0000 0.1094945563
H   H32       1.0  0.10600  0.57320  0.06900  1.0000 0.1094945563
H   H33       1.0  0.36980  0.33990  0.93660  1.0000 0.1094945563
H   H34       1.0  0.63020  0.16010  0.43660  1.0000 0.1094945563
H   H35       1.0  0.86980  0.66010  0.56340  1.0000 0.1094945563
H   H36       1.0  0.13020  0.83990  0.06340  1.0000 0.1094945563
H   H37       1.0  0.39150  0.26710  0.91300  1.0000 0.1381197903
H   H38       1.0  0.60850  0.23290  0.41300  1.0000 0.1381197903
H   H39       1.0  0.89150  0.73290  0.58700  1.0000 0.1381197903
H   H40       1.0  0.10850  0.76710  0.08700  1.0000 0.1381197903
H   H41       1.0  0.44960  0.34780  0.83900  1.0000 0.1320861211
H   H42       1.0  0.55040  0.15220  0.33900  1.0000 0.1320861211
H   H43       1.0  0.94960  0.65220  0.66100  1.0000 0.1320861211
H   H44       1.0  0.05040  0.84780  0.16100  1.0000 0.1320861211
H   H45       1.0  0.41550  0.41630  0.86650  1.0000 0.1011715496
H   H46       1.0  0.58450  0.08370  0.36650  1.0000 0.1011715496
H   H47       1.0  0.91550  0.58370  0.63350  1.0000 0.1011715496
H   H48       1.0  0.08450  0.91630  0.13350  1.0000 0.1011715496
H   H49       1.0  0.44700  0.04620  0.45100  1.0000 0.1094945563
H   H50       1.0  0.55300  0.45380  0.95100  1.0000 0.1094945563
H   H51       1.0  0.94700  0.95380  0.04900  1.0000 0.1094945563
H   H52       1.0  0.05300  0.54620  0.54900  1.0000 0.1094945563
H   H53       1.0  0.35930  0.06460  0.49250  1.0000 0.1381197903
H   H54       1.0  0.64070  0.43540  0.99250  1.0000 0.1381197903
H   H55       1.0  0.85930  0.93540  0.00750  1.0000 0.1381197903
H   H56       1.0  0.14070  0.56460  0.50750  1.0000 0.1381197903
H   H57       1.0  0.61050  0.11440  0.52860  1.0000 0.1381197903
H   H58       1.0  0.38950  0.38560  0.02860  1.0000 0.1381197903
H   H59       1.0  0.11050  0.88560  0.97140  1.0000 0.1381197903
H   H60       1.0  0.88950  0.61440  0.47140  1.0000 0.1381197903
H   H61       1.0  0.68920  0.09080  0.48580  1.0000 0.1011715496
H   H62       1.0  0.31080  0.40920  0.98580  1.0000 0.1011715496
H   H63       1.0  0.18920  0.90920  0.01420  1.0000 0.1011715496
H   H64       1.0  0.81080  0.59080  0.51420  1.0000 0.1011715496
H   H65       1.0  0.68750  0.20380  0.63070  1.0000 0.1094945563
H   H66       1.0  0.31250  0.29620  0.13070  1.0000 0.1094945563
H   H67       1.0  0.18750  0.79620  0.86930  1.0000 0.1094945563
H   H68       1.0  0.81250  0.70380  0.36930  1.0000 0.1094945563
H   H69       1.0  0.60220  0.16940  0.59080  1.0000 0.1320861211
H   H70       1.0  0.39780  0.33060  0.09080  1.0000 0.1320861211
H   H71       1.0  0.10220  0.83060  0.90920  1.0000 0.1320861211
H   H72       1.0  0.89780  0.66940  0.40920  1.0000 0.1320861211
H   H73       1.0  0.35720  0.18220  0.63550  1.0000 0.1320861211
H   H74       1.0  0.64280  0.31780  0.13550  1.0000 0.1320861211
H   H75       1.0  0.85720  0.81780  0.86450  1.0000 0.1320861211
H   H76       1.0  0.14280  0.68220  0.36450  1.0000 0.1320861211
H   H77       1.0  0.44190  0.21600  0.67420  1.0000 0.1094945563
H   H78       1.0  0.55810  0.28400  0.17420  1.0000 0.1094945563
H   H79       1.0  0.94190  0.78400  0.82580  1.0000 0.1094945563
H   H80       1.0  0.05810  0.71600  0.32580  1.0000 0.1094945563
H   H81       1.0  0.00490  0.08930  0.61710  1.0000 0.1094945563
H   H82       1.0  0.99510  0.41070  0.11710  1.0000 0.1094945563
H   H83       1.0  0.50490  0.91070  0.88290  1.0000 0.1094945563
H   H84       1.0  0.49510  0.58930  0.38290  1.0000 0.1094945563
H   H85       1.0  0.16020  0.11970  0.61210  1.0000 0.1381197903
H   H86       1.0  0.83980  0.38030  0.11210  1.0000 0.1381197903
H   H87       1.0  0.66020  0.88030  0.88790  1.0000 0.1381197903
H   H88       1.0  0.33980  0.61970  0.38790  1.0000 0.1381197903
H   H89       1.0  0.16810  0.07110  0.52900  1.0000 0.1320861211
H   H90       1.0  0.83190  0.42890  0.02900  1.0000 0.1320861211
H   H91       1.0  0.66810  0.92890  0.97100  1.0000 0.1320861211
H   H92       1.0  0.33190  0.57110  0.47100  1.0000 0.1320861211
H   H93       1.0  0.00320  0.04590  0.53390  1.0000 0.1175881603
H   H94       1.0  0.99680  0.45410  0.03390  1.0000 0.1175881603
H   H95       1.0  0.50320  0.95410  0.96610  1.0000 0.1175881603
H   H96       1.0  0.49680  0.54590  0.46610  1.0000 0.1175881603
H   H97       1.0  0.44380  0.69540  0.26660  1.0000 0.1094945563
H   H98       1.0  0.55620  0.80460  0.76660  1.0000 0.1094945563
H   H99       1.0  0.94380  0.30460  0.23340  1.0000 0.1094945563
H   H100      1.0  0.05620  0.19540  0.73340  1.0000 0.1094945563
H   H101      1.0  0.50050  0.70280  0.21810  1.0000 0.1320861211
H   H102      1.0  0.49950  0.79720  0.71810  1.0000 0.1320861211
H   H103      1.0  0.00050  0.29720  0.28190  1.0000 0.1320861211
H   H104      1.0  0.99950  0.20280  0.78190  1.0000 0.1320861211
H   H105      1.0  0.48950  0.85110  0.22820  1.0000 0.1381197903
H   H106      1.0  0.51050  0.64890  0.72820  1.0000 0.1381197903
H   H107      1.0  0.98950  0.14890  0.27180  1.0000 0.1381197903
H   H108      1.0  0.01050  0.35110  0.77180  1.0000 0.1381197903
H   H109      1.0  0.41970  0.84000  0.27270  1.0000 0.1175881603
H   H110      1.0  0.58030  0.66000  0.77270  1.0000 0.1175881603
H   H111      1.0  0.91970  0.16000  0.22730  1.0000 0.1175881603
H   H112      1.0  0.08030  0.34000  0.72730  1.0000 0.1175881603
H   H113      1.0  0.60610  0.99650  0.14440  1.0000 0.1094945563
H   H114      1.0  0.39390  0.50350  0.64440  1.0000 0.1094945563
H   H115      1.0  0.10610  0.00350  0.35560  1.0000 0.1094945563
H   H116      1.0  0.89390  0.49650  0.85560  1.0000 0.1094945563
H   H117      1.0  0.57610  0.92190  0.16950  1.0000 0.1381197903
H   H118      1.0  0.42390  0.57810  0.66950  1.0000 0.1381197903
H   H119      1.0  0.07610  0.07810  0.33050  1.0000 0.1381197903
H   H120      1.0  0.92390  0.42190  0.83050  1.0000 0.1381197903
H   H121      1.0  0.57740  0.85310  0.09240  1.0000 0.1320861211
H   H122      1.0  0.42260  0.64690  0.59240  1.0000 0.1320861211
H   H123      1.0  0.07740  0.14690  0.40760  1.0000 0.1320861211
H   H124      1.0  0.92260  0.35310  0.90760  1.0000 0.1320861211
H   H125      1.0  0.60600  0.92680  0.06900  1.0000 0.1094945563
H   H126      1.0  0.39400  0.57320  0.56900  1.0000 0.1094945563
H   H127      1.0  0.10600  0.07320  0.43100  1.0000 0.1094945563
H   H128      1.0  0.89400  0.42680  0.93100  1.0000 0.1094945563
H   H129      1.0  0.63020  0.66010  0.06340  1.0000 0.1094945563
H   H130      1.0  0.36980  0.83990  0.56340  1.0000 0.1094945563
H   H131      1.0  0.13020  0.33990  0.43660  1.0000 0.1094945563
H   H132      1.0  0.86980  0.16010  0.93660  1.0000 0.1094945563
H   H133      1.0  0.60850  0.73290  0.08700  1.0000 0.1381197903
H   H134      1.0  0.39150  0.76710  0.58700  1.0000 0.1381197903
H   H135      1.0  0.10850  0.26710  0.41300  1.0000 0.1381197903
H   H136      1.0  0.89150  0.23290  0.91300  1.0000 0.1381197903
H   H137      1.0  0.55040  0.65220  0.16100  1.0000 0.1320861211
H   H138      1.0  0.44960  0.84780  0.66100  1.0000 0.1320861211
H   H139      1.0  0.05040  0.34780  0.33900  1.0000 0.1320861211
H   H140      1.0  0.94960  0.15220  0.83900  1.0000 0.1320861211
H   H141      1.0  0.58450  0.58370  0.13350  1.0000 0.1011715496
H   H142      1.0  0.41550  0.91630  0.63350  1.0000 0.1011715496
H   H143      1.0  0.08450  0.41630  0.36650  1.0000 0.1011715496
H   H144      1.0  0.91550  0.08370  0.86650  1.0000 0.1011715496
H   H145      1.0  0.55300  0.95380  0.54900  1.0000 0.1094945563
H   H146      1.0  0.44700  0.54620  0.04900  1.0000 0.1094945563
H   H147      1.0  0.05300  0.04620  0.95100  1.0000 0.1094945563
H   H148      1.0  0.94700  0.45380  0.45100  1.0000 0.1094945563
H   H149      1.0  0.64070  0.93540  0.50750  1.0000 0.1381197903
H   H150      1.0  0.35930  0.56460  0.00750  1.0000 0.1381197903
H   H151      1.0  0.14070  0.06460  0.99250  1.0000 0.1381197903
H   H152      1.0  0.85930  0.43540  0.49250  1.0000 0.1381197903
H   H153      1.0  0.38950  0.88560  0.47140  1.0000 0.1381197903
H   H154      1.0  0.61050  0.61440  0.97140  1.0000 0.1381197903
H   H155      1.0  0.88950  0.11440  0.02860  1.0000 0.1381197903
H   H156      1.0  0.11050  0.38560  0.52860  1.0000 0.1381197903
H   H157      1.0  0.31080  0.90920  0.51420  1.0000 0.1011715496
H   H158      1.0  0.68920  0.59080  0.01420  1.0000 0.1011715496
H   H159      1.0  0.81080  0.09080  0.98580  1.0000 0.1011715496
H   H160      1.0  0.18920  0.40920  0.48580  1.0000 0.1011715496
H   H161      1.0  0.31250  0.79620  0.36930  1.0000 0.1094945563
H   H162      1.0  0.68750  0.70380  0.86930  1.0000 0.1094945563
H   H163      1.0  0.81250  0.20380  0.13070  1.0000 0.1094945563
H   H164      1.0  0.18750  0.29620  0.63070  1.0000 0.1094945563
H   H165      1.0  0.39780  0.83060  0.40920  1.0000 0.1320861211
H   H166      1.0  0.60220  0.66940  0.90920  1.0000 0.1320861211
H   H167      1.0  0.89780  0.16940  0.09080  1.0000 0.1320861211
H   H168      1.0  0.10220  0.33060  0.59080  1.0000 0.1320861211
H   H169      1.0  0.64280  0.81780  0.36450  1.0000 0.1320861211
H   H170      1.0  0.35720  0.68220  0.86450  1.0000 0.1320861211
H   H171      1.0  0.14280  0.18220  0.13550  1.0000 0.1320861211
H   H172      1.0  0.85720  0.31780  0.63550  1.0000 0.1320861211
H   H173      1.0  0.55810  0.78400  0.32580  1.0000 0.1094945563
H   H174      1.0  0.44190  0.71600  0.82580  1.0000 0.1094945563
H   H175      1.0  0.05810  0.21600  0.17420  1.0000 0.1094945563
H   H176      1.0  0.94190  0.28400  0.67420  1.0000 0.1094945563
H   H177      1.0  0.99510  0.91070  0.38290  1.0000 0.1094945563
H   H178      1.0  0.00490  0.58930  0.88290  1.0000 0.1094945563
H   H179      1.0  0.49510  0.08930  0.11710  1.0000 0.1094945563
H   H180      1.0  0.50490  0.41070  0.61710  1.0000 0.1094945563
H   H181      1.0  0.83980  0.88030  0.38790  1.0000 0.1381197903
H   H182      1.0  0.16020  0.61970  0.88790  1.0000 0.1381197903
H   H183      1.0  0.33980  0.11970  0.11210  1.0000 0.1381197903
H   H184      1.0  0.66020  0.38030  0.61210  1.0000 0.1381197903
H   H185      1.0  0.83190  0.92890  0.47100  1.0000 0.1320861211
H   H186      1.0  0.16810  0.57110  0.97100  1.0000 0.1320861211
H   H187      1.0  0.33190  0.07110  0.02900  1.0000 0.1320861211
H   H188      1.0  0.66810  0.42890  0.52900  1.0000 0.1320861211
H   H189      1.0  0.99680  0.95410  0.46610  1.0000 0.1175881603
H   H190      1.0  0.00320  0.54590  0.96610  1.0000 0.1175881603
H   H191      1.0  0.49680  0.04590  0.03390  1.0000 0.1175881603
H   H192      1.0  0.50320  0.45410  0.53390  1.0000 0.1175881603
C   C1        1.0  0.54890  0.27260  0.74170  1.0000 0.1094945563
C   C2        1.0  0.45110  0.22740  0.24170  1.0000 0.1094945563
C   C3        1.0  0.04890  0.72740  0.75830  1.0000 0.1094945563
C   C4        1.0  0.95110  0.77260  0.25830  1.0000 0.1094945563
C   C5        1.0  0.51430  0.26880  0.77050  1.0000 -0.1502065889
C   C6        1.0  0.48570  0.23120  0.27050  1.0000 -0.1502065889
C   C7        1.0  0.01430  0.73120  0.72950  1.0000 -0.1502065889
C   C8        1.0  0.98570  0.76880  0.22950  1.0000 -0.1502065889
C   C9        1.0  0.50260  0.22130  0.78170  1.0000 0.0708882022
C   C10       1.0  0.49740  0.27870  0.28170  1.0000 0.0708882022
C   C11       1.0  0.00260  0.77870  0.71830  1.0000 0.0708882022
C   C12       1.0  0.99740  0.72130  0.21830  1.0000 0.0708882022
C   C13       1.0  0.52290  0.18120  0.76470  1.0000 -0.1603956006
C   C14       1.0  0.47710  0.31880  0.26470  1.0000 -0.1603956006
C   C15       1.0  0.02290  0.81880  0.73530  1.0000 -0.1603956006
C   C16       1.0  0.97710  0.68120  0.23530  1.0000 -0.1603956006
C   C17       1.0  0.56040  0.18810  0.73810  1.0000 0.0527145974
C   C18       1.0  0.43960  0.31190  0.23810  1.0000 0.0527145974
C   C19       1.0  0.06040  0.81190  0.76190  1.0000 0.0527145974
C   C20       1.0  0.93960  0.68810  0.26190  1.0000 0.0527145974
C   C21       1.0  0.39990  0.03340  0.86630  1.0000 0.1011715496
C   C22       1.0  0.60010  0.46660  0.36630  1.0000 0.1011715496
C   C23       1.0  0.89990  0.96660  0.63370  1.0000 0.1011715496
C   C24       1.0  0.10010  0.53340  0.13370  1.0000 0.1011715496
C   C25       1.0  0.41720  0.07800  0.85110  1.0000 -0.1707081628
C   C26       1.0  0.58280  0.42200  0.35110  1.0000 -0.1707081628
C   C27       1.0  0.91720  0.92200  0.64890  1.0000 -0.1707081628
C   C28       1.0  0.08280  0.57800  0.14890  1.0000 -0.1707081628
C   C29       1.0  0.42400  0.12090  0.86670  1.0000 0.0708882022
C   C30       1.0  0.57600  0.37910  0.36670  1.0000 0.0708882022
C   C31       1.0  0.92400  0.87910  0.63330  1.0000 0.0708882022
C   C32       1.0  0.07600  0.62090  0.13330  1.0000 0.0708882022
C   C33       1.0  0.41630  0.11770  0.89630  1.0000 -0.1502065889
C   C34       1.0  0.58370  0.38230  0.39630  1.0000 -0.1502065889
C   C35       1.0  0.91630  0.88230  0.60370  1.0000 -0.1502065889
C   C36       1.0  0.08370  0.61770  0.10370  1.0000 -0.1502065889
C   C37       1.0  0.39980  0.07390  0.91030  1.0000 0.0807541303
C   C38       1.0  0.60020  0.42610  0.41030  1.0000 0.0807541303
C   C39       1.0  0.89980  0.92610  0.58970  1.0000 0.0807541303
C   C40       1.0  0.10020  0.57390  0.08970  1.0000 0.0807541303
C   C41       1.0  0.38440  0.34070  0.91630  1.0000 0.0527145974
C   C42       1.0  0.61560  0.15930  0.41630  1.0000 0.0527145974
C   C43       1.0  0.88440  0.65930  0.58370  1.0000 0.0527145974
C   C44       1.0  0.11560  0.84070  0.08370  1.0000 0.0527145974
C   C45       1.0  0.39800  0.29750  0.90290  1.0000 -0.1603956006
C   C46       1.0  0.60200  0.20250  0.40290  1.0000 -0.1603956006
C   C47       1.0  0.89800  0.70250  0.59710  1.0000 -0.1603956006
C   C48       1.0  0.10200  0.79750  0.09710  1.0000 -0.1603956006
C   C49       1.0  0.42300  0.29930  0.87270  1.0000 0.06025637
C   C50       1.0  0.57700  0.20070  0.37270  1.0000 0.06025637
C   C51       1.0  0.92300  0.70070  0.62730  1.0000 0.06025637
C   C52       1.0  0.07700  0.79930  0.12730  1.0000 0.06025637
C   C53       1.0  0.43150  0.34490  0.85890  1.0000 -0.1780819446
C   C54       1.0  0.56850  0.15510  0.35890  1.0000 -0.1780819446
C   C55       1.0  0.93150  0.65510  0.64110  1.0000 -0.1780819446
C   C56       1.0  0.06850  0.84490  0.14110  1.0000 -0.1780819446
C   C57       1.0  0.41210  0.38510  0.87590  1.0000 0.1011715496
C   C58       1.0  0.58790  0.11490  0.37590  1.0000 0.1011715496
C   C59       1.0  0.91210  0.61490  0.62410  1.0000 0.1011715496
C   C60       1.0  0.08790  0.88510  0.12410  1.0000 0.1011715496
C   C61       1.0  0.47250  0.21580  0.81310  1.0000 0.3800946514
C   C62       1.0  0.52750  0.28420  0.31310  1.0000 0.3800946514
C   C63       1.0  0.97250  0.78420  0.68690  1.0000 0.3800946514
C   C64       1.0  0.02750  0.71580  0.18690  1.0000 0.3800946514
C   C65       1.0  0.43820  0.17030  0.85200  1.0000 0.3800946514
C   C66       1.0  0.56180  0.32970  0.35200  1.0000 0.3800946514
C   C67       1.0  0.93820  0.82970  0.64800  1.0000 0.3800946514
C   C68       1.0  0.06180  0.67030  0.14800  1.0000 0.3800946514
C   C69       1.0  0.43880  0.25330  0.85600  1.0000 0.3701012162
C   C70       1.0  0.56120  0.24670  0.35600  1.0000 0.3800946514
C   C71       1.0  0.93880  0.74670  0.64400  1.0000 0.3701012162
C   C72       1.0  0.06120  0.75330  0.14400  1.0000 0.3800946514
C   C73       1.0  0.48060  0.05970  0.46720  1.0000 0.0708882022
C   C74       1.0  0.51940  0.44030  0.96720  1.0000 0.0708882022
C   C75       1.0  0.98060  0.94030  0.03280  1.0000 0.0708882022
C   C76       1.0  0.01940  0.55970  0.53280  1.0000 0.0708882022
C   C77       1.0  0.42660  0.07180  0.49150  1.0000 -0.1502065889
C   C78       1.0  0.57340  0.42820  0.99150  1.0000 -0.1502065889
C   C79       1.0  0.92660  0.92820  0.00850  1.0000 -0.1502065889
C   C80       1.0  0.07340  0.57180  0.50850  1.0000 -0.1502065889
C   C81       1.0  0.47450  0.09510  0.51470  1.0000 0.0708882022
C   C82       1.0  0.52550  0.40490  0.01470  1.0000 0.0708882022
C   C83       1.0  0.97450  0.90490  0.98530  1.0000 0.0708882022
C   C84       1.0  0.02550  0.59510  0.48530  1.0000 0.0708882022
C   C85       1.0  0.57460  0.10080  0.51290  1.0000 -0.1502065889
C   C86       1.0  0.42540  0.39920  0.01290  1.0000 -0.1502065889
C   C87       1.0  0.07460  0.89920  0.98710  1.0000 -0.1502065889
C   C88       1.0  0.92540  0.60080  0.48710  1.0000 -0.1502065889
C   C89       1.0  0.62110  0.08590  0.48720  1.0000 0.0807541303
C   C90       1.0  0.37890  0.41410  0.98720  1.0000 0.0807541303
C   C91       1.0  0.12110  0.91410  0.01280  1.0000 0.0807541303
C   C92       1.0  0.87890  0.58590  0.51280  1.0000 0.0807541303
C   C93       1.0  0.61960  0.19850  0.63220  1.0000 0.1094945563
C   C94       1.0  0.38040  0.30150  0.13220  1.0000 0.1094945563
C   C95       1.0  0.11960  0.80150  0.86780  1.0000 0.1094945563
C   C96       1.0  0.88040  0.69850  0.36780  1.0000 0.1094945563
C   C97       1.0  0.56900  0.17760  0.60830  1.0000 -0.12041221
C   C98       1.0  0.43100  0.32240  0.10830  1.0000 -0.12041221
C   C99       1.0  0.06900  0.82240  0.89170  1.0000 -0.12041221
C   C100      1.0  0.93100  0.67760  0.39170  1.0000 -0.12041221
C   C101      1.0  0.47230  0.16950  0.61080  1.0000 0.06025637
C   C102      1.0  0.52770  0.33050  0.11080  1.0000 0.06025637
C   C103      1.0  0.97230  0.83050  0.88920  1.0000 0.06025637
C   C104      1.0  0.02770  0.66950  0.38920  1.0000 0.06025637
C   C105      1.0  0.42580  0.18510  0.63450  1.0000 -0.1137470341
C   C106      1.0  0.57420  0.31490  0.13450  1.0000 -0.1137470341
C   C107      1.0  0.92580  0.81490  0.86550  1.0000 -0.12041221
C   C108      1.0  0.07420  0.68510  0.36550  1.0000 -0.1137470341
C   C109      1.0  0.47610  0.20540  0.65730  1.0000 0.0708882022
C   C110      1.0  0.52390  0.29460  0.15730  1.0000 0.0708882022
C   C111      1.0  0.97610  0.79460  0.84270  1.0000 0.0708882022
C   C112      1.0  0.02390  0.70540  0.34270  1.0000 0.0708882022
C   C113      1.0  0.03700  0.08580  0.59890  1.0000 0.1011715496
C   C114      1.0  0.96300  0.41420  0.09890  1.0000 0.1011715496
C   C115      1.0  0.53700  0.91420  0.90110  1.0000 0.1011715496
C   C116      1.0  0.46300  0.58580  0.40110  1.0000 0.1011715496
C   C117      1.0  0.13010  0.10390  0.59600  1.0000 -0.1340038616
C   C118      1.0  0.86990  0.39610  0.09600  1.0000 -0.1340038616
C   C119      1.0  0.63010  0.89610  0.90400  1.0000 -0.1340038616
C   C120      1.0  0.36990  0.60390  0.40400  1.0000 -0.1340038616
C   C121      1.0  0.17970  0.09930  0.57040  1.0000 0.0708882022
C   C122      1.0  0.82030  0.40070  0.07040  1.0000 0.0708882022
C   C123      1.0  0.67970  0.90070  0.92960  1.0000 0.0708882022
C   C124      1.0  0.32030  0.59930  0.42960  1.0000 0.0708882022
C   C125      1.0  0.13430  0.07600  0.54690  1.0000 -0.1137470341
C   C126      1.0  0.86570  0.42400  0.04690  1.0000 -0.1137470341
C   C127      1.0  0.63430  0.92400  0.95310  1.0000 -0.1137470341
C   C128      1.0  0.36570  0.57600  0.45310  1.0000 -0.1137470341
C   C129      1.0  0.03720  0.05970  0.55000  1.0000 0.06025637
C   C130      1.0  0.96280  0.44030  0.05000  1.0000 0.06025637
C   C131      1.0  0.53720  0.94030  0.95000  1.0000 0.06025637
C   C132      1.0  0.46280  0.55970  0.45000  1.0000 0.06025637
C   C133      1.0  0.41990  0.11220  0.54130  1.0000 0.359434576
C   C134      1.0  0.58010  0.38780  0.04130  1.0000 0.359434576
C   C135      1.0  0.91990  0.88780  0.95870  1.0000 0.359434576
C   C136      1.0  0.08010  0.61220  0.45870  1.0000 0.359434576
C   C137      1.0  0.42000  0.14650  0.58490  1.0000 0.3701012162
C   C138      1.0  0.58000  0.35350  0.08490  1.0000 0.3701012162
C   C139      1.0  0.92000  0.85350  0.91510  1.0000 0.3701012162
C   C140      1.0  0.08000  0.64650  0.41510  1.0000 0.3701012162
C   C141      1.0  0.28360  0.11360  0.56680  1.0000 0.3701012162
C   C142      1.0  0.71640  0.38640  0.06680  1.0000 0.3701012162
C   C143      1.0  0.78360  0.88640  0.93320  1.0000 0.3701012162
C   C144      1.0  0.21640  0.61360  0.43320  1.0000 0.3701012162
C   C145      1.0  0.45110  0.72740  0.25830  1.0000 0.1094945563
C   C146      1.0  0.54890  0.77260  0.75830  1.0000 0.1094945563
C   C147      1.0  0.95110  0.27260  0.24170  1.0000 0.1094945563
C   C148      1.0  0.04890  0.22740  0.74170  1.0000 0.1094945563
C   C149      1.0  0.48570  0.73120  0.22950  1.0000 -0.1502065889
C   C150      1.0  0.51430  0.76880  0.72950  1.0000 -0.1502065889
C   C151      1.0  0.98570  0.26880  0.27050  1.0000 -0.1502065889
C   C152      1.0  0.01430  0.23120  0.77050  1.0000 -0.1502065889
C   C153      1.0  0.49740  0.77870  0.21830  1.0000 0.0708882022
C   C154      1.0  0.50260  0.72130  0.71830  1.0000 0.0708882022
C   C155      1.0  0.99740  0.22130  0.28170  1.0000 0.0708882022
C   C156      1.0  0.00260  0.27870  0.78170  1.0000 0.0708882022
C   C157      1.0  0.47710  0.81880  0.23530  1.0000 -0.1603956006
C   C158      1.0  0.52290  0.68120  0.73530  1.0000 -0.1603956006
C   C159      1.0  0.97710  0.18120  0.26470  1.0000 -0.1603956006
C   C160      1.0  0.02290  0.31880  0.76470  1.0000 -0.1603956006
C   C161      1.0  0.43960  0.81190  0.26190  1.0000 0.0527145974
C   C162      1.0  0.56040  0.68810  0.76190  1.0000 0.0527145974
C   C163      1.0  0.93960  0.18810  0.23810  1.0000 0.0527145974
C   C164      1.0  0.06040  0.31190  0.73810  1.0000 0.0527145974
C   C165      1.0  0.60010  0.96660  0.13370  1.0000 0.1011715496
C   C166      1.0  0.39990  0.53340  0.63370  1.0000 0.1011715496
C   C167      1.0  0.10010  0.03340  0.36630  1.0000 0.1011715496
C   C168      1.0  0.89990  0.46660  0.86630  1.0000 0.1011715496
C   C169      1.0  0.58280  0.92200  0.14890  1.0000 -0.1707081628
C   C170      1.0  0.41720  0.57800  0.64890  1.0000 -0.1707081628
C   C171      1.0  0.08280  0.07800  0.35110  1.0000 -0.1707081628
C   C172      1.0  0.91720  0.42200  0.85110  1.0000 -0.1707081628
C   C173      1.0  0.57600  0.87910  0.13330  1.0000 0.0708882022
C   C174      1.0  0.42400  0.62090  0.63330  1.0000 0.0708882022
C   C175      1.0  0.07600  0.12090  0.36670  1.0000 0.0708882022
C   C176      1.0  0.92400  0.37910  0.86670  1.0000 0.0708882022
C   C177      1.0  0.58370  0.88230  0.10370  1.0000 -0.1502065889
C   C178      1.0  0.41630  0.61770  0.60370  1.0000 -0.1502065889
C   C179      1.0  0.08370  0.11770  0.39630  1.0000 -0.1502065889
C   C180      1.0  0.91630  0.38230  0.89630  1.0000 -0.1502065889
C   C181      1.0  0.60020  0.92610  0.08970  1.0000 0.0807541303
C   C182      1.0  0.39980  0.57390  0.58970  1.0000 0.0807541303
C   C183      1.0  0.10020  0.07390  0.41030  1.0000 0.0807541303
C   C184      1.0  0.89980  0.42610  0.91030  1.0000 0.0807541303
C   C185      1.0  0.61560  0.65930  0.08370  1.0000 0.0527145974
C   C186      1.0  0.38440  0.84070  0.58370  1.0000 0.0527145974
C   C187      1.0  0.11560  0.34070  0.41630  1.0000 0.0527145974
C   C188      1.0  0.88440  0.15930  0.91630  1.0000 0.0527145974
C   C189      1.0  0.60200  0.70250  0.09710  1.0000 -0.1603956006
C   C190      1.0  0.39800  0.79750  0.59710  1.0000 -0.1603956006
C   C191      1.0  0.10200  0.29750  0.40290  1.0000 -0.1603956006
C   C192      1.0  0.89800  0.20250  0.90290  1.0000 -0.1603956006
C   C193      1.0  0.57700  0.70070  0.12730  1.0000 0.06025637
C   C194      1.0  0.42300  0.79930  0.62730  1.0000 0.06025637
C   C195      1.0  0.07700  0.29930  0.37270  1.0000 0.06025637
C   C196      1.0  0.92300  0.20070  0.87270  1.0000 0.06025637
C   C197      1.0  0.56850  0.65510  0.14110  1.0000 -0.1780819446
C   C198      1.0  0.43150  0.84490  0.64110  1.0000 -0.1780819446
C   C199      1.0  0.06850  0.34490  0.35890  1.0000 -0.1780819446
C   C200      1.0  0.93150  0.15510  0.85890  1.0000 -0.1780819446
C   C201      1.0  0.58790  0.61490  0.12410  1.0000 0.1011715496
C   C202      1.0  0.41210  0.88510  0.62410  1.0000 0.1011715496
C   C203      1.0  0.08790  0.38510  0.37590  1.0000 0.1011715496
C   C204      1.0  0.91210  0.11490  0.87590  1.0000 0.1011715496
C   C205      1.0  0.52750  0.78420  0.18690  1.0000 0.3800946514
C   C206      1.0  0.47250  0.71580  0.68690  1.0000 0.3800946514
C   C207      1.0  0.02750  0.21580  0.31310  1.0000 0.3800946514
C   C208      1.0  0.97250  0.28420  0.81310  1.0000 0.3800946514
C   C209      1.0  0.56180  0.82970  0.14800  1.0000 0.3800946514
C   C210      1.0  0.43820  0.67030  0.64800  1.0000 0.3800946514
C   C211      1.0  0.06180  0.17030  0.35200  1.0000 0.3800946514
C   C212      1.0  0.93820  0.32970  0.85200  1.0000 0.3800946514
C   C213      1.0  0.56120  0.74670  0.14400  1.0000 0.3800946514
C   C214      1.0  0.43880  0.75330  0.64400  1.0000 0.3800946514
C   C215      1.0  0.06120  0.25330  0.35600  1.0000 0.3800946514
C   C216      1.0  0.93880  0.24670  0.85600  1.0000 0.3701012162
C   C217      1.0  0.51940  0.94030  0.53280  1.0000 0.0708882022
C   C218      1.0  0.48060  0.55970  0.03280  1.0000 0.0708882022
C   C219      1.0  0.01940  0.05970  0.96720  1.0000 0.0708882022
C   C220      1.0  0.98060  0.44030  0.46720  1.0000 0.0708882022
C   C221      1.0  0.57340  0.92820  0.50850  1.0000 -0.1502065889
C   C222      1.0  0.42660  0.57180  0.00850  1.0000 -0.1502065889
C   C223      1.0  0.07340  0.07180  0.99150  1.0000 -0.1502065889
C   C224      1.0  0.92660  0.42820  0.49150  1.0000 -0.1502065889
C   C225      1.0  0.52550  0.90490  0.48530  1.0000 0.0708882022
C   C226      1.0  0.47450  0.59510  0.98530  1.0000 0.0708882022
C   C227      1.0  0.02550  0.09510  0.01470  1.0000 0.0708882022
C   C228      1.0  0.97450  0.40490  0.51470  1.0000 0.0708882022
C   C229      1.0  0.42540  0.89920  0.48710  1.0000 -0.1502065889
C   C230      1.0  0.57460  0.60080  0.98710  1.0000 -0.1502065889
C   C231      1.0  0.92540  0.10080  0.01290  1.0000 -0.1502065889
C   C232      1.0  0.07460  0.39920  0.51290  1.0000 -0.1502065889
C   C233      1.0  0.37890  0.91410  0.51280  1.0000 0.0807541303
C   C234      1.0  0.62110  0.58590  0.01280  1.0000 0.0807541303
C   C235      1.0  0.87890  0.08590  0.98720  1.0000 0.0807541303
C   C236      1.0  0.12110  0.41410  0.48720  1.0000 0.0807541303
C   C237      1.0  0.38040  0.80150  0.36780  1.0000 0.1094945563
C   C238      1.0  0.61960  0.69850  0.86780  1.0000 0.1094945563
C   C239      1.0  0.88040  0.19850  0.13220  1.0000 0.1094945563
C   C240      1.0  0.11960  0.30150  0.63220  1.0000 0.1094945563
C   C241      1.0  0.43100  0.82240  0.39170  1.0000 -0.12041221
C   C242      1.0  0.56900  0.67760  0.89170  1.0000 -0.12041221
C   C243      1.0  0.93100  0.17760  0.10830  1.0000 -0.12041221
C   C244      1.0  0.06900  0.32240  0.60830  1.0000 -0.12041221
C   C245      1.0  0.52770  0.83050  0.38920  1.0000 0.06025637
C   C246      1.0  0.47230  0.66950  0.88920  1.0000 0.06025637
C   C247      1.0  0.02770  0.16950  0.11080  1.0000 0.06025637
C   C248      1.0  0.97230  0.33050  0.61080  1.0000 0.06025637
C   C249      1.0  0.57420  0.81490  0.36550  1.0000 -0.1137470341
C   C250      1.0  0.42580  0.68510  0.86550  1.0000 -0.12041221
C   C251      1.0  0.07420  0.18510  0.13450  1.0000 -0.1137470341
C   C252      1.0  0.92580  0.31490  0.63450  1.0000 -0.1137470341
C   C253      1.0  0.52390  0.79460  0.34270  1.0000 0.0708882022
C   C254      1.0  0.47610  0.70540  0.84270  1.0000 0.0708882022
C   C255      1.0  0.02390  0.20540  0.15730  1.0000 0.0708882022
C   C256      1.0  0.97610  0.29460  0.65730  1.0000 0.0708882022
C   C257      1.0  0.96300  0.91420  0.40110  1.0000 0.1011715496
C   C258      1.0  0.03700  0.58580  0.90110  1.0000 0.1011715496
C   C259      1.0  0.46300  0.08580  0.09890  1.0000 0.1011715496
C   C260      1.0  0.53700  0.41420  0.59890  1.0000 0.1011715496
C   C261      1.0  0.86990  0.89610  0.40400  1.0000 -0.1340038616
C   C262      1.0  0.13010  0.60390  0.90400  1.0000 -0.1340038616
C   C263      1.0  0.36990  0.10390  0.09600  1.0000 -0.1340038616
C   C264      1.0  0.63010  0.39610  0.59600  1.0000 -0.1340038616
C   C265      1.0  0.82030  0.90070  0.42960  1.0000 0.0708882022
C   C266      1.0  0.17970  0.59930  0.92960  1.0000 0.0708882022
C   C267      1.0  0.32030  0.09930  0.07040  1.0000 0.0708882022
C   C268      1.0  0.67970  0.40070  0.57040  1.0000 0.0708882022
C   C269      1.0  0.86570  0.92400  0.45310  1.0000 -0.1137470341
C   C270      1.0  0.13430  0.57600  0.95310  1.0000 -0.1137470341
C   C271      1.0  0.36570  0.07600  0.04690  1.0000 -0.1137470341
C   C272      1.0  0.63430  0.42400  0.54690  1.0000 -0.1137470341
C   C273      1.0  0.96280  0.94030  0.45000  1.0000 0.06025637
C   C274      1.0  0.03720  0.55970  0.95000  1.0000 0.06025637
C   C275      1.0  0.46280  0.05970  0.05000  1.0000 0.06025637
C   C276      1.0  0.53720  0.44030  0.55000  1.0000 0.06025637
C   C277      1.0  0.58010  0.88780  0.45870  1.0000 0.359434576
C   C278      1.0  0.41990  0.61220  0.95870  1.0000 0.359434576
C   C279      1.0  0.08010  0.11220  0.04130  1.0000 0.359434576
C   C280      1.0  0.91990  0.38780  0.54130  1.0000 0.359434576
C   C281      1.0  0.58000  0.85350  0.41510  1.0000 0.3701012162
C   C282      1.0  0.42000  0.64650  0.91510  1.0000 0.3701012162
C   C283      1.0  0.08000  0.14650  0.08490  1.0000 0.3701012162
C   C284      1.0  0.92000  0.35350  0.58490  1.0000 0.3701012162
C   C285      1.0  0.71640  0.88640  0.43320  1.0000 0.3701012162
C   C286      1.0  0.28360  0.61360  0.93320  1.0000 0.3701012162
C   C287      1.0  0.21640  0.11360  0.06680  1.0000 0.3701012162
C   C288      1.0  0.78360  0.38640  0.56680  1.0000 0.3701012162
I   I1        1.0  0.67180  0.33636  0.67938  1.0000 -0.462667248
I   I2        1.0  0.32820  0.16364  0.17938  1.0000 -0.462667248
I   I3        1.0  0.17180  0.66364  0.82062  1.0000 -0.462667248
I   I4        1.0  0.82820  0.83636  0.32062  1.0000 -0.462667248
I   I5        1.0  0.80873  0.19083  0.69497  1.0000 -0.4732493859
I   I6        1.0  0.19127  0.30917  0.19497  1.0000 -0.4732493859
I   I7        1.0  0.30873  0.80917  0.80503  1.0000 -0.4732493859
I   I8        1.0  0.69127  0.69083  0.30503  1.0000 -0.4732493859
I   I9        1.0  0.26389  0.91481  0.88128  1.0000 -0.4323350925
I   I10       1.0  0.73611  0.58519  0.38128  1.0000 -0.4323350925
I   I11       1.0  0.76389  0.08519  0.61872  1.0000 -0.4323350925
I   I12       1.0  0.23611  0.41481  0.11872  1.0000 -0.4323350925
I   I13       1.0  0.28958  0.99140  0.96683  1.0000 -0.462667248
I   I14       1.0  0.71042  0.50860  0.46683  1.0000 -0.462667248
I   I15       1.0  0.78958  0.00860  0.53317  1.0000 -0.462667248
I   I16       1.0  0.21042  0.49140  0.03317  1.0000 -0.462667248
I   I17       1.0  0.44655  0.51659  0.89930  1.0000 -0.4323350925
I   I18       1.0  0.55345  0.98341  0.39930  1.0000 -0.4323350925
I   I19       1.0  0.94655  0.48341  0.60070  1.0000 -0.4323350925
I   I20       1.0  0.05345  0.01659  0.10070  1.0000 -0.4323350925
I   I21       1.0  0.17235  0.44458  0.93515  1.0000 -0.462667248
I   I22       1.0  0.82765  0.05542  0.43515  1.0000 -0.462667248
I   I23       1.0  0.67235  0.55542  0.56485  1.0000 -0.462667248
I   I24       1.0  0.32765  0.94458  0.06485  1.0000 -0.462667248
I   I25       1.0  0.32820  0.66364  0.32062  1.0000 -0.462667248
I   I26       1.0  0.67180  0.83636  0.82062  1.0000 -0.462667248
I   I27       1.0  0.82820  0.33636  0.17938  1.0000 -0.462667248
I   I28       1.0  0.17180  0.16364  0.67938  1.0000 -0.462667248
I   I29       1.0  0.19127  0.80917  0.30503  1.0000 -0.4732493859
I   I30       1.0  0.80873  0.69083  0.80503  1.0000 -0.4732493859
I   I31       1.0  0.69127  0.19083  0.19497  1.0000 -0.4732493859
I   I32       1.0  0.30873  0.30917  0.69497  1.0000 -0.4732493859
I   I33       1.0  0.73611  0.08519  0.11872  1.0000 -0.4323350925
I   I34       1.0  0.26389  0.41481  0.61872  1.0000 -0.4323350925
I   I35       1.0  0.23611  0.91481  0.38128  1.0000 -0.4323350925
I   I36       1.0  0.76389  0.58519  0.88128  1.0000 -0.4323350925
I   I37       1.0  0.71042  0.00860  0.03317  1.0000 -0.462667248
I   I38       1.0  0.28958  0.49140  0.53317  1.0000 -0.462667248
I   I39       1.0  0.21042  0.99140  0.46683  1.0000 -0.462667248
I   I40       1.0  0.78958  0.50860  0.96683  1.0000 -0.462667248
I   I41       1.0  0.55345  0.48341  0.10070  1.0000 -0.4323350925
I   I42       1.0  0.44655  0.01659  0.60070  1.0000 -0.4323350925
I   I43       1.0  0.05345  0.51659  0.39930  1.0000 -0.4323350925
I   I44       1.0  0.94655  0.98341  0.89930  1.0000 -0.4323350925
I   I45       1.0  0.82765  0.55542  0.06485  1.0000 -0.462667248
I   I46       1.0  0.17235  0.94458  0.56485  1.0000 -0.462667248
I   I47       1.0  0.32765  0.44458  0.43515  1.0000 -0.462667248
I   I48       1.0  0.67235  0.05542  0.93515  1.0000 -0.462667248
N   N1        1.0  0.57170  0.23390  0.72560  1.0000 -0.1780819446
N   N2        1.0  0.42830  0.26610  0.22560  1.0000 -0.1780819446
N   N3        1.0  0.07170  0.76610  0.77440  1.0000 -0.1780819446
N   N4        1.0  0.92830  0.73390  0.27440  1.0000 -0.1780819446
N   N5        1.0  0.39190  0.03200  0.89490  1.0000 -0.1780819446
N   N6        1.0  0.60810  0.46800  0.39490  1.0000 -0.1707081628
N   N7        1.0  0.89190  0.96800  0.60510  1.0000 -0.1707081628
N   N8        1.0  0.10810  0.53200  0.10510  1.0000 -0.1707081628
N   N9        1.0  0.38960  0.38550  0.90339  1.0000 -0.1885069709
N   N10       1.0  0.61040  0.11450  0.40339  1.0000 -0.1885069709
N   N11       1.0  0.88960  0.61450  0.59661  1.0000 -0.1885069709
N   N12       1.0  0.11040  0.88550  0.09661  1.0000 -0.1885069709
N   N13       1.0  0.46090  0.17040  0.82390  1.0000 -0.4186806034
N   N14       1.0  0.53910  0.32960  0.32390  1.0000 -0.4186806034
N   N15       1.0  0.96090  0.82960  0.67610  1.0000 -0.4186806034
N   N16       1.0  0.03910  0.67040  0.17610  1.0000 -0.4186806034
N   N17       1.0  0.42350  0.20930  0.86920  1.0000 -0.4186806034
N   N18       1.0  0.57650  0.29070  0.36920  1.0000 -0.4186806034
N   N19       1.0  0.92350  0.79070  0.63080  1.0000 -0.4186806034
N   N20       1.0  0.07650  0.70930  0.13080  1.0000 -0.4186806034
N   N21       1.0  0.46330  0.25790  0.82750  1.0000 -0.4110954988
N   N22       1.0  0.53670  0.24210  0.32750  1.0000 -0.4110954988
N   N23       1.0  0.96330  0.74210  0.67250  1.0000 -0.4110954988
N   N24       1.0  0.03670  0.75790  0.17250  1.0000 -0.4110954988
N   N25       1.0  0.57610  0.06540  0.46480  1.0000 -0.1885069709
N   N26       1.0  0.42390  0.43460  0.96480  1.0000 -0.1885069709
N   N27       1.0  0.07610  0.93460  0.03520  1.0000 -0.1885069709
N   N28       1.0  0.92390  0.56540  0.53520  1.0000 -0.1885069709
N   N29       1.0  0.57480  0.21080  0.65620  1.0000 -0.1707081628
N   N30       1.0  0.42520  0.28920  0.15620  1.0000 -0.1707081628
N   N31       1.0  0.07480  0.78920  0.84380  1.0000 -0.1707081628
N   N32       1.0  0.92520  0.71080  0.34380  1.0000 -0.1707081628
N   N33       1.0  0.99190  0.06430  0.57760  1.0000 -0.1780819446
N   N34       1.0  0.00810  0.43570  0.07760  1.0000 -0.1780819446
N   N35       1.0  0.49190  0.93570  0.92240  1.0000 -0.1780819446
N   N36       1.0  0.50810  0.56430  0.42240  1.0000 -0.1780819446
N   N37       1.0  0.47090  0.13570  0.56140  1.0000 -0.377379297
N   N38       1.0  0.52910  0.36430  0.06140  1.0000 -0.377379297
N   N39       1.0  0.97090  0.86430  0.93860  1.0000 -0.377379297
N   N40       1.0  0.02910  0.63570  0.43860  1.0000 -0.377379297
N   N41       1.0  0.32560  0.13670  0.58910  1.0000 -0.3719743777
N   N42       1.0  0.67440  0.36330  0.08910  1.0000 -0.3719743777
N   N43       1.0  0.82560  0.86330  0.91090  1.0000 -0.3719743777
N   N44       1.0  0.17440  0.63670  0.41090  1.0000 -0.3719743777
N   N45       1.0  0.32850  0.10110  0.54210  1.0000 -0.377379297
N   N46       1.0  0.67150  0.39890  0.04210  1.0000 -0.377379297
N   N47       1.0  0.82850  0.89890  0.95790  1.0000 -0.377379297
N   N48       1.0  0.17150  0.60110  0.45790  1.0000 -0.377379297
N   N49       1.0  0.42830  0.76610  0.27440  1.0000 -0.1780819446
N   N50       1.0  0.57170  0.73390  0.77440  1.0000 -0.1780819446
N   N51       1.0  0.92830  0.23390  0.22560  1.0000 -0.1780819446
N   N52       1.0  0.07170  0.26610  0.72560  1.0000 -0.1780819446
N   N53       1.0  0.60810  0.96800  0.10510  1.0000 -0.1707081628
N   N54       1.0  0.39190  0.53200  0.60510  1.0000 -0.1707081628
N   N55       1.0  0.10810  0.03200  0.39490  1.0000 -0.1707081628
N   N56       1.0  0.89190  0.46800  0.89490  1.0000 -0.1707081628
N   N57       1.0  0.61040  0.61450  0.09661  1.0000 -0.1885069709
N   N58       1.0  0.38960  0.88550  0.59661  1.0000 -0.1885069709
N   N59       1.0  0.11040  0.38550  0.40339  1.0000 -0.1885069709
N   N60       1.0  0.88960  0.11450  0.90339  1.0000 -0.1885069709
N   N61       1.0  0.53910  0.82960  0.17610  1.0000 -0.4186806034
N   N62       1.0  0.46090  0.67040  0.67610  1.0000 -0.4186806034
N   N63       1.0  0.03910  0.17040  0.32390  1.0000 -0.4186806034
N   N64       1.0  0.96090  0.32960  0.82390  1.0000 -0.4186806034
N   N65       1.0  0.57650  0.79070  0.13080  1.0000 -0.4186806034
N   N66       1.0  0.42350  0.70930  0.63080  1.0000 -0.4186806034
N   N67       1.0  0.07650  0.20930  0.36920  1.0000 -0.4186806034
N   N68       1.0  0.92350  0.29070  0.86920  1.0000 -0.4186806034
N   N69       1.0  0.53670  0.74210  0.17250  1.0000 -0.4110954988
N   N70       1.0  0.46330  0.75790  0.67250  1.0000 -0.4110954988
N   N71       1.0  0.03670  0.25790  0.32750  1.0000 -0.4110954988
N   N72       1.0  0.96330  0.24210  0.82750  1.0000 -0.4110954988
N   N73       1.0  0.42390  0.93460  0.53520  1.0000 -0.1885069709
N   N74       1.0  0.57610  0.56540  0.03520  1.0000 -0.1885069709
N   N75       1.0  0.92390  0.06540  0.96480  1.0000 -0.1885069709
N   N76       1.0  0.07610  0.43460  0.46480  1.0000 -0.1885069709
N   N77       1.0  0.42520  0.78920  0.34380  1.0000 -0.1707081628
N   N78       1.0  0.57480  0.71080  0.84380  1.0000 -0.1707081628
N   N79       1.0  0.92520  0.21080  0.15620  1.0000 -0.1707081628
N   N80       1.0  0.07480  0.28920  0.65620  1.0000 -0.1707081628
N   N81       1.0  0.00810  0.93570  0.42240  1.0000 -0.1780819446
N   N82       1.0  0.99190  0.56430  0.92240  1.0000 -0.1780819446
N   N83       1.0  0.50810  0.06430  0.07760  1.0000 -0.1780819446
N   N84       1.0  0.49190  0.43570  0.57760  1.0000 -0.1780819446
N   N85       1.0  0.52910  0.86430  0.43860  1.0000 -0.377379297
N   N86       1.0  0.47090  0.63570  0.93860  1.0000 -0.377379297
N   N87       1.0  0.02910  0.13570  0.06140  1.0000 -0.377379297
N   N88       1.0  0.97090  0.36430  0.56140  1.0000 -0.377379297
N   N89       1.0  0.67440  0.86330  0.41090  1.0000 -0.3719743777
N   N90       1.0  0.32560  0.63670  0.91090  1.0000 -0.3719743777
N   N91       1.0  0.17440  0.13670  0.08910  1.0000 -0.3719743777
N   N92       1.0  0.82560  0.36330  0.58910  1.0000 -0.3719743777
N   N93       1.0  0.67150  0.89890  0.45790  1.0000 -0.377379297
N   N94       1.0  0.32850  0.60110  0.95790  1.0000 -0.377379297
N   N95       1.0  0.17150  0.10110  0.04210  1.0000 -0.377379297
N   N96       1.0  0.82850  0.39890  0.54210  1.0000 -0.377379297
