# DDEC6 charges by PACMAN v1.1 (https://github.com/mtap-research/PACMAN-charge/)
data_2011[Nd][nan]3[ASR]2
_chemical_formula_sum              "Nd6 H16 C48 S8 Cl2 O32"
_cell_length_a       16.389
_cell_length_b       12.0113
_cell_length_c       12.2966
_cell_angle_alpha    90
_cell_angle_beta     90
_cell_angle_gamma    90

_symmetry_space_group_name_H-M    "P 1"
_symmetry_Int_Tables_number       1

loop_
  _symmetry_equiv_pos_as_xyz
  'x, y, z'

loop_
  _atom_site_type_symbol
  _atom_site_label
  _atom_site_symmetry_multiplicity
  _atom_site_fract_x
  _atom_site_fract_y
  _atom_site_fract_z
  _atom_site_occupancy
  _atom_site_charge
Nd  Nd1       1.0  0.00000  0.50000  0.19106  1.0000 2.0695712781
Nd  Nd2       1.0  0.50000  0.00000  0.80894  1.0000 2.0695712781
Nd  Nd3       1.0  0.02931  0.84170  0.26525  1.0000 2.1218962288
Nd  Nd4       1.0  0.97069  0.15830  0.26525  1.0000 2.1218962288
Nd  Nd5       1.0  0.47069  0.34170  0.73475  1.0000 2.1218962288
Nd  Nd6       1.0  0.52931  0.65830  0.73475  1.0000 2.1218962288
H   H1        1.0  0.34130  0.72024  0.55121  1.0000 0.1264518415
H   H2        1.0  0.65870  0.27976  0.55121  1.0000 0.1209411891
H   H3        1.0  0.15870  0.22024  0.44879  1.0000 0.1264518415
H   H4        1.0  0.84130  0.77976  0.44879  1.0000 0.1264518415
H   H5        1.0  0.18350  0.52444  0.93339  1.0000 0.1264518415
H   H6        1.0  0.81650  0.47556  0.93339  1.0000 0.1264518415
H   H7        1.0  0.31650  0.02444  0.06661  1.0000 0.1264518415
H   H8        1.0  0.68350  0.97556  0.06661  1.0000 0.1264518415
H   H9        1.0  0.21984  0.75800  0.40828  1.0000 0.1209411891
H   H10       1.0  0.78016  0.24200  0.40828  1.0000 0.1209411891
H   H11       1.0  0.28016  0.25800  0.59172  1.0000 0.1209411891
H   H12       1.0  0.71984  0.74200  0.59172  1.0000 0.1264518415
H   H13       1.0  0.32384  0.58281  0.83251  1.0000 0.1209411891
H   H14       1.0  0.67616  0.41719  0.83251  1.0000 0.1209411891
H   H15       1.0  0.17616  0.08281  0.16749  1.0000 0.1209411891
H   H16       1.0  0.82384  0.91719  0.16749  1.0000 0.1209411891
C   C1        1.0  0.34984  0.49552  0.63871  1.0000 0.6201930409
C   C2        1.0  0.65016  0.50448  0.63871  1.0000 0.6201930409
C   C3        1.0  0.15016  0.99552  0.36129  1.0000 0.6201930409
C   C4        1.0  0.84984  0.00448  0.36129  1.0000 0.6201930409
C   C5        1.0  0.36864  0.81774  0.84951  1.0000 0.6414556718
C   C6        1.0  0.63136  0.18226  0.84951  1.0000 0.6414556718
C   C7        1.0  0.13136  0.31774  0.15049  1.0000 0.6414556718
C   C8        1.0  0.86864  0.68226  0.15049  1.0000 0.6414556718
C   C9        1.0  0.29009  0.55366  0.57087  1.0000 -0.1307913425
C   C10       1.0  0.70991  0.44634  0.57087  1.0000 -0.1307913425
C   C11       1.0  0.20991  0.05366  0.42913  1.0000 -0.1307913425
C   C12       1.0  0.79009  0.94634  0.42913  1.0000 -0.1307913425
C   C13       1.0  0.17953  0.58831  0.44250  1.0000 -0.1118668318
C   C14       1.0  0.82047  0.41169  0.44250  1.0000 -0.1118668318
C   C15       1.0  0.32047  0.08831  0.55750  1.0000 -0.1118668318
C   C16       1.0  0.67953  0.91169  0.55750  1.0000 -0.1118668318
C   C17       1.0  0.11111  0.56947  0.36713  1.0000 0.6201930409
C   C18       1.0  0.88889  0.43053  0.36713  1.0000 0.6201930409
C   C19       1.0  0.38889  0.06947  0.63287  1.0000 0.6201930409
C   C20       1.0  0.61111  0.93053  0.63287  1.0000 0.6201930409
C   C21       1.0  0.29345  0.66095  0.52863  1.0000 -0.0926745254
C   C22       1.0  0.70655  0.33905  0.52863  1.0000 -0.0926745254
C   C23       1.0  0.20655  0.16095  0.47137  1.0000 -0.0926745254
C   C24       1.0  0.79345  0.83905  0.47137  1.0000 -0.0926745254
C   C25       1.0  0.30132  0.75114  0.89294  1.0000 -0.1307913425
C   C26       1.0  0.69868  0.24886  0.89294  1.0000 -0.1361833895
C   C27       1.0  0.19868  0.25114  0.10706  1.0000 -0.1361833895
C   C28       1.0  0.80132  0.74886  0.10706  1.0000 -0.1361833895
C   C29       1.0  0.10383  0.69851  0.05497  1.0000 0.6602339363
C   C30       1.0  0.89617  0.30149  0.05497  1.0000 0.6602339363
C   C31       1.0  0.39617  0.19851  0.94503  1.0000 0.6602339363
C   C32       1.0  0.60383  0.80149  0.94503  1.0000 0.6602339363
C   C33       1.0  0.21135  0.60734  0.93047  1.0000 -0.0969039994
C   C34       1.0  0.78865  0.39266  0.93047  1.0000 -0.0969039994
C   C35       1.0  0.28865  0.10734  0.06953  1.0000 -0.0969039994
C   C36       1.0  0.71135  0.89266  0.06953  1.0000 -0.0969039994
C   C37       1.0  0.17670  0.69656  0.98540  1.0000 -0.1246886933
C   C38       1.0  0.82330  0.30344  0.98540  1.0000 -0.1246886933
C   C39       1.0  0.32330  0.19656  0.01460  1.0000 -0.1307913425
C   C40       1.0  0.67670  0.80344  0.01460  1.0000 -0.1307913425
C   C41       1.0  0.22936  0.68114  0.45466  1.0000 -0.1118668318
C   C42       1.0  0.77064  0.31886  0.45466  1.0000 -0.1118668318
C   C43       1.0  0.27064  0.18114  0.54534  1.0000 -0.1118668318
C   C44       1.0  0.72936  0.81886  0.54534  1.0000 -0.1118668318
C   C45       1.0  0.28395  0.63862  0.87798  1.0000 -0.0926745254
C   C46       1.0  0.71605  0.36138  0.87798  1.0000 -0.0926745254
C   C47       1.0  0.21605  0.13862  0.12202  1.0000 -0.0926745254
C   C48       1.0  0.78395  0.86138  0.12202  1.0000 -0.0926745254
S   S1        1.0  0.20943  0.47851  0.52145  1.0000 0.2284377104
S   S2        1.0  0.79057  0.52149  0.52145  1.0000 0.2284377104
S   S3        1.0  0.29057  0.97851  0.47855  1.0000 0.2284377104
S   S4        1.0  0.70943  0.02149  0.47855  1.0000 0.2284377104
S   S5        1.0  0.23139  0.81697  0.97344  1.0000 0.2284377104
S   S6        1.0  0.76861  0.18303  0.97344  1.0000 0.238088803
S   S7        1.0  0.26861  0.31697  0.02656  1.0000 0.238088803
S   S8        1.0  0.73139  0.68303  0.02656  1.0000 0.238088803
Cl  Cl1       1.0  0.00000  0.00000  0.10703  1.0000 -0.6800159399
Cl  Cl2       1.0  0.50000  0.50000  0.89297  1.0000 -0.6800159399
O   O1        1.0  0.08177  0.65266  0.31134  1.0000 -0.7548743868
O   O2        1.0  0.91823  0.34734  0.31134  1.0000 -0.758165883
O   O3        1.0  0.41823  0.15266  0.68866  1.0000 -0.758165883
O   O4        1.0  0.58177  0.84734  0.68866  1.0000 -0.758165883
O   O5        1.0  0.42359  0.76931  0.78979  1.0000 -0.758165883
O   O6        1.0  0.57641  0.23069  0.78979  1.0000 -0.758165883
O   O7        1.0  0.07641  0.26931  0.21021  1.0000 -0.758165883
O   O8        1.0  0.92359  0.73069  0.21021  1.0000 -0.758165883
O   O9        1.0  0.33239  0.39867  0.67635  1.0000 -0.6113439584
O   O10       1.0  0.66761  0.60133  0.67635  1.0000 -0.6113439584
O   O11       1.0  0.16761  0.89867  0.32365  1.0000 -0.6113439584
O   O12       1.0  0.83239  0.10133  0.32365  1.0000 -0.6113439584
O   O13       1.0  0.42156  0.53981  0.65374  1.0000 -0.7747776294
O   O14       1.0  0.57844  0.46019  0.65374  1.0000 -0.7747776294
O   O15       1.0  0.07844  0.03981  0.34626  1.0000 -0.7750277305
O   O16       1.0  0.92156  0.96019  0.34626  1.0000 -0.7747776294
O   O17       1.0  0.08486  0.47000  0.35661  1.0000 -0.5904125357
O   O18       1.0  0.91514  0.53000  0.35661  1.0000 -0.5904125357
O   O19       1.0  0.41514  0.97000  0.64339  1.0000 -0.5904125357
O   O20       1.0  0.58486  0.03000  0.64339  1.0000 -0.5904125357
O   O21       1.0  0.37066  0.92110  0.87226  1.0000 -0.6031277264
O   O22       1.0  0.62934  0.07890  0.87226  1.0000 -0.6031277264
O   O23       1.0  0.12934  0.42110  0.12774  1.0000 -0.6031277264
O   O24       1.0  0.87066  0.57890  0.12774  1.0000 -0.6031277264
O   O25       1.0  0.05412  0.61723  0.05429  1.0000 -0.6430467302
O   O26       1.0  0.94588  0.38277  0.05429  1.0000 -0.6430467302
O   O27       1.0  0.44588  0.11723  0.94571  1.0000 -0.6430467302
O   O28       1.0  0.55412  0.88277  0.94571  1.0000 -0.6430467302
O   O29       1.0  0.09759  0.78704  0.11336  1.0000 -0.6800159399
O   O30       1.0  0.90241  0.21296  0.11336  1.0000 -0.6800159399
O   O31       1.0  0.40241  0.28704  0.88664  1.0000 -0.6800159399
O   O32       1.0  0.59759  0.71296  0.88664  1.0000 -0.6800159399
