# DDEC6 charges by PACMAN v1.1 (https://github.com/mtap-research/PACMAN-charge/)
data_2011[Nd][nan]3[ASR]1
_chemical_formula_sum              "Nd8 H32 C56 N16 O56"
_cell_length_a       10.989
_cell_length_b       11.946
_cell_length_c       19.402
_cell_angle_alpha    90
_cell_angle_beta     90
_cell_angle_gamma    90

_symmetry_space_group_name_H-M    "P 1"
_symmetry_Int_Tables_number       1

loop_
  _symmetry_equiv_pos_as_xyz
  'x, y, z'

loop_
  _atom_site_type_symbol
  _atom_site_label
  _atom_site_symmetry_multiplicity
  _atom_site_fract_x
  _atom_site_fract_y
  _atom_site_fract_z
  _atom_site_occupancy
  _atom_site_charge
Nd  Nd1       1.0  0.86328  0.65819  0.98562  1.0000 1.9446726936
Nd  Nd2       1.0  0.13672  0.34181  0.48562  1.0000 1.9513278105
Nd  Nd3       1.0  0.36328  0.84181  0.48562  1.0000 1.9513278105
Nd  Nd4       1.0  0.63672  0.15819  0.98562  1.0000 1.9446726936
Nd  Nd5       1.0  0.38203  0.47600  0.77145  1.0000 1.9513278105
Nd  Nd6       1.0  0.61797  0.52400  0.27145  1.0000 1.9513278105
Nd  Nd7       1.0  0.88203  0.02400  0.27145  1.0000 1.9513278105
Nd  Nd8       1.0  0.11797  0.97600  0.77145  1.0000 1.9513278105
H   H1        1.0  0.65070  0.50670  0.87820  1.0000 0.1089711982
H   H2        1.0  0.34930  0.49330  0.37820  1.0000 0.1089711982
H   H3        1.0  0.15070  0.99330  0.37820  1.0000 0.1089711982
H   H4        1.0  0.84930  0.00670  0.87820  1.0000 0.1089711982
H   H5        1.0  0.76820  0.75970  0.71790  1.0000 0.1662350642
H   H6        1.0  0.23180  0.24030  0.21790  1.0000 0.1662350642
H   H7        1.0  0.26820  0.74030  0.21790  1.0000 0.1662350642
H   H8        1.0  0.73180  0.25970  0.71790  1.0000 0.1662350642
H   H9        1.0  0.12990  0.60170  0.87430  1.0000 0.1089711982
H   H10       1.0  0.87010  0.39830  0.37430  1.0000 0.1089711982
H   H11       1.0  0.62990  0.89830  0.37430  1.0000 0.1089711982
H   H12       1.0  0.37010  0.10170  0.87430  1.0000 0.1089711982
H   H13       1.0  0.99460  0.24360  0.88520  1.0000 0.1533908892
H   H14       1.0  0.00540  0.75640  0.38520  1.0000 0.1533908892
H   H15       1.0  0.49460  0.25640  0.38520  1.0000 0.1533908892
H   H16       1.0  0.50540  0.74360  0.88520  1.0000 0.1533908892
H   H17       1.0  0.14250  0.63440  0.01360  1.0000 0.3809407997
H   H18       1.0  0.85750  0.36560  0.51360  1.0000 0.3809407997
H   H19       1.0  0.64250  0.86560  0.51360  1.0000 0.3809407997
H   H20       1.0  0.35750  0.13440  0.01360  1.0000 0.3809407997
H   H21       1.0  0.06740  0.69480  0.05690  1.0000 0.3678377467
H   H22       1.0  0.93260  0.30520  0.55690  1.0000 0.3678377467
H   H23       1.0  0.56740  0.80520  0.55690  1.0000 0.3678377467
H   H24       1.0  0.43260  0.19480  0.05690  1.0000 0.3678377467
H   H25       1.0  0.88510  0.85930  0.09090  1.0000 0.3809407997
H   H26       1.0  0.11490  0.14070  0.59090  1.0000 0.3809407997
H   H27       1.0  0.38510  0.64070  0.59090  1.0000 0.3809407997
H   H28       1.0  0.61490  0.35930  0.09090  1.0000 0.3809407997
H   H29       1.0  0.81420  0.86840  0.03360  1.0000 0.3572736728
H   H30       1.0  0.18580  0.13160  0.53360  1.0000 0.3572736728
H   H31       1.0  0.31420  0.63160  0.53360  1.0000 0.3572736728
H   H32       1.0  0.68580  0.36840  0.03360  1.0000 0.3572736728
C   C1        1.0  0.67210  0.56170  0.84660  1.0000 0.2557784218
C   C2        1.0  0.32790  0.43830  0.34660  1.0000 0.2557784218
C   C3        1.0  0.17210  0.93830  0.34660  1.0000 0.2557784218
C   C4        1.0  0.82790  0.06170  0.84660  1.0000 0.2557784218
C   C5        1.0  0.63580  0.64820  0.74420  1.0000 0.160950319
C   C6        1.0  0.36420  0.35180  0.24420  1.0000 0.160950319
C   C7        1.0  0.13580  0.85180  0.24420  1.0000 0.160950319
C   C8        1.0  0.86420  0.14820  0.74420  1.0000 0.160950319
C   C9        1.0  0.74230  0.71040  0.75190  1.0000 -0.171396314
C   C10       1.0  0.25770  0.28960  0.25190  1.0000 -0.171396314
C   C11       1.0  0.24230  0.78960  0.25190  1.0000 -0.171396314
C   C12       1.0  0.75770  0.21040  0.75190  1.0000 -0.171396314
C   C13       1.0  0.80700  0.69600  0.81130  1.0000 0.1533908892
C   C14       1.0  0.19300  0.30400  0.31130  1.0000 0.1533908892
C   C15       1.0  0.30700  0.80400  0.31130  1.0000 0.1533908892
C   C16       1.0  0.69300  0.19600  0.81130  1.0000 0.1533908892
C   C17       1.0  0.91380  0.77060  0.82960  1.0000 0.5830689418
C   C18       1.0  0.08620  0.22940  0.32960  1.0000 0.5830689418
C   C19       1.0  0.41380  0.72940  0.32960  1.0000 0.5830689418
C   C20       1.0  0.58620  0.27060  0.82960  1.0000 0.5830689418
C   C21       1.0  0.55270  0.66740  0.68330  1.0000 0.5525050062
C   C22       1.0  0.44730  0.33260  0.18330  1.0000 0.5525050062
C   C23       1.0  0.05270  0.83260  0.18330  1.0000 0.5525050062
C   C24       1.0  0.94730  0.16740  0.68330  1.0000 0.5525050062
C   C25       1.0  0.10180  0.52830  0.87600  1.0000 0.2681513402
C   C26       1.0  0.89820  0.47170  0.37600  1.0000 0.2681513402
C   C27       1.0  0.60180  0.97170  0.37600  1.0000 0.2681513402
C   C28       1.0  0.39820  0.02830  0.87600  1.0000 0.2681513402
C   C29       1.0  0.12640  0.34510  0.84630  1.0000 0.1662350642
C   C30       1.0  0.87360  0.65490  0.34630  1.0000 0.1662350642
C   C31       1.0  0.62640  0.15490  0.34630  1.0000 0.1662350642
C   C32       1.0  0.37360  0.84510  0.84630  1.0000 0.1662350642
C   C33       1.0  0.02140  0.31730  0.88200  1.0000 -0.171396314
C   C34       1.0  0.97860  0.68270  0.38200  1.0000 -0.171396314
C   C35       1.0  0.52140  0.18270  0.38200  1.0000 -0.171396314
C   C36       1.0  0.47860  0.81730  0.88200  1.0000 -0.171396314
C   C37       1.0  0.95870  0.40390  0.91240  1.0000 0.160950319
C   C38       1.0  0.04130  0.59610  0.41240  1.0000 0.160950319
C   C39       1.0  0.45870  0.09610  0.41240  1.0000 0.160950319
C   C40       1.0  0.54130  0.90390  0.91240  1.0000 0.160950319
C   C41       1.0  0.83950  0.38400  0.94990  1.0000 0.5830689418
C   C42       1.0  0.16050  0.61600  0.44990  1.0000 0.5830689418
C   C43       1.0  0.33950  0.11600  0.44990  1.0000 0.5830689418
C   C44       1.0  0.66050  0.88400  0.94990  1.0000 0.5830689418
C   C45       1.0  0.20400  0.25540  0.81210  1.0000 0.5963752765
C   C46       1.0  0.79600  0.74460  0.31210  1.0000 0.5963752765
C   C47       1.0  0.70400  0.24460  0.31210  1.0000 0.5963752765
C   C48       1.0  0.29600  0.75540  0.81210  1.0000 0.5963752765
C   C49       1.0  0.20080  0.43510  0.64010  1.0000 0.508381595
C   C50       1.0  0.79920  0.56490  0.14010  1.0000 0.508381595
C   C51       1.0  0.70080  0.06490  0.14010  1.0000 0.508381595
C   C52       1.0  0.29920  0.93510  0.64010  1.0000 0.508381595
C   C53       1.0  0.32260  0.38260  0.61630  1.0000 0.5033060807
C   C54       1.0  0.67740  0.61740  0.11630  1.0000 0.5033060807
C   C55       1.0  0.82260  0.11740  0.11630  1.0000 0.5033060807
C   C56       1.0  0.17740  0.88260  0.61630  1.0000 0.5033060807
N   N1        1.0  0.77240  0.62120  0.86000  1.0000 -0.3721338739
N   N2        1.0  0.22760  0.37880  0.36000  1.0000 -0.3721338739
N   N3        1.0  0.27240  0.87880  0.36000  1.0000 -0.3778065485
N   N4        1.0  0.72760  0.12120  0.86000  1.0000 -0.3721338739
N   N5        1.0  0.60010  0.57430  0.79180  1.0000 -0.3778065485
N   N6        1.0  0.39990  0.42570  0.29180  1.0000 -0.3778065485
N   N7        1.0  0.10010  0.92570  0.29180  1.0000 -0.3778065485
N   N8        1.0  0.89990  0.07430  0.79180  1.0000 -0.3778065485
N   N9        1.0  0.99950  0.50910  0.91130  1.0000 -0.3721338739
N   N10       1.0  0.00050  0.49090  0.41130  1.0000 -0.3721338739
N   N11       1.0  0.49950  0.99090  0.41130  1.0000 -0.3721338739
N   N12       1.0  0.50050  0.00910  0.91130  1.0000 -0.3721338739
N   N13       1.0  0.16710  0.45080  0.84290  1.0000 -0.3599532646
N   N14       1.0  0.83290  0.54920  0.34290  1.0000 -0.3599532646
N   N15       1.0  0.66710  0.04920  0.34290  1.0000 -0.3599532646
N   N16       1.0  0.33290  0.95080  0.84290  1.0000 -0.3599532646
O   O1        1.0  0.95530  0.76130  0.88994  1.0000 -0.6196080771
O   O2        1.0  0.04470  0.23870  0.38994  1.0000 -0.6196080771
O   O3        1.0  0.45530  0.73870  0.38994  1.0000 -0.6196080771
O   O4        1.0  0.54470  0.26130  0.88994  1.0000 -0.6196080771
O   O5        1.0  0.94970  0.83780  0.78412  1.0000 -0.600870679
O   O6        1.0  0.05030  0.16220  0.28412  1.0000 -0.600870679
O   O7        1.0  0.44970  0.66220  0.28412  1.0000 -0.600870679
O   O8        1.0  0.55030  0.33780  0.78412  1.0000 -0.600870679
O   O9        1.0  0.45710  0.60810  0.68093  1.0000 -0.6196080771
O   O10       1.0  0.54290  0.39190  0.18093  1.0000 -0.6196080771
O   O11       1.0  0.95710  0.89190  0.18093  1.0000 -0.6196080771
O   O12       1.0  0.04290  0.10810  0.68093  1.0000 -0.6196080771
O   O13       1.0  0.58520  0.73830  0.64190  1.0000 -0.5016632479
O   O14       1.0  0.41480  0.26170  0.14190  1.0000 -0.5016632479
O   O15       1.0  0.08520  0.76170  0.14190  1.0000 -0.5016632479
O   O16       1.0  0.91480  0.23830  0.64190  1.0000 -0.5016632479
O   O17       1.0  0.79160  0.46550  0.98140  1.0000 -0.6265071433
O   O18       1.0  0.20840  0.53450  0.48140  1.0000 -0.6265071433
O   O19       1.0  0.29160  0.03450  0.48140  1.0000 -0.6265071433
O   O20       1.0  0.70840  0.96550  0.98140  1.0000 -0.6265071433
O   O21       1.0  0.79430  0.28860  0.94334  1.0000 -0.5912709635
O   O22       1.0  0.20570  0.71140  0.44334  1.0000 -0.5912709635
O   O23       1.0  0.29430  0.21140  0.44334  1.0000 -0.5912709635
O   O24       1.0  0.70570  0.78860  0.94334  1.0000 -0.5912709635
O   O25       1.0  0.29950  0.28690  0.78349  1.0000 -0.5766801538
O   O26       1.0  0.70050  0.71310  0.28349  1.0000 -0.5766801538
O   O27       1.0  0.79950  0.21310  0.28349  1.0000 -0.5766801538
O   O28       1.0  0.20050  0.78690  0.78349  1.0000 -0.5766801538
O   O29       1.0  0.16590  0.15730  0.81620  1.0000 -0.6513204229
O   O30       1.0  0.83410  0.84270  0.31620  1.0000 -0.6513204229
O   O31       1.0  0.66590  0.34270  0.31620  1.0000 -0.6513204229
O   O32       1.0  0.33410  0.65730  0.81620  1.0000 -0.6513204229
O   O33       1.0  0.11070  0.42100  0.60240  1.0000 -0.5766801538
O   O34       1.0  0.88930  0.57900  0.10240  1.0000 -0.5766801538
O   O35       1.0  0.61070  0.07900  0.10240  1.0000 -0.5766801538
O   O36       1.0  0.38930  0.92100  0.60240  1.0000 -0.5766801538
O   O37       1.0  0.20480  0.48910  0.69560  1.0000 -0.5766801538
O   O38       1.0  0.79520  0.51090  0.19560  1.0000 -0.5766801538
O   O39       1.0  0.70480  0.01090  0.19560  1.0000 -0.5766801538
O   O40       1.0  0.29520  0.98910  0.69560  1.0000 -0.5766801538
O   O41       1.0  0.32590  0.34850  0.55542  1.0000 -0.5734914791
O   O42       1.0  0.67410  0.65150  0.05542  1.0000 -0.5734914791
O   O43       1.0  0.82590  0.15150  0.05542  1.0000 -0.5734914791
O   O44       1.0  0.17410  0.84850  0.55542  1.0000 -0.5734914791
O   O45       1.0  0.40820  0.37960  0.65991  1.0000 -0.5587694746
O   O46       1.0  0.59180  0.62040  0.15991  1.0000 -0.5587694746
O   O47       1.0  0.90820  0.12040  0.15991  1.0000 -0.5587694746
O   O48       1.0  0.09180  0.87960  0.65991  1.0000 -0.5587694746
O   O49       1.0  0.07980  0.67790  0.01348  1.0000 -0.7503447783
O   O50       1.0  0.92020  0.32210  0.51348  1.0000 -0.7503447783
O   O51       1.0  0.57980  0.82210  0.51348  1.0000 -0.7503447783
O   O52       1.0  0.42020  0.17790  0.01348  1.0000 -0.7503447783
O   O53       1.0  0.88450  0.83850  0.04700  1.0000 -0.7663184655
O   O54       1.0  0.11550  0.16150  0.54700  1.0000 -0.7663184655
O   O55       1.0  0.38450  0.66150  0.54700  1.0000 -0.7663184655
O   O56       1.0  0.61550  0.33850  0.04700  1.0000 -0.7663184655
