# DDEC6 charges by PACMAN v1.1 (https://github.com/mtap-research/PACMAN-charge/)
data_2011[Nd][rob]3[ASR]3
_chemical_formula_sum              "Nd8 H24 C72 S12 O48"
_cell_length_a       17.0072
_cell_length_b       12.1455
_cell_length_c       27.524
_cell_angle_alpha    90
_cell_angle_beta     114.738
_cell_angle_gamma    90

_symmetry_space_group_name_H-M    "P 1"
_symmetry_Int_Tables_number       1

loop_
  _symmetry_equiv_pos_as_xyz
  'x, y, z'

loop_
  _atom_site_type_symbol
  _atom_site_label
  _atom_site_symmetry_multiplicity
  _atom_site_fract_x
  _atom_site_fract_y
  _atom_site_fract_z
  _atom_site_occupancy
  _atom_site_charge
Nd  Nd1       1.0  0.56638  0.02740  0.58101  1.0000 2.0773751475
Nd  Nd2       1.0  0.43362  0.02740  0.91899  1.0000 2.0773751475
Nd  Nd3       1.0  0.43362  0.97260  0.41899  1.0000 2.0773751475
Nd  Nd4       1.0  0.56638  0.97260  0.08101  1.0000 2.0773751475
Nd  Nd5       1.0  0.04357  0.50092  0.58282  1.0000 2.1034605242
Nd  Nd6       1.0  0.95643  0.50092  0.91718  1.0000 2.1059720255
Nd  Nd7       1.0  0.95643  0.49908  0.41718  1.0000 2.1059720255
Nd  Nd8       1.0  0.04357  0.49908  0.08282  1.0000 2.1059720255
H   H1        1.0  0.83970  0.01610  0.76430  1.0000 0.1322424396
H   H2        1.0  0.16030  0.01610  0.73570  1.0000 0.1322424396
H   H3        1.0  0.16030  0.98390  0.23570  1.0000 0.1322424396
H   H4        1.0  0.83970  0.98390  0.26430  1.0000 0.1322424396
H   H5        1.0  0.92450  0.90030  0.84100  1.0000 0.1322424396
H   H6        1.0  0.07550  0.90030  0.65900  1.0000 0.1366175152
H   H7        1.0  0.07550  0.09970  0.15900  1.0000 0.1366175152
H   H8        1.0  0.92450  0.09970  0.34100  1.0000 0.1366175152
H   H9        1.0  0.64410  0.23190  0.39610  1.0000 0.1322424396
H   H10       1.0  0.35590  0.23190  0.10390  1.0000 0.1322424396
H   H11       1.0  0.35590  0.76810  0.60390  1.0000 0.1322424396
H   H12       1.0  0.64410  0.76810  0.89610  1.0000 0.1322424396
H   H13       1.0  0.77680  0.32950  0.41060  1.0000 0.1322424396
H   H14       1.0  0.22320  0.32950  0.08940  1.0000 0.1322424396
H   H15       1.0  0.22320  0.67050  0.58940  1.0000 0.1322424396
H   H16       1.0  0.77680  0.67050  0.91060  1.0000 0.1322424396
H   H17       1.0  0.67600  0.63300  0.40850  1.0000 0.1322424396
H   H18       1.0  0.32400  0.63300  0.09150  1.0000 0.1322424396
H   H19       1.0  0.32400  0.36700  0.59150  1.0000 0.1322424396
H   H20       1.0  0.67600  0.36700  0.90850  1.0000 0.1322424396
H   H21       1.0  0.57190  0.74500  0.42530  1.0000 0.1204291545
H   H22       1.0  0.42810  0.74500  0.07470  1.0000 0.1204291545
H   H23       1.0  0.42810  0.25500  0.57470  1.0000 0.1204291545
H   H24       1.0  0.57190  0.25500  0.92530  1.0000 0.1204291545
C   C1        1.0  0.74880  0.89720  0.73670  1.0000 -0.1098902291
C   C2        1.0  0.25120  0.89720  0.76330  1.0000 -0.1098902291
C   C3        1.0  0.25120  0.10280  0.26330  1.0000 -0.1098902291
C   C4        1.0  0.74880  0.10280  0.23670  1.0000 -0.1098902291
C   C5        1.0  0.82280  0.94610  0.76990  1.0000 -0.1002877187
C   C6        1.0  0.17720  0.94610  0.73010  1.0000 -0.1002877187
C   C7        1.0  0.17720  0.05390  0.23010  1.0000 -0.1002877187
C   C8        1.0  0.82280  0.05390  0.26990  1.0000 -0.1002877187
C   C9        1.0  0.87170  0.87910  0.81400  1.0000 -0.1002877187
C   C10       1.0  0.12830  0.87910  0.68600  1.0000 -0.1002877187
C   C11       1.0  0.12830  0.12090  0.18600  1.0000 -0.1002877187
C   C12       1.0  0.87170  0.12090  0.31400  1.0000 -0.1002877187
C   C13       1.0  0.83400  0.78120  0.81300  1.0000 -0.1178455655
C   C14       1.0  0.16600  0.78120  0.68700  1.0000 -0.1178455655
C   C15       1.0  0.16600  0.21880  0.18700  1.0000 -0.1098902291
C   C16       1.0  0.83400  0.21880  0.31300  1.0000 -0.1178455655
C   C17       1.0  0.68230  0.94310  0.68570  1.0000 0.5840867795
C   C18       1.0  0.31770  0.94310  0.81430  1.0000 0.5840867795
C   C19       1.0  0.31770  0.05690  0.31430  1.0000 0.5840867795
C   C20       1.0  0.68230  0.05690  0.18570  1.0000 0.5840867795
C   C21       1.0  0.87110  0.68970  0.85090  1.0000 0.5673981495
C   C22       1.0  0.12890  0.68970  0.64910  1.0000 0.5673981495
C   C23       1.0  0.12890  0.31030  0.14910  1.0000 0.5673981495
C   C24       1.0  0.87110  0.31030  0.35090  1.0000 0.5673981495
C   C25       1.0  0.69440  0.18350  0.47360  1.0000 -0.1178455655
C   C26       1.0  0.30560  0.18350  0.02640  1.0000 -0.1178455655
C   C27       1.0  0.30560  0.81650  0.52640  1.0000 -0.1178455655
C   C28       1.0  0.69440  0.81650  0.97360  1.0000 -0.1178455655
C   C29       1.0  0.69180  0.23470  0.42900  1.0000 -0.1098902291
C   C30       1.0  0.30820  0.23470  0.07100  1.0000 -0.1098902291
C   C31       1.0  0.30820  0.76530  0.57100  1.0000 -0.1098902291
C   C32       1.0  0.69180  0.76530  0.92900  1.0000 -0.1098902291
C   C33       1.0  0.76790  0.29210  0.43740  1.0000 -0.1098902291
C   C34       1.0  0.23210  0.29210  0.06260  1.0000 -0.1098902291
C   C35       1.0  0.23210  0.70790  0.56260  1.0000 -0.1098902291
C   C36       1.0  0.76790  0.70790  0.93740  1.0000 -0.1098902291
C   C37       1.0  0.82690  0.28680  0.48890  1.0000 -0.1272751186
C   C38       1.0  0.17310  0.28680  0.01110  1.0000 -0.1272751186
C   C39       1.0  0.17310  0.71320  0.51110  1.0000 -0.1272751186
C   C40       1.0  0.82690  0.71320  0.98890  1.0000 -0.1272751186
C   C41       1.0  0.62610  0.11590  0.48110  1.0000 0.6432734393
C   C42       1.0  0.37390  0.11590  0.01890  1.0000 0.6432734393
C   C43       1.0  0.37390  0.88410  0.51890  1.0000 0.6432734393
C   C44       1.0  0.62610  0.88410  0.98110  1.0000 0.6432734393
C   C45       1.0  0.91220  0.33910  0.51500  1.0000 0.6266144402
C   C46       1.0  0.08780  0.33910  0.98500  1.0000 0.6266144402
C   C47       1.0  0.08780  0.66090  0.48500  1.0000 0.6266144402
C   C48       1.0  0.91220  0.66090  0.01500  1.0000 0.6266144402
C   C49       1.0  0.76500  0.65880  0.48440  1.0000 -0.1178455655
C   C50       1.0  0.23500  0.65880  0.01560  1.0000 -0.1178455655
C   C51       1.0  0.23500  0.34120  0.51560  1.0000 -0.1178455655
C   C52       1.0  0.76500  0.34120  0.98440  1.0000 -0.1178455655
C   C53       1.0  0.68770  0.66680  0.44110  1.0000 -0.1098902291
C   C54       1.0  0.31230  0.66680  0.05890  1.0000 -0.1178455655
C   C55       1.0  0.31230  0.33320  0.55890  1.0000 -0.1098902291
C   C56       1.0  0.68770  0.33320  0.94110  1.0000 -0.1098902291
C   C57       1.0  0.62780  0.73100  0.45070  1.0000 -0.1360314339
C   C58       1.0  0.37220  0.73100  0.04930  1.0000 -0.1360314339
C   C59       1.0  0.37220  0.26900  0.54930  1.0000 -0.1360314339
C   C60       1.0  0.62780  0.26900  0.95070  1.0000 -0.1360314339
C   C61       1.0  0.66030  0.77090  0.50180  1.0000 -0.1178455655
C   C62       1.0  0.33970  0.77090  0.99820  1.0000 -0.1178455655
C   C63       1.0  0.33970  0.22910  0.49820  1.0000 -0.1178455655
C   C64       1.0  0.66030  0.22910  0.00180  1.0000 -0.1178455655
C   C65       1.0  0.84530  0.60090  0.48860  1.0000 0.6432734393
C   C66       1.0  0.15470  0.60090  0.01140  1.0000 0.6432734393
C   C67       1.0  0.15470  0.39910  0.51140  1.0000 0.6432734393
C   C68       1.0  0.84530  0.39910  0.98860  1.0000 0.6432734393
C   C69       1.0  0.61860  0.84670  0.52640  1.0000 0.6169650145
C   C70       1.0  0.38140  0.84670  0.97360  1.0000 0.6169650145
C   C71       1.0  0.38140  0.15330  0.47360  1.0000 0.6169650145
C   C72       1.0  0.61860  0.15330  0.02640  1.0000 0.6169650145
S   S1        1.0  0.73639  0.76983  0.75852  1.0000 0.1908596791
S   S2        1.0  0.26361  0.76983  0.74148  1.0000 0.1908596791
S   S3        1.0  0.26361  0.23017  0.24148  1.0000 0.1832076348
S   S4        1.0  0.73639  0.23017  0.25852  1.0000 0.1832076348
S   S5        1.0  0.78916  0.20991  0.52757  1.0000 0.2626273669
S   S6        1.0  0.21084  0.20991  0.97243  1.0000 0.2626273669
S   S7        1.0  0.21084  0.79009  0.47243  1.0000 0.2744585611
S   S8        1.0  0.78916  0.79009  0.02757  1.0000 0.2626273669
S   S9        1.0  0.76324  0.72473  0.53826  1.0000 0.2005783059
S   S10       1.0  0.23676  0.72473  0.96174  1.0000 0.2005783059
S   S11       1.0  0.23676  0.27527  0.46174  1.0000 0.2005783059
S   S12       1.0  0.76324  0.27527  0.03826  1.0000 0.2005783059
O   O1        1.0  0.61090  0.89520  0.66280  1.0000 -0.6434011243
O   O2        1.0  0.38910  0.89520  0.83720  1.0000 -0.6500785271
O   O3        1.0  0.38910  0.10480  0.33720  1.0000 -0.6500785271
O   O4        1.0  0.61090  0.10480  0.16280  1.0000 -0.6500785271
O   O5        1.0  0.70040  0.02840  0.66650  1.0000 -0.6768711867
O   O6        1.0  0.29960  0.02840  0.83350  1.0000 -0.6721297498
O   O7        1.0  0.29960  0.97160  0.33350  1.0000 -0.6768711867
O   O8        1.0  0.70040  0.97160  0.16650  1.0000 -0.6768711867
O   O9        1.0  0.94650  0.70050  0.88730  1.0000 -0.6037487201
O   O10       1.0  0.05350  0.70050  0.61270  1.0000 -0.6037487201
O   O11       1.0  0.05350  0.29950  0.11270  1.0000 -0.6037487201
O   O12       1.0  0.94650  0.29950  0.38730  1.0000 -0.6037487201
O   O13       1.0  0.82830  0.60110  0.84570  1.0000 -0.6721297498
O   O14       1.0  0.17170  0.60110  0.65430  1.0000 -0.6721297498
O   O15       1.0  0.17170  0.39890  0.15430  1.0000 -0.6721297498
O   O16       1.0  0.82830  0.39890  0.34570  1.0000 -0.6721297498
O   O17       1.0  0.64190  0.08880  0.52792  1.0000 -0.6609388851
O   O18       1.0  0.35810  0.08880  0.97208  1.0000 -0.6609388851
O   O19       1.0  0.35810  0.91120  0.47208  1.0000 -0.6609388851
O   O20       1.0  0.64190  0.91120  0.02792  1.0000 -0.6609388851
O   O21       1.0  0.55910  0.09300  0.43990  1.0000 -0.6609388851
O   O22       1.0  0.44090  0.09300  0.06010  1.0000 -0.6609388851
O   O23       1.0  0.44090  0.90700  0.56010  1.0000 -0.6609388851
O   O24       1.0  0.55910  0.90700  0.93990  1.0000 -0.6609388851
O   O25       1.0  0.94560  0.38890  0.48800  1.0000 -0.7229242585
O   O26       1.0  0.05440  0.38890  0.01200  1.0000 -0.7229242585
O   O27       1.0  0.05440  0.61110  0.51200  1.0000 -0.7229242585
O   O28       1.0  0.94560  0.61110  0.98800  1.0000 -0.7229242585
O   O29       1.0  0.95090  0.33490  0.56530  1.0000 -0.6434011243
O   O30       1.0  0.04910  0.33490  0.93470  1.0000 -0.6434011243
O   O31       1.0  0.04910  0.66510  0.43470  1.0000 -0.6434011243
O   O32       1.0  0.95090  0.66510  0.06530  1.0000 -0.6434011243
O   O33       1.0  0.90000  0.57970  0.53490  1.0000 -0.6500785271
O   O34       1.0  0.10000  0.57970  0.96510  1.0000 -0.6500785271
O   O35       1.0  0.10000  0.42030  0.46510  1.0000 -0.6500785271
O   O36       1.0  0.90000  0.42030  0.03490  1.0000 -0.6500785271
O   O37       1.0  0.85130  0.57990  0.44550  1.0000 -0.6721297498
O   O38       1.0  0.14870  0.57990  0.05450  1.0000 -0.6721297498
O   O39       1.0  0.14870  0.42010  0.55450  1.0000 -0.6721297498
O   O40       1.0  0.85130  0.42010  0.94550  1.0000 -0.6721297498
O   O41       1.0  0.65810  0.86960  0.57480  1.0000 -0.5689174197
O   O42       1.0  0.34190  0.86960  0.92520  1.0000 -0.5689174197
O   O43       1.0  0.34190  0.13040  0.42520  1.0000 -0.5689174197
O   O44       1.0  0.65810  0.13040  0.07480  1.0000 -0.5689174197
O   O45       1.0  0.54610  0.88780  0.49755  1.0000 -0.7483228557
O   O46       1.0  0.45390  0.88780  0.00245  1.0000 -0.7483228557
O   O47       1.0  0.45390  0.11220  0.50245  1.0000 -0.7483228557
O   O48       1.0  0.54610  0.11220  0.99755  1.0000 -0.7483228557
