# DDEC6 charges by PACMAN v1.1 (https://github.com/mtap-research/PACMAN-charge/)
data_2011[U][nan]3[ASR]3
_chemical_formula_sum              "U24 H12 C60 O72"
_cell_length_a       13.198
_cell_length_b       14.852
_cell_length_c       23.407
_cell_angle_alpha    90
_cell_angle_beta     90
_cell_angle_gamma    90

_symmetry_space_group_name_H-M    "P 1"
_symmetry_Int_Tables_number       1

loop_
  _symmetry_equiv_pos_as_xyz
  'x, y, z'

loop_
  _atom_site_type_symbol
  _atom_site_label
  _atom_site_symmetry_multiplicity
  _atom_site_fract_x
  _atom_site_fract_y
  _atom_site_fract_z
  _atom_site_occupancy
  _atom_site_charge
U   U1        1.0  0.35240  0.20052  0.19158  1.0000 2.3417861145
U   U2        1.0  0.64760  0.79948  0.19158  1.0000 2.3417861145
U   U3        1.0  0.14760  0.70052  0.30842  1.0000 2.3417861145
U   U4        1.0  0.85240  0.29948  0.30842  1.0000 2.3417861145
U   U5        1.0  0.64760  0.79948  0.80842  1.0000 2.3417861145
U   U6        1.0  0.35240  0.20052  0.80842  1.0000 2.3417861145
U   U7        1.0  0.85240  0.29948  0.69158  1.0000 2.3417861145
U   U8        1.0  0.14760  0.70052  0.69158  1.0000 2.3417861145
U   U9        1.0  0.01202  0.19351  0.19290  1.0000 2.3992061299
U   U10       1.0  0.98798  0.80649  0.19290  1.0000 2.3992061299
U   U11       1.0  0.48798  0.69351  0.30710  1.0000 2.3992061299
U   U12       1.0  0.51202  0.30649  0.30710  1.0000 2.3992061299
U   U13       1.0  0.98798  0.80649  0.80710  1.0000 2.3992061299
U   U14       1.0  0.01202  0.19351  0.80710  1.0000 2.3992061299
U   U15       1.0  0.51202  0.30649  0.69290  1.0000 2.3992061299
U   U16       1.0  0.48798  0.69351  0.69290  1.0000 2.3992061299
U   U17       1.0  0.16852  0.31457  0.30433  1.0000 2.369133858
U   U18       1.0  0.83148  0.68543  0.30433  1.0000 2.369133858
U   U19       1.0  0.33148  0.81457  0.19567  1.0000 2.369133858
U   U20       1.0  0.66852  0.18543  0.19567  1.0000 2.369133858
U   U21       1.0  0.83148  0.68543  0.69567  1.0000 2.369133858
U   U22       1.0  0.16852  0.31457  0.69567  1.0000 2.369133858
U   U23       1.0  0.66852  0.18543  0.80433  1.0000 2.369133858
U   U24       1.0  0.33148  0.81457  0.80433  1.0000 2.369133858
H   H1        1.0  0.21372  0.15535  0.00000  1.0000 0.0875557792
H   H2        1.0  0.78628  0.84465  0.00000  1.0000 0.0875557792
H   H3        1.0  0.28628  0.65535  0.50000  1.0000 0.0875557792
H   H4        1.0  0.71372  0.34465  0.50000  1.0000 0.0875557792
H   H5        1.0  0.13969  0.84519  0.00000  1.0000 0.0837883037
H   H6        1.0  0.86031  0.15481  0.00000  1.0000 0.0837883037
H   H7        1.0  0.36031  0.34519  0.50000  1.0000 0.0837883037
H   H8        1.0  0.63969  0.65481  0.50000  1.0000 0.0837883037
H   H9        1.0  0.50101  0.15948  0.00000  1.0000 0.0875557792
H   H10       1.0  0.49899  0.84052  0.00000  1.0000 0.0875557792
H   H11       1.0  0.99899  0.65948  0.50000  1.0000 0.0875557792
H   H12       1.0  0.00101  0.34052  0.50000  1.0000 0.0875557792
C   C1        1.0  0.18080  0.09960  0.10570  1.0000 0.5717277807
C   C2        1.0  0.81920  0.90040  0.10570  1.0000 0.5717277807
C   C3        1.0  0.31920  0.59960  0.39430  1.0000 0.5717277807
C   C4        1.0  0.68080  0.40040  0.39430  1.0000 0.5717277807
C   C5        1.0  0.81920  0.90040  0.89430  1.0000 0.5717277807
C   C6        1.0  0.18080  0.09960  0.89430  1.0000 0.5717277807
C   C7        1.0  0.68080  0.40040  0.60570  1.0000 0.5717277807
C   C8        1.0  0.31920  0.59960  0.60570  1.0000 0.5717277807
C   C9        1.0  0.19680  0.09250  0.00000  1.0000 -0.1824476737
C   C10       1.0  0.80320  0.90750  0.00000  1.0000 -0.1824476737
C   C11       1.0  0.30320  0.59250  0.50000  1.0000 -0.1824476737
C   C12       1.0  0.69680  0.40750  0.50000  1.0000 -0.1824476737
C   C13       1.0  0.50810  0.09980  0.10560  1.0000 0.5445436519
C   C14       1.0  0.49190  0.90020  0.10560  1.0000 0.5445436519
C   C15       1.0  0.99190  0.59980  0.39440  1.0000 0.5445436519
C   C16       1.0  0.00810  0.40020  0.39440  1.0000 0.5445436519
C   C17       1.0  0.49190  0.90020  0.89440  1.0000 0.5445436519
C   C18       1.0  0.50810  0.09980  0.89440  1.0000 0.5445436519
C   C19       1.0  0.00810  0.40020  0.60560  1.0000 0.5445436519
C   C20       1.0  0.99190  0.59980  0.60560  1.0000 0.5445436519
C   C21       1.0  0.49900  0.04800  0.05190  1.0000 -0.0910832169
C   C22       1.0  0.50100  0.95200  0.05190  1.0000 -0.0910832169
C   C23       1.0  0.00100  0.54800  0.44810  1.0000 -0.0910832169
C   C24       1.0  0.99900  0.45200  0.44810  1.0000 -0.0910832169
C   C25       1.0  0.50100  0.95200  0.94810  1.0000 -0.0910832169
C   C26       1.0  0.49900  0.04800  0.94810  1.0000 -0.0910832169
C   C27       1.0  0.99900  0.45200  0.55190  1.0000 -0.0910832169
C   C28       1.0  0.00100  0.54800  0.55190  1.0000 -0.0910832169
C   C29       1.0  0.18430  0.04630  0.05140  1.0000 -0.0910832169
C   C30       1.0  0.81570  0.95370  0.05140  1.0000 -0.0910832169
C   C31       1.0  0.31570  0.54630  0.44860  1.0000 -0.0910832169
C   C32       1.0  0.68430  0.45370  0.44860  1.0000 -0.0910832169
C   C33       1.0  0.81570  0.95370  0.94860  1.0000 -0.0910832169
C   C34       1.0  0.18430  0.04630  0.94860  1.0000 -0.0910832169
C   C35       1.0  0.68430  0.45370  0.55140  1.0000 -0.0910832169
C   C36       1.0  0.31570  0.54630  0.55140  1.0000 -0.0910832169
C   C37       1.0  0.15320  0.90870  0.00000  1.0000 -0.1585284155
C   C38       1.0  0.84680  0.09130  0.00000  1.0000 -0.1585284155
C   C39       1.0  0.34680  0.40870  0.50000  1.0000 -0.1585284155
C   C40       1.0  0.65320  0.59130  0.50000  1.0000 -0.1585284155
C   C41       1.0  0.16300  0.95460  0.05170  1.0000 -0.1125096771
C   C42       1.0  0.83700  0.04540  0.05170  1.0000 -0.1125096771
C   C43       1.0  0.33700  0.45460  0.44830  1.0000 -0.1125096771
C   C44       1.0  0.66300  0.54540  0.44830  1.0000 -0.1125096771
C   C45       1.0  0.83700  0.04540  0.94830  1.0000 -0.1125096771
C   C46       1.0  0.16300  0.95460  0.94830  1.0000 -0.1125096771
C   C47       1.0  0.66300  0.54540  0.55170  1.0000 -0.1125096771
C   C48       1.0  0.33700  0.45460  0.55170  1.0000 -0.1125096771
C   C49       1.0  0.15270  0.90250  0.10530  1.0000 0.581848709
C   C50       1.0  0.84730  0.09750  0.10530  1.0000 0.581848709
C   C51       1.0  0.34730  0.40250  0.39470  1.0000 0.581848709
C   C52       1.0  0.65270  0.59750  0.39470  1.0000 0.581848709
C   C53       1.0  0.84730  0.09750  0.89470  1.0000 0.581848709
C   C54       1.0  0.15270  0.90250  0.89470  1.0000 0.581848709
C   C55       1.0  0.65270  0.59750  0.60530  1.0000 0.581848709
C   C56       1.0  0.34730  0.40250  0.60530  1.0000 0.581848709
C   C57       1.0  0.49980  0.09490  0.00000  1.0000 -0.1585284155
C   C58       1.0  0.50020  0.90510  0.00000  1.0000 -0.1585284155
C   C59       1.0  0.00020  0.59490  0.50000  1.0000 -0.1585284155
C   C60       1.0  0.99980  0.40510  0.50000  1.0000 -0.1585284155
O   O1        1.0  0.18010  0.19350  0.23460  1.0000 -1.3890294749
O   O2        1.0  0.81990  0.80650  0.23460  1.0000 -1.3890294749
O   O3        1.0  0.31990  0.69350  0.26540  1.0000 -1.3890294749
O   O4        1.0  0.68010  0.30650  0.26540  1.0000 -1.3890294749
O   O5        1.0  0.81990  0.80650  0.76540  1.0000 -1.3890294749
O   O6        1.0  0.18010  0.19350  0.76540  1.0000 -1.3890294749
O   O7        1.0  0.68010  0.30650  0.73460  1.0000 -1.3890294749
O   O8        1.0  0.31990  0.69350  0.73460  1.0000 -1.3890294749
O   O9        1.0  0.08120  0.84540  0.10810  1.0000 -0.6767777819
O   O10       1.0  0.91880  0.15460  0.10810  1.0000 -0.6767777819
O   O11       1.0  0.41880  0.34540  0.39190  1.0000 -0.6767777819
O   O12       1.0  0.58120  0.65460  0.39190  1.0000 -0.6767777819
O   O13       1.0  0.91880  0.15460  0.89190  1.0000 -0.6767777819
O   O14       1.0  0.08120  0.84540  0.89190  1.0000 -0.6767777819
O   O15       1.0  0.58120  0.65460  0.60810  1.0000 -0.6767777819
O   O16       1.0  0.41880  0.34540  0.60810  1.0000 -0.6767777819
O   O17       1.0  0.56980  0.07720  0.14260  1.0000 -0.6382523197
O   O18       1.0  0.43020  0.92280  0.14260  1.0000 -0.6382523197
O   O19       1.0  0.93020  0.57720  0.35740  1.0000 -0.6382523197
O   O20       1.0  0.06980  0.42280  0.35740  1.0000 -0.6382523197
O   O21       1.0  0.43020  0.92280  0.85740  1.0000 -0.6382523197
O   O22       1.0  0.56980  0.07720  0.85740  1.0000 -0.6382523197
O   O23       1.0  0.06980  0.42280  0.64260  1.0000 -0.6382523197
O   O24       1.0  0.93020  0.57720  0.64260  1.0000 -0.6382523197
O   O25       1.0  0.10810  0.08660  0.13910  1.0000 -0.6694030482
O   O26       1.0  0.89190  0.91340  0.13910  1.0000 -0.6694030482
O   O27       1.0  0.39190  0.58660  0.36090  1.0000 -0.6694030482
O   O28       1.0  0.60810  0.41340  0.36090  1.0000 -0.6694030482
O   O29       1.0  0.89190  0.91340  0.86090  1.0000 -0.6694030482
O   O30       1.0  0.10810  0.08660  0.86090  1.0000 -0.6694030482
O   O31       1.0  0.60810  0.41340  0.63910  1.0000 -0.6694030482
O   O32       1.0  0.39190  0.58660  0.63910  1.0000 -0.6694030482
O   O33       1.0  0.22090  0.91000  0.14370  1.0000 -0.7160538453
O   O34       1.0  0.77910  0.09000  0.14370  1.0000 -0.7160538453
O   O35       1.0  0.27910  0.41000  0.35630  1.0000 -0.7160538453
O   O36       1.0  0.72090  0.59000  0.35630  1.0000 -0.7160538453
O   O37       1.0  0.77910  0.09000  0.85630  1.0000 -0.7160538453
O   O38       1.0  0.22090  0.91000  0.85630  1.0000 -0.7160538453
O   O39       1.0  0.72090  0.59000  0.64370  1.0000 -0.7160538453
O   O40       1.0  0.27910  0.41000  0.64370  1.0000 -0.7160538453
O   O41       1.0  0.51190  0.22090  0.22630  1.0000 -1.4903578181
O   O42       1.0  0.48810  0.77910  0.22630  1.0000 -1.4903578181
O   O43       1.0  0.98810  0.72090  0.27370  1.0000 -1.4903578181
O   O44       1.0  0.01190  0.27910  0.27370  1.0000 -1.4903578181
O   O45       1.0  0.48810  0.77910  0.77370  1.0000 -1.4903578181
O   O46       1.0  0.51190  0.22090  0.77370  1.0000 -1.4903578181
O   O47       1.0  0.01190  0.27910  0.72630  1.0000 -1.4903578181
O   O48       1.0  0.98810  0.72090  0.72630  1.0000 -1.4903578181
O   O49       1.0  0.24590  0.16280  0.11230  1.0000 -0.7122381646
O   O50       1.0  0.75410  0.83720  0.11230  1.0000 -0.7122381646
O   O51       1.0  0.25410  0.66280  0.38770  1.0000 -0.7122381646
O   O52       1.0  0.74590  0.33720  0.38770  1.0000 -0.7122381646
O   O53       1.0  0.75410  0.83720  0.88770  1.0000 -0.7122381646
O   O54       1.0  0.24590  0.16280  0.88770  1.0000 -0.7122381646
O   O55       1.0  0.74590  0.33720  0.61230  1.0000 -0.7122381646
O   O56       1.0  0.25410  0.66280  0.61230  1.0000 -0.7122381646
O   O57       1.0  0.45320  0.17120  0.10840  1.0000 -0.7007685471
O   O58       1.0  0.54680  0.82880  0.10840  1.0000 -0.7007685471
O   O59       1.0  0.04680  0.67120  0.39160  1.0000 -0.7007685471
O   O60       1.0  0.95320  0.32880  0.39160  1.0000 -0.7007685471
O   O61       1.0  0.54680  0.82880  0.89160  1.0000 -0.7007685471
O   O62       1.0  0.45320  0.17120  0.89160  1.0000 -0.7007685471
O   O63       1.0  0.95320  0.32880  0.60840  1.0000 -0.7007685471
O   O64       1.0  0.04680  0.67120  0.60840  1.0000 -0.7007685471
O   O65       1.0  0.34290  0.24930  0.29090  1.0000 -1.4003868121
O   O66       1.0  0.65710  0.75070  0.29090  1.0000 -1.4003868121
O   O67       1.0  0.15710  0.74930  0.20910  1.0000 -1.4003868121
O   O68       1.0  0.84290  0.25070  0.20910  1.0000 -1.4003868121
O   O69       1.0  0.65710  0.75070  0.70910  1.0000 -1.4003868121
O   O70       1.0  0.34290  0.24930  0.70910  1.0000 -1.4003868121
O   O71       1.0  0.84290  0.25070  0.79090  1.0000 -1.4003868121
O   O72       1.0  0.15710  0.74930  0.79090  1.0000 -1.4003868121
