# DDEC6 charges by PACMAN v1.1 (https://github.com/mtap-research/PACMAN-charge/)
data_2011[Co][rtl]3[ASR]2
_chemical_formula_sum              "Co4 H32 C48 N8 O16"
_cell_length_a       9.819
_cell_length_b       12.6499
_cell_length_c       11.0731
_cell_angle_alpha    90
_cell_angle_beta     99.852
_cell_angle_gamma    90

_symmetry_space_group_name_H-M    "P 1"
_symmetry_Int_Tables_number       1

loop_
  _symmetry_equiv_pos_as_xyz
  'x, y, z'

loop_
  _atom_site_type_symbol
  _atom_site_label
  _atom_site_symmetry_multiplicity
  _atom_site_fract_x
  _atom_site_fract_y
  _atom_site_fract_z
  _atom_site_occupancy
  _atom_site_charge
Co  Co1       1.0  0.87280  0.56632  0.75077  1.0000 0.9232188217
Co  Co2       1.0  0.12720  0.06632  0.24923  1.0000 0.9232188217
Co  Co3       1.0  0.37640  0.56436  0.74812  1.0000 0.9232188217
Co  Co4       1.0  0.62360  0.06436  0.25188  1.0000 0.9232188217
H   H1        1.0  0.10340  0.45860  0.36740  1.0000 0.138986312
H   H2        1.0  0.89660  0.95860  0.63260  1.0000 0.138986312
H   H3        1.0  0.85150  0.51550  0.01590  1.0000 0.1092671349
H   H4        1.0  0.14850  0.01550  0.98410  1.0000 0.1092671349
H   H5        1.0  0.45440  0.73500  0.00780  1.0000 0.1295769087
H   H6        1.0  0.54560  0.23500  0.99220  1.0000 0.1295769087
H   H7        1.0  0.10290  0.31270  0.24130  1.0000 0.1028378973
H   H8        1.0  0.89710  0.81270  0.75870  1.0000 0.1028378973
H   H9        1.0  0.60290  0.83940  0.51260  1.0000 0.1295769087
H   H10       1.0  0.39710  0.33940  0.48740  1.0000 0.1295769087
H   H11       1.0  0.10550  0.25880  0.64690  1.0000 0.138986312
H   H12       1.0  0.89450  0.75880  0.35310  1.0000 0.138986312
H   H13       1.0  0.44540  0.88480  0.13140  1.0000 0.1028378973
H   H14       1.0  0.55460  0.38480  0.86860  1.0000 0.1028378973
H   H15       1.0  0.84110  0.37700  0.14820  1.0000 0.1295769087
H   H16       1.0  0.15890  0.87700  0.85180  1.0000 0.1295769087
H   H17       1.0  0.12090  0.12330  0.51920  1.0000 0.1092671349
H   H18       1.0  0.87910  0.62330  0.48080  1.0000 0.1092671349
H   H19       1.0  0.19470  0.74580  0.62720  1.0000 0.1092671349
H   H20       1.0  0.80530  0.24580  0.37280  1.0000 0.1092671349
H   H21       1.0  0.58790  0.69820  0.64180  1.0000 0.1092671349
H   H22       1.0  0.41210  0.19820  0.35820  1.0000 0.1092671349
H   H23       1.0  0.85280  0.80010  0.00780  1.0000 0.1295769087
H   H24       1.0  0.14720  0.30010  0.99220  1.0000 0.1295769087
H   H25       1.0  0.87160  0.18190  0.86880  1.0000 0.138986312
H   H26       1.0  0.12840  0.68190  0.13120  1.0000 0.138986312
H   H27       1.0  0.87180  0.32320  0.74560  1.0000 0.1092671349
H   H28       1.0  0.12820  0.82320  0.25440  1.0000 0.1092671349
H   H29       1.0  0.19230  0.88090  0.49420  1.0000 0.1295769087
H   H30       1.0  0.80770  0.38090  0.50580  1.0000 0.1295769087
H   H31       1.0  0.83650  0.93980  0.13530  1.0000 0.1028378973
H   H32       1.0  0.16350  0.43980  0.86470  1.0000 0.1028378973
C   C1        1.0  0.65210  0.66480  0.89780  1.0000 0.5616734377
C   C2        1.0  0.34790  0.16480  0.10220  1.0000 0.5616734377
C   C3        1.0  0.65210  0.75410  0.98920  1.0000 0.0272131316
C   C4        1.0  0.34790  0.25410  0.01080  1.0000 0.0272131316
C   C5        1.0  0.10460  0.39070  0.39970  1.0000 -0.1851369986
C   C6        1.0  0.89540  0.89070  0.60030  1.0000 -0.1851369986
C   C7        1.0  0.85310  0.44700  0.98570  1.0000 0.1028378973
C   C8        1.0  0.14690  0.94700  0.01430  1.0000 0.1028378973
C   C9        1.0  0.53230  0.77700  0.03000  1.0000 -0.1543920436
C   C10       1.0  0.46770  0.27700  0.97000  1.0000 -0.1543920436
C   C11       1.0  0.10720  0.30160  0.32490  1.0000 0.0785356699
C   C12       1.0  0.89280  0.80160  0.67510  1.0000 0.0785356699
C   C13       1.0  0.40740  0.96690  0.39820  1.0000 0.5691362174
C   C14       1.0  0.59260  0.46690  0.60180  1.0000 0.5691362174
C   C15       1.0  0.09290  0.46650  0.60480  1.0000 0.5691362174
C   C16       1.0  0.90710  0.96650  0.39520  1.0000 0.5691362174
C   C17       1.0  0.39750  0.87500  0.48690  1.0000 0.0272131316
C   C18       1.0  0.60250  0.37500  0.51310  1.0000 0.0272131316
C   C19       1.0  0.10390  0.37410  0.52390  1.0000 0.0139741073
C   C20       1.0  0.89610  0.87410  0.47610  1.0000 0.0139741073
C   C21       1.0  0.51850  0.82020  0.53330  1.0000 -0.1543920436
C   C22       1.0  0.48150  0.32020  0.46670  1.0000 -0.1543920436
C   C23       1.0  0.10790  0.27240  0.56480  1.0000 -0.1690194574
C   C24       1.0  0.89210  0.77240  0.43520  1.0000 -0.1690194574
C   C25       1.0  0.52840  0.86640  0.10710  1.0000 0.0881992294
C   C26       1.0  0.47160  0.36640  0.89290  1.0000 0.0881992294
C   C27       1.0  0.84740  0.36400  0.06670  1.0000 -0.2001131349
C   C28       1.0  0.15260  0.86400  0.93330  1.0000 -0.2001131349
C   C29       1.0  0.11540  0.19130  0.48690  1.0000 0.0635044589
C   C30       1.0  0.88460  0.69130  0.51310  1.0000 0.0635044589
C   C31       1.0  0.27720  0.76370  0.60170  1.0000 0.0881992294
C   C32       1.0  0.72280  0.26370  0.39830  1.0000 0.0881992294
C   C33       1.0  0.50830  0.73630  0.61130  1.0000 0.0785356699
C   C34       1.0  0.49170  0.23630  0.38870  1.0000 0.0785356699
C   C35       1.0  0.76860  0.81570  0.03150  1.0000 -0.1690194574
C   C36       1.0  0.23140  0.31570  0.96850  1.0000 -0.1690194574
C   C37       1.0  0.86410  0.24900  0.90130  1.0000 -0.1690194574
C   C38       1.0  0.13590  0.74900  0.09870  1.0000 -0.1690194574
C   C39       1.0  0.86630  0.33390  0.82770  1.0000 0.0417612526
C   C40       1.0  0.13370  0.83390  0.17230  1.0000 0.0417612526
C   C41       1.0  0.27430  0.84540  0.52320  1.0000 -0.1690194574
C   C42       1.0  0.72570  0.34540  0.47680  1.0000 -0.1690194574
C   C43       1.0  0.84660  0.16760  0.10900  1.0000 0.5691362174
C   C44       1.0  0.15340  0.66760  0.89100  1.0000 0.5691362174
C   C45       1.0  0.75800  0.89940  0.10830  1.0000 0.0881992294
C   C46       1.0  0.24200  0.39940  0.89170  1.0000 0.0881992294
C   C47       1.0  0.85130  0.25830  0.02260  1.0000 0.0249843462
C   C48       1.0  0.14870  0.75830  0.97740  1.0000 0.0249843462
N   N1        1.0  0.11540  0.20200  0.36520  1.0000 -0.2454753951
N   N2        1.0  0.88460  0.70200  0.63480  1.0000 -0.2454753951
N   N3        1.0  0.38790  0.70700  0.64540  1.0000 -0.2384862178
N   N4        1.0  0.61210  0.20700  0.35460  1.0000 -0.2384862178
N   N5        1.0  0.86070  0.43500  0.86970  1.0000 -0.2384862178
N   N6        1.0  0.13930  0.93500  0.13030  1.0000 -0.2384862178
N   N7        1.0  0.64180  0.92510  0.14570  1.0000 -0.2454753951
N   N8        1.0  0.35820  0.42510  0.85430  1.0000 -0.2454753951
O   O1        1.0  0.55520  0.60550  0.87520  1.0000 -0.5086080083
O   O2        1.0  0.44480  0.10550  0.12480  1.0000 -0.5086080083
O   O3        1.0  0.29900  0.02080  0.37090  1.0000 -0.5585862446
O   O4        1.0  0.70100  0.52080  0.62910  1.0000 -0.5585862446
O   O5        1.0  0.98480  0.47440  0.64560  1.0000 -0.5478563556
O   O6        1.0  0.01520  0.97440  0.35440  1.0000 -0.5478563556
O   O7        1.0  0.51820  0.98080  0.36470  1.0000 -0.531877006
O   O8        1.0  0.48180  0.48080  0.63530  1.0000 -0.531877006
O   O9        1.0  0.19380  0.53230  0.62570  1.0000 -0.5585862446
O   O10       1.0  0.80620  0.03230  0.37430  1.0000 -0.5585862446
O   O11       1.0  0.73400  0.15960  0.14720  1.0000 -0.5585862446
O   O12       1.0  0.26600  0.65960  0.85280  1.0000 -0.5585862446
O   O13       1.0  0.94750  0.10890  0.12630  1.0000 -0.5478563556
O   O14       1.0  0.05250  0.60890  0.87370  1.0000 -0.5478563556
O   O15       1.0  0.76770  0.66450  0.85160  1.0000 -0.6083781966
O   O16       1.0  0.23230  0.16450  0.14840  1.0000 -0.6083781966
