# DDEC6 charges by PACMAN v1.1 (https://github.com/mtap-research/PACMAN-charge/)
data_2011[Eu][pcu]3[ASR]1
_chemical_formula_sum              "Eu8 H144 C200 S4 O52"
_cell_length_a       16.5736
_cell_length_b       21.7897
_cell_length_c       35.132
_cell_angle_alpha    90
_cell_angle_beta     90
_cell_angle_gamma    90

_symmetry_space_group_name_H-M    "P 1"
_symmetry_Int_Tables_number       1

loop_
  _symmetry_equiv_pos_as_xyz
  'x, y, z'

loop_
  _atom_site_type_symbol
  _atom_site_label
  _atom_site_symmetry_multiplicity
  _atom_site_fract_x
  _atom_site_fract_y
  _atom_site_fract_z
  _atom_site_occupancy
  _atom_site_charge
Eu  Eu1       1.0  0.24283  0.92568  0.38597  1.0000 2.1010727612
Eu  Eu2       1.0  0.25717  0.07432  0.88597  1.0000 2.1010727612
Eu  Eu3       1.0  0.17561  0.10520  0.37925  1.0000 2.0839823214
Eu  Eu4       1.0  0.32439  0.89480  0.87925  1.0000 2.0839823214
Eu  Eu5       1.0  0.75717  0.42568  0.11403  1.0000 2.1010727612
Eu  Eu6       1.0  0.74283  0.57432  0.61403  1.0000 2.1010727612
Eu  Eu7       1.0  0.82439  0.60520  0.12075  1.0000 2.0839823214
Eu  Eu8       1.0  0.67561  0.39480  0.62075  1.0000 2.0839823214
H   H1        1.0  0.27460  0.92930  0.25710  1.0000 0.1303288902
H   H2        1.0  0.22540  0.07070  0.75710  1.0000 0.1303288902
H   H3        1.0  0.28600  0.93250  0.19050  1.0000 0.1118956633
H   H4        1.0  0.21400  0.06750  0.69050  1.0000 0.1118956633
H   H5        1.0  0.25600  0.11770  0.19440  1.0000 0.1118956633
H   H6        1.0  0.24400  0.88230  0.69440  1.0000 0.1118956633
H   H7        1.0  0.24220  0.11100  0.26090  1.0000 0.1303288902
H   H8        1.0  0.25780  0.88900  0.76090  1.0000 0.1303288902
H   H9        1.0  0.26830  0.06690  0.13190  1.0000 0.1118956633
H   H10       1.0  0.23170  0.93310  0.63190  1.0000 0.1118956633
H   H11       1.0  0.46400  0.15310  0.39010  1.0000 0.1303288902
H   H12       1.0  0.03600  0.84690  0.89010  1.0000 0.1303288902
H   H13       1.0  0.60190  0.13980  0.37860  1.0000 0.1191015227
H   H14       1.0  0.89810  0.86020  0.87860  1.0000 0.1191015227
H   H15       1.0  0.57350  0.95490  0.39140  1.0000 0.1118956633
H   H16       1.0  0.92650  0.04510  0.89140  1.0000 0.1118956633
H   H17       1.0  0.43490  0.97050  0.40300  1.0000 0.1118956633
H   H18       1.0  0.06510  0.02950  0.90300  1.0000 0.1118956633
H   H19       1.0  0.71810  0.07800  0.37980  1.0000 0.1118956633
H   H20       1.0  0.78190  0.92200  0.87980  1.0000 0.1118956633
H   H21       1.0  0.36680  0.89810  0.00920  1.0000 0.1303288902
H   H22       1.0  0.13320  0.10190  0.50920  1.0000 0.1303288902
H   H23       1.0  0.35650  0.90140  0.07560  1.0000 0.1191015227
H   H24       1.0  0.14350  0.09860  0.57560  1.0000 0.1191015227
H   H25       1.0  0.27270  0.07580  0.07090  1.0000 0.1118956633
H   H26       1.0  0.22730  0.92420  0.57090  1.0000 0.1118956633
H   H27       1.0  0.28040  0.07350  0.00470  1.0000 0.1303288902
H   H28       1.0  0.21960  0.92650  0.50470  1.0000 0.1303288902
H   H29       1.0  0.31830  0.94690  0.13320  1.0000 0.1118956633
H   H30       1.0  0.18170  0.05310  0.63320  1.0000 0.1118956633
H   H31       1.0  0.95850  0.87730  0.37440  1.0000 0.140159666
H   H32       1.0  0.54150  0.12270  0.87440  1.0000 0.140159666
H   H33       1.0  0.81980  0.88990  0.37770  1.0000 0.1118956633
H   H34       1.0  0.68020  0.11010  0.87770  1.0000 0.1118956633
H   H35       1.0  0.84140  0.07240  0.36000  1.0000 0.1043116664
H   H36       1.0  0.65860  0.92760  0.86000  1.0000 0.1043116664
H   H37       1.0  0.98320  0.06200  0.35750  1.0000 0.1191015227
H   H38       1.0  0.51680  0.93800  0.85750  1.0000 0.1191015227
H   H39       1.0  0.69960  0.95180  0.38040  1.0000 0.1118956633
H   H40       1.0  0.80040  0.04820  0.88040  1.0000 0.1118956633
H   H41       1.0  0.20630  0.71490  0.33350  1.0000 0.1303288902
H   H42       1.0  0.29370  0.28510  0.83350  1.0000 0.1191015227
H   H43       1.0  0.19180  0.60740  0.33750  1.0000 0.1118956633
H   H44       1.0  0.30820  0.39260  0.83750  1.0000 0.1118956633
H   H45       1.0  0.13480  0.62400  0.44900  1.0000 0.1191015227
H   H46       1.0  0.36520  0.37600  0.94900  1.0000 0.1191015227
H   H47       1.0  0.15520  0.72990  0.44600  1.0000 0.1303288902
H   H48       1.0  0.34480  0.27010  0.94600  1.0000 0.1303288902
H   H49       1.0  0.12150  0.52130  0.42030  1.0000 0.1118956633
H   H50       1.0  0.37850  0.47870  0.92030  1.0000 0.1118956633
H   H51       1.0  0.15290  0.31490  0.43520  1.0000 0.1191015227
H   H52       1.0  0.34710  0.68510  0.93520  1.0000 0.1191015227
H   H53       1.0  0.14100  0.42330  0.43080  1.0000 0.1118956633
H   H54       1.0  0.35900  0.57670  0.93080  1.0000 0.1118956633
H   H55       1.0  0.21000  0.41720  0.32170  1.0000 0.1118956633
H   H56       1.0  0.29000  0.58280  0.82170  1.0000 0.1118956633
H   H57       1.0  0.22190  0.30910  0.32440  1.0000 0.1191015227
H   H58       1.0  0.27810  0.69090  0.82440  1.0000 0.1191015227
H   H59       1.0  0.19790  0.51610  0.34960  1.0000 0.1043116664
H   H60       1.0  0.30210  0.48390  0.84960  1.0000 0.1043116664
H   H61       1.0  0.93230  0.22470  0.29420  1.0000 0.140159666
H   H62       1.0  0.56770  0.77530  0.79420  1.0000 0.140159666
H   H63       1.0  0.91960  0.16760  0.32220  1.0000 0.1600171146
H   H64       1.0  0.58040  0.83240  0.82220  1.0000 0.1600171146
H   H65       1.0  0.95220  0.15670  0.27980  1.0000 0.1711771545
H   H66       1.0  0.54780  0.84330  0.77980  1.0000 0.1600171146
H   H67       1.0  0.08210  0.25450  0.26670  1.0000 0.1474124369
H   H68       1.0  0.41790  0.74550  0.76670  1.0000 0.1474124369
H   H69       1.0  0.08140  0.18390  0.25410  1.0000 0.1600171146
H   H70       1.0  0.41860  0.81610  0.75410  1.0000 0.1600171146
H   H71       1.0  0.15790  0.21150  0.27600  1.0000 0.1711771545
H   H72       1.0  0.34210  0.78850  0.77600  1.0000 0.1711771545
H   H73       1.0  0.72540  0.42930  0.24290  1.0000 0.1303288902
H   H74       1.0  0.77460  0.57070  0.74290  1.0000 0.1303288902
H   H75       1.0  0.71400  0.43250  0.30950  1.0000 0.1118956633
H   H76       1.0  0.78600  0.56750  0.80950  1.0000 0.1118956633
H   H77       1.0  0.74400  0.61770  0.30560  1.0000 0.1118956633
H   H78       1.0  0.75600  0.38230  0.80560  1.0000 0.1118956633
H   H79       1.0  0.75780  0.61100  0.23910  1.0000 0.1303288902
H   H80       1.0  0.74220  0.38900  0.73910  1.0000 0.1303288902
H   H81       1.0  0.73170  0.56690  0.36810  1.0000 0.1118956633
H   H82       1.0  0.76830  0.43310  0.86810  1.0000 0.1118956633
H   H83       1.0  0.53600  0.65310  0.10990  1.0000 0.1303288902
H   H84       1.0  0.96400  0.34690  0.60990  1.0000 0.140159666
H   H85       1.0  0.39810  0.63980  0.12140  1.0000 0.1191015227
H   H86       1.0  0.10190  0.36020  0.62140  1.0000 0.1191015227
H   H87       1.0  0.42650  0.45490  0.10860  1.0000 0.1118956633
H   H88       1.0  0.07350  0.54510  0.60860  1.0000 0.1118956633
H   H89       1.0  0.56510  0.47050  0.09700  1.0000 0.1118956633
H   H90       1.0  0.93490  0.52950  0.59700  1.0000 0.1118956633
H   H91       1.0  0.28190  0.57800  0.12020  1.0000 0.1118956633
H   H92       1.0  0.21810  0.42200  0.62020  1.0000 0.1118956633
H   H93       1.0  0.63320  0.39810  0.49080  1.0000 0.1303288902
H   H94       1.0  0.86680  0.60190  0.99080  1.0000 0.1303288902
H   H95       1.0  0.64350  0.40140  0.42440  1.0000 0.1191015227
H   H96       1.0  0.85650  0.59860  0.92440  1.0000 0.1191015227
H   H97       1.0  0.72730  0.57580  0.42910  1.0000 0.1118956633
H   H98       1.0  0.77270  0.42420  0.92910  1.0000 0.1118956633
H   H99       1.0  0.71960  0.57350  0.49530  1.0000 0.1303288902
H   H100      1.0  0.78040  0.42650  0.99530  1.0000 0.1303288902
H   H101      1.0  0.68170  0.44690  0.36680  1.0000 0.1118956633
H   H102      1.0  0.81830  0.55310  0.86680  1.0000 0.1118956633
H   H103      1.0  0.04150  0.37730  0.12560  1.0000 0.140159666
H   H104      1.0  0.45850  0.62270  0.62560  1.0000 0.140159666
H   H105      1.0  0.18020  0.38990  0.12230  1.0000 0.1118956633
H   H106      1.0  0.31980  0.61010  0.62230  1.0000 0.1118956633
H   H107      1.0  0.15860  0.57240  0.14000  1.0000 0.1043116664
H   H108      1.0  0.34140  0.42760  0.64000  1.0000 0.1043116664
H   H109      1.0  0.01680  0.56200  0.14250  1.0000 0.1191015227
H   H110      1.0  0.48320  0.43800  0.64250  1.0000 0.1191015227
H   H111      1.0  0.30040  0.45180  0.11960  1.0000 0.1118956633
H   H112      1.0  0.19960  0.54820  0.61960  1.0000 0.1118956633
H   H113      1.0  0.79370  0.21490  0.16650  1.0000 0.1191015227
H   H114      1.0  0.70630  0.78510  0.66650  1.0000 0.1191015227
H   H115      1.0  0.80820  0.10740  0.16250  1.0000 0.1118956633
H   H116      1.0  0.69180  0.89260  0.66250  1.0000 0.1118956633
H   H117      1.0  0.86520  0.12400  0.05100  1.0000 0.1191015227
H   H118      1.0  0.63480  0.87600  0.55100  1.0000 0.1191015227
H   H119      1.0  0.84480  0.22990  0.05400  1.0000 0.1303288902
H   H120      1.0  0.65520  0.77010  0.55400  1.0000 0.1303288902
H   H121      1.0  0.87850  0.02130  0.07970  1.0000 0.1118956633
H   H122      1.0  0.62150  0.97870  0.57970  1.0000 0.1118956633
H   H123      1.0  0.84710  0.81490  0.06480  1.0000 0.1191015227
H   H124      1.0  0.65290  0.18510  0.56480  1.0000 0.1191015227
H   H125      1.0  0.85900  0.92330  0.06920  1.0000 0.1118956633
H   H126      1.0  0.64100  0.07670  0.56920  1.0000 0.1118956633
H   H127      1.0  0.79000  0.91720  0.17830  1.0000 0.1118956633
H   H128      1.0  0.71000  0.08280  0.67830  1.0000 0.1118956633
H   H129      1.0  0.77810  0.80910  0.17560  1.0000 0.1191015227
H   H130      1.0  0.72190  0.19090  0.67560  1.0000 0.1191015227
H   H131      1.0  0.80210  0.01610  0.15040  1.0000 0.1043116664
H   H132      1.0  0.69790  0.98390  0.65040  1.0000 0.1043116664
H   H133      1.0  0.06770  0.72470  0.20580  1.0000 0.140159666
H   H134      1.0  0.43230  0.27530  0.70580  1.0000 0.140159666
H   H135      1.0  0.08040  0.66760  0.17780  1.0000 0.1600171146
H   H136      1.0  0.41960  0.33240  0.67780  1.0000 0.1600171146
H   H137      1.0  0.04780  0.65670  0.22020  1.0000 0.1600171146
H   H138      1.0  0.45220  0.34330  0.72020  1.0000 0.1711771545
H   H139      1.0  0.91790  0.75450  0.23330  1.0000 0.1474124369
H   H140      1.0  0.58210  0.24550  0.73330  1.0000 0.1474124369
H   H141      1.0  0.91860  0.68390  0.24590  1.0000 0.1600171146
H   H142      1.0  0.58140  0.31610  0.74590  1.0000 0.1600171146
H   H143      1.0  0.84210  0.71150  0.22400  1.0000 0.1711771545
H   H144      1.0  0.65790  0.28850  0.72400  1.0000 0.1760024605
C   C1        1.0  0.24970  0.01740  0.30780  1.0000 0.6421709684
C   C2        1.0  0.25030  0.98260  0.80780  1.0000 0.6421709684
C   C3        1.0  0.25810  0.01920  0.26550  1.0000 -0.0411312488
C   C4        1.0  0.24190  0.98080  0.76550  1.0000 -0.0411312488
C   C5        1.0  0.27070  0.96770  0.24450  1.0000 -0.081824465
C   C6        1.0  0.22930  0.03230  0.74450  1.0000 -0.081824465
C   C7        1.0  0.27810  0.96930  0.20460  1.0000 -0.167543727
C   C8        1.0  0.22190  0.03070  0.70460  1.0000 -0.167543727
C   C9        1.0  0.27350  0.02540  0.18640  1.0000 0.1303288902
C   C10       1.0  0.22650  0.97460  0.68640  1.0000 0.1303288902
C   C11       1.0  0.25990  0.07920  0.20690  1.0000 -0.167543727
C   C12       1.0  0.24010  0.92080  0.70690  1.0000 -0.167543727
C   C13       1.0  0.25200  0.07480  0.24660  1.0000 -0.0888300598
C   C14       1.0  0.24800  0.92520  0.74660  1.0000 -0.0888300598
C   C15       1.0  0.28170  0.02890  0.14360  1.0000 -0.1400068386
C   C16       1.0  0.21830  0.97110  0.64360  1.0000 -0.1400068386
C   C17       1.0  0.34410  0.07090  0.39460  1.0000 0.626745793
C   C18       1.0  0.15590  0.92910  0.89460  1.0000 0.626745793
C   C19       1.0  0.43490  0.06150  0.39280  1.0000 -0.0197478062
C   C20       1.0  0.06510  0.93850  0.89280  1.0000 -0.0197478062
C   C21       1.0  0.48620  0.11290  0.38910  1.0000 -0.081824465
C   C22       1.0  0.01380  0.88710  0.88910  1.0000 -0.081824465
C   C23       1.0  0.56850  0.10550  0.38400  1.0000 -0.1518397111
C   C24       1.0  0.93150  0.89450  0.88400  1.0000 -0.1518397111
C   C25       1.0  0.60170  0.04700  0.38680  1.0000 0.1118956633
C   C26       1.0  0.89830  0.95300  0.88680  1.0000 0.1191015227
C   C27       1.0  0.55150  0.99520  0.39160  1.0000 -0.1518397111
C   C28       1.0  0.94850  0.00480  0.89160  1.0000 -0.1518397111
C   C29       1.0  0.46840  0.00440  0.39670  1.0000 -0.1085522247
C   C30       1.0  0.03160  0.99560  0.89670  1.0000 -0.1085522247
C   C31       1.0  0.68800  0.04100  0.38130  1.0000 -0.1518397111
C   C32       1.0  0.81200  0.95900  0.88130  1.0000 -0.1518397111
C   C33       1.0  0.32560  0.98410  0.95820  1.0000 0.6464564232
C   C34       1.0  0.17440  0.01590  0.45820  1.0000 0.6464564232
C   C35       1.0  0.32550  0.98790  0.00000  1.0000 -0.0603613286
C   C36       1.0  0.17450  0.01210  0.50000  1.0000 -0.0603613286
C   C37       1.0  0.34800  0.93410  0.02170  1.0000 -0.081824465
C   C38       1.0  0.15200  0.06590  0.52170  1.0000 -0.081824465
C   C39       1.0  0.34160  0.93630  0.06110  1.0000 -0.1594211646
C   C40       1.0  0.15840  0.06370  0.56110  1.0000 -0.1594211646
C   C41       1.0  0.31400  0.98830  0.07950  1.0000 0.1191015227
C   C42       1.0  0.18600  0.01170  0.57950  1.0000 0.1191015227
C   C43       1.0  0.29150  0.04000  0.05830  1.0000 -0.1594211646
C   C44       1.0  0.20850  0.96000  0.55830  1.0000 -0.1594211646
C   C45       1.0  0.29690  0.03860  0.01890  1.0000 -0.0888300598
C   C46       1.0  0.20310  0.96140  0.51890  1.0000 -0.0888300598
C   C47       1.0  0.30530  0.98490  0.12150  1.0000 -0.1400068386
C   C48       1.0  0.19470  0.01510  0.62150  1.0000 -0.1400068386
C   C49       1.0  0.07360  0.96230  0.36790  1.0000 0.6236341027
C   C50       1.0  0.42640  0.03770  0.86790  1.0000 0.6236341027
C   C51       1.0  0.98420  0.96820  0.36590  1.0000 -0.0197478062
C   C52       1.0  0.51580  0.03180  0.86590  1.0000 -0.0197478062
C   C53       1.0  0.93540  0.91700  0.37190  1.0000 -0.0888300598
C   C54       1.0  0.56460  0.08300  0.87190  1.0000 -0.0888300598
C   C55       1.0  0.85300  0.92500  0.37410  1.0000 -0.1518397111
C   C56       1.0  0.64700  0.07500  0.87410  1.0000 -0.1518397111
C   C57       1.0  0.81600  0.98260  0.37120  1.0000 0.1191015227
C   C58       1.0  0.68400  0.01740  0.87120  1.0000 0.1191015227
C   C59       1.0  0.86530  0.03330  0.36370  1.0000 -0.1518397111
C   C60       1.0  0.63470  0.96670  0.86370  1.0000 -0.1518397111
C   C61       1.0  0.94990  0.02710  0.36170  1.0000 -0.1085522247
C   C62       1.0  0.55010  0.97290  0.86170  1.0000 -0.1085522247
C   C63       1.0  0.72950  0.98880  0.37800  1.0000 -0.1518397111
C   C64       1.0  0.77050  0.01120  0.87800  1.0000 -0.1594211646
C   C65       1.0  0.20570  0.80000  0.38740  1.0000 0.5684027848
C   C66       1.0  0.29430  0.20000  0.88740  1.0000 0.5684027848
C   C67       1.0  0.18470  0.73160  0.38910  1.0000 -0.0035039293
C   C68       1.0  0.31530  0.26840  0.88910  1.0000 -0.0035039293
C   C69       1.0  0.19330  0.69630  0.35710  1.0000 -0.0888300598
C   C70       1.0  0.30670  0.30370  0.85710  1.0000 -0.0888300598
C   C71       1.0  0.18260  0.63220  0.35940  1.0000 -0.1594211646
C   C72       1.0  0.31740  0.36780  0.85940  1.0000 -0.1594211646
C   C73       1.0  0.15870  0.60510  0.39360  1.0000 0.1191015227
C   C74       1.0  0.34130  0.39490  0.89360  1.0000 0.1191015227
C   C75       1.0  0.14980  0.64230  0.42550  1.0000 -0.1518397111
C   C76       1.0  0.35020  0.35770  0.92550  1.0000 -0.1518397111
C   C77       1.0  0.16200  0.70520  0.42390  1.0000 -0.0888300598
C   C78       1.0  0.33800  0.29480  0.92390  1.0000 -0.0888300598
C   C79       1.0  0.14820  0.53700  0.39840  1.0000 -0.1594211646
C   C80       1.0  0.35180  0.46300  0.89840  1.0000 -0.1594211646
C   C81       1.0  0.19530  0.23490  0.38200  1.0000 0.5530579713
C   C82       1.0  0.30470  0.76510  0.88200  1.0000 0.5530579713
C   C83       1.0  0.18670  0.30390  0.38040  1.0000 -0.0065929125
C   C84       1.0  0.31330  0.69610  0.88040  1.0000 -0.0065929125
C   C85       1.0  0.16410  0.33550  0.41190  1.0000 -0.0888300598
C   C86       1.0  0.33590  0.66450  0.91190  1.0000 -0.0888300598
C   C87       1.0  0.15790  0.40030  0.40930  1.0000 -0.1594211646
C   C88       1.0  0.34210  0.59970  0.90930  1.0000 -0.1594211646
C   C89       1.0  0.17590  0.43060  0.37580  1.0000 0.1118956633
C   C90       1.0  0.32410  0.56940  0.87580  1.0000 0.1118956633
C   C91       1.0  0.19850  0.39660  0.34490  1.0000 -0.1518397111
C   C92       1.0  0.30150  0.60340  0.84490  1.0000 -0.1518397111
C   C93       1.0  0.20530  0.33210  0.34600  1.0000 -0.1085522247
C   C94       1.0  0.29470  0.66790  0.84600  1.0000 -0.1085522247
C   C95       1.0  0.17620  0.49890  0.37220  1.0000 -0.1400068386
C   C96       1.0  0.32380  0.50110  0.87220  1.0000 -0.1400068386
C   C97       1.0  0.95330  0.18450  0.30170  1.0000 -0.5488367649
C   C98       1.0  0.54670  0.81550  0.80170  1.0000 -0.5488367649
C   C99       1.0  0.09900  0.21290  0.27370  1.0000 -0.5488367649
C   C100      1.0  0.40100  0.78710  0.77370  1.0000 -0.5488367649
C   C101      1.0  0.75030  0.51740  0.19220  1.0000 0.6421709684
C   C102      1.0  0.74970  0.48260  0.69220  1.0000 0.6421709684
C   C103      1.0  0.74190  0.51920  0.23450  1.0000 -0.0411312488
C   C104      1.0  0.75810  0.48080  0.73450  1.0000 -0.0411312488
C   C105      1.0  0.72930  0.46770  0.25550  1.0000 -0.081824465
C   C106      1.0  0.77070  0.53230  0.75550  1.0000 -0.081824465
C   C107      1.0  0.72190  0.46930  0.29540  1.0000 -0.167543727
C   C108      1.0  0.77810  0.53070  0.79540  1.0000 -0.167543727
C   C109      1.0  0.72650  0.52540  0.31360  1.0000 0.1303288902
C   C110      1.0  0.77350  0.47460  0.81360  1.0000 0.1303288902
C   C111      1.0  0.74010  0.57920  0.29310  1.0000 -0.167543727
C   C112      1.0  0.75990  0.42080  0.79310  1.0000 -0.167543727
C   C113      1.0  0.74800  0.57480  0.25340  1.0000 -0.0888300598
C   C114      1.0  0.75200  0.42520  0.75340  1.0000 -0.0888300598
C   C115      1.0  0.71830  0.52890  0.35640  1.0000 -0.1400068386
C   C116      1.0  0.78170  0.47110  0.85640  1.0000 -0.1400068386
C   C117      1.0  0.65590  0.57090  0.10540  1.0000 0.626745793
C   C118      1.0  0.84410  0.42910  0.60540  1.0000 0.626745793
C   C119      1.0  0.56510  0.56150  0.10720  1.0000 -0.0197478062
C   C120      1.0  0.93490  0.43850  0.60720  1.0000 -0.0197478062
C   C121      1.0  0.51380  0.61290  0.11090  1.0000 -0.081824465
C   C122      1.0  0.98620  0.38710  0.61090  1.0000 -0.081824465
C   C123      1.0  0.43150  0.60550  0.11600  1.0000 -0.1594211646
C   C124      1.0  0.06850  0.39450  0.61600  1.0000 -0.1518397111
C   C125      1.0  0.39830  0.54700  0.11320  1.0000 0.1191015227
C   C126      1.0  0.10170  0.45300  0.61320  1.0000 0.1118956633
C   C127      1.0  0.44850  0.49520  0.10840  1.0000 -0.1518397111
C   C128      1.0  0.05150  0.50480  0.60840  1.0000 -0.1518397111
C   C129      1.0  0.53160  0.50440  0.10330  1.0000 -0.1085522247
C   C130      1.0  0.96840  0.49560  0.60330  1.0000 -0.1085522247
C   C131      1.0  0.31200  0.54100  0.11870  1.0000 -0.1518397111
C   C132      1.0  0.18800  0.45900  0.61870  1.0000 -0.1518397111
C   C133      1.0  0.67440  0.48410  0.54180  1.0000 0.6464564232
C   C134      1.0  0.82560  0.51590  0.04180  1.0000 0.6464564232
C   C135      1.0  0.67450  0.48790  0.50000  1.0000 -0.0603613286
C   C136      1.0  0.82550  0.51210  0.00000  1.0000 -0.0603613286
C   C137      1.0  0.65200  0.43410  0.47830  1.0000 -0.081824465
C   C138      1.0  0.84800  0.56590  0.97830  1.0000 -0.081824465
C   C139      1.0  0.65840  0.43630  0.43890  1.0000 -0.1594211646
C   C140      1.0  0.84160  0.56370  0.93890  1.0000 -0.1594211646
C   C141      1.0  0.68600  0.48830  0.42050  1.0000 0.1191015227
C   C142      1.0  0.81400  0.51170  0.92050  1.0000 0.1303288902
C   C143      1.0  0.70850  0.54000  0.44170  1.0000 -0.1594211646
C   C144      1.0  0.79150  0.46000  0.94170  1.0000 -0.1594211646
C   C145      1.0  0.70310  0.53860  0.48110  1.0000 -0.081824465
C   C146      1.0  0.79690  0.46140  0.98110  1.0000 -0.0888300598
C   C147      1.0  0.69470  0.48490  0.37850  1.0000 -0.1400068386
C   C148      1.0  0.80530  0.51510  0.87850  1.0000 -0.1400068386
C   C149      1.0  0.92640  0.46230  0.13210  1.0000 0.6236341027
C   C150      1.0  0.57360  0.53770  0.63210  1.0000 0.6236341027
C   C151      1.0  0.01580  0.46820  0.13410  1.0000 -0.0197478062
C   C152      1.0  0.48420  0.53180  0.63410  1.0000 -0.0197478062
C   C153      1.0  0.06460  0.41700  0.12810  1.0000 -0.0888300598
C   C154      1.0  0.43540  0.58300  0.62810  1.0000 -0.0888300598
C   C155      1.0  0.14700  0.42500  0.12590  1.0000 -0.1518397111
C   C156      1.0  0.35300  0.57500  0.62590  1.0000 -0.1518397111
C   C157      1.0  0.18400  0.48260  0.12880  1.0000 0.1191015227
C   C158      1.0  0.31600  0.51740  0.62880  1.0000 0.1191015227
C   C159      1.0  0.13470  0.53330  0.13630  1.0000 -0.1518397111
C   C160      1.0  0.36530  0.46670  0.63630  1.0000 -0.1518397111
C   C161      1.0  0.05010  0.52710  0.13830  1.0000 -0.1085522247
C   C162      1.0  0.44990  0.47290  0.63830  1.0000 -0.1085522247
C   C163      1.0  0.27050  0.48880  0.12200  1.0000 -0.1518397111
C   C164      1.0  0.22950  0.51120  0.62200  1.0000 -0.1594211646
C   C165      1.0  0.79430  0.30000  0.11260  1.0000 0.5684027848
C   C166      1.0  0.70570  0.70000  0.61260  1.0000 0.5684027848
C   C167      1.0  0.81530  0.23160  0.11090  1.0000 -0.0035039293
C   C168      1.0  0.68470  0.76840  0.61090  1.0000 -0.0035039293
C   C169      1.0  0.80670  0.19630  0.14290  1.0000 -0.0888300598
C   C170      1.0  0.69330  0.80370  0.64290  1.0000 -0.0888300598
C   C171      1.0  0.81740  0.13220  0.14060  1.0000 -0.1594211646
C   C172      1.0  0.68260  0.86780  0.64060  1.0000 -0.1594211646
C   C173      1.0  0.84130  0.10510  0.10640  1.0000 0.1118956633
C   C174      1.0  0.65870  0.89490  0.60640  1.0000 0.1191015227
C   C175      1.0  0.85020  0.14230  0.07450  1.0000 -0.1400068386
C   C176      1.0  0.64980  0.85770  0.57450  1.0000 -0.1400068386
C   C177      1.0  0.83800  0.20520  0.07610  1.0000 -0.0888300598
C   C178      1.0  0.66200  0.79480  0.57610  1.0000 -0.0888300598
C   C179      1.0  0.85180  0.03700  0.10160  1.0000 -0.1594211646
C   C180      1.0  0.64820  0.96300  0.60160  1.0000 -0.1594211646
C   C181      1.0  0.80470  0.73490  0.11800  1.0000 0.5530579713
C   C182      1.0  0.69530  0.26510  0.61800  1.0000 0.5530579713
C   C183      1.0  0.81330  0.80390  0.11960  1.0000 -0.0065929125
C   C184      1.0  0.68670  0.19610  0.61960  1.0000 -0.0065929125
C   C185      1.0  0.83590  0.83550  0.08810  1.0000 -0.0888300598
C   C186      1.0  0.66410  0.16450  0.58810  1.0000 -0.0888300598
C   C187      1.0  0.84210  0.90030  0.09070  1.0000 -0.1594211646
C   C188      1.0  0.65790  0.09970  0.59070  1.0000 -0.1594211646
C   C189      1.0  0.82410  0.93060  0.12420  1.0000 0.1118956633
C   C190      1.0  0.67590  0.06940  0.62420  1.0000 0.1118956633
C   C191      1.0  0.80150  0.89660  0.15510  1.0000 -0.1518397111
C   C192      1.0  0.69850  0.10340  0.65510  1.0000 -0.1518397111
C   C193      1.0  0.79470  0.83210  0.15400  1.0000 -0.1085522247
C   C194      1.0  0.70530  0.16790  0.65400  1.0000 -0.1085522247
C   C195      1.0  0.82380  0.99890  0.12780  1.0000 -0.1400068386
C   C196      1.0  0.67620  0.00110  0.62780  1.0000 -0.1400068386
C   C197      1.0  0.04670  0.68450  0.19830  1.0000 -0.5488367649
C   C198      1.0  0.45330  0.31550  0.69830  1.0000 -0.5488367649
C   C199      1.0  0.90100  0.71290  0.22630  1.0000 -0.5488367649
C   C200      1.0  0.59900  0.28710  0.72630  1.0000 -0.5488367649
S   S1        1.0  0.05448  0.19247  0.31825  1.0000 0.6804674891
S   S2        1.0  0.44552  0.80753  0.81825  1.0000 0.662734541
S   S3        1.0  0.94552  0.69247  0.18175  1.0000 0.662734541
S   S4        1.0  0.55448  0.30753  0.68175  1.0000 0.6804674891
O   O1        1.0  0.25000  0.96440  0.32283  1.0000 -0.6590162148
O   O2        1.0  0.25000  0.03560  0.82283  1.0000 -0.6652047905
O   O3        1.0  0.24190  0.06750  0.32474  1.0000 -0.636857942
O   O4        1.0  0.25810  0.93250  0.82474  1.0000 -0.636857942
O   O5        1.0  0.31450  0.12370  0.39444  1.0000 -0.581633416
O   O6        1.0  0.18550  0.87630  0.89444  1.0000 -0.581633416
O   O7        1.0  0.30020  0.02140  0.39533  1.0000 -0.8071643385
O   O8        1.0  0.19980  0.97860  0.89533  1.0000 -0.8071643385
O   O9        1.0  0.33210  0.93260  0.94189  1.0000 -0.6590162148
O   O10       1.0  0.16790  0.06740  0.44189  1.0000 -0.6590162148
O   O11       1.0  0.31920  0.03510  0.94044  1.0000 -0.6897794726
O   O12       1.0  0.18080  0.96490  0.44044  1.0000 -0.6897794726
O   O13       1.0  0.11860  0.00820  0.36844  1.0000 -0.7163211179
O   O14       1.0  0.38140  0.99180  0.86844  1.0000 -0.7163211179
O   O15       1.0  0.10260  0.90780  0.36992  1.0000 -0.6067531677
O   O16       1.0  0.39740  0.09220  0.86992  1.0000 -0.6067531677
O   O17       1.0  0.20070  0.83050  0.41764  1.0000 -0.636857942
O   O18       1.0  0.29930  0.16950  0.91764  1.0000 -0.6493872079
O   O19       1.0  0.22950  0.82230  0.35630  1.0000 -0.6493872079
O   O20       1.0  0.27050  0.17770  0.85630  1.0000 -0.6493872079
O   O21       1.0  0.18060  0.20650  0.41326  1.0000 -0.6282967599
O   O22       1.0  0.31940  0.79350  0.91326  1.0000 -0.6282967599
O   O23       1.0  0.21240  0.20420  0.35186  1.0000 -0.6590162148
O   O24       1.0  0.28760  0.79580  0.85186  1.0000 -0.6590162148
O   O25       1.0  0.08430  0.12810  0.32642  1.0000 -0.6590162148
O   O26       1.0  0.41570  0.87190  0.82642  1.0000 -0.6590162148
O   O27       1.0  0.75000  0.46440  0.17717  1.0000 -0.6590162148
O   O28       1.0  0.75000  0.53560  0.67717  1.0000 -0.6590162148
O   O29       1.0  0.75810  0.56750  0.17526  1.0000 -0.636857942
O   O30       1.0  0.74190  0.43250  0.67526  1.0000 -0.636857942
O   O31       1.0  0.68550  0.62370  0.10556  1.0000 -0.581633416
O   O32       1.0  0.81450  0.37630  0.60556  1.0000 -0.581633416
O   O33       1.0  0.69980  0.52140  0.10467  1.0000 -0.8071643385
O   O34       1.0  0.80020  0.47860  0.60467  1.0000 -0.8071643385
O   O35       1.0  0.66790  0.43260  0.55811  1.0000 -0.6590162148
O   O36       1.0  0.83210  0.56740  0.05811  1.0000 -0.6590162148
O   O37       1.0  0.68080  0.53510  0.55956  1.0000 -0.6897794726
O   O38       1.0  0.81920  0.46490  0.05956  1.0000 -0.6897794726
O   O39       1.0  0.88140  0.50820  0.13156  1.0000 -0.7144939574
O   O40       1.0  0.61860  0.49180  0.63156  1.0000 -0.7163211179
O   O41       1.0  0.89740  0.40780  0.13008  1.0000 -0.6067531677
O   O42       1.0  0.60260  0.59220  0.63008  1.0000 -0.6067531677
O   O43       1.0  0.79930  0.33050  0.08236  1.0000 -0.6493872079
O   O44       1.0  0.70070  0.66950  0.58236  1.0000 -0.6493872079
O   O45       1.0  0.77050  0.32230  0.14370  1.0000 -0.6493872079
O   O46       1.0  0.72950  0.67770  0.64370  1.0000 -0.6493872079
O   O47       1.0  0.81940  0.70650  0.08674  1.0000 -0.6282967599
O   O48       1.0  0.68060  0.29350  0.58674  1.0000 -0.6282967599
O   O49       1.0  0.78760  0.70420  0.14814  1.0000 -0.6590162148
O   O50       1.0  0.71240  0.29580  0.64814  1.0000 -0.6590162148
O   O51       1.0  0.91570  0.62810  0.17358  1.0000 -0.6493872079
O   O52       1.0  0.58430  0.37190  0.67358  1.0000 -0.6590162148
