# DDEC6 charges by PACMAN v1.1 (https://github.com/mtap-research/PACMAN-charge/)
data_2011[In][nan]3[ASR]2
_chemical_formula_sum              "In24 H56 C160 O152"
_cell_length_a       22.251
_cell_length_b       37.791
_cell_length_c       8.239
_cell_angle_alpha    90
_cell_angle_beta     90
_cell_angle_gamma    90

_symmetry_space_group_name_H-M    "P 1"
_symmetry_Int_Tables_number       1

loop_
  _symmetry_equiv_pos_as_xyz
  'x, y, z'

loop_
  _atom_site_type_symbol
  _atom_site_label
  _atom_site_symmetry_multiplicity
  _atom_site_fract_x
  _atom_site_fract_y
  _atom_site_fract_z
  _atom_site_occupancy
  _atom_site_charge
In  In1       1.0  0.32485  0.64231  0.90306  1.0000 1.5415359107
In  In2       1.0  0.17783  0.64483  0.16901  1.0000 1.5501190392
In  In3       1.0  0.24973  0.60776  0.53459  1.0000 1.6135317353
In  In4       1.0  0.67515  0.35769  0.90306  1.0000 1.5415359107
In  In5       1.0  0.82217  0.35517  0.16901  1.0000 1.5501190392
In  In6       1.0  0.75027  0.39224  0.53459  1.0000 1.6135317353
In  In7       1.0  0.17515  0.14231  0.09694  1.0000 1.5415359107
In  In8       1.0  0.32217  0.14483  0.83099  1.0000 1.5501190392
In  In9       1.0  0.25027  0.10776  0.46541  1.0000 1.6135317353
In  In10      1.0  0.82485  0.85769  0.09694  1.0000 1.5415359107
In  In11      1.0  0.67783  0.85517  0.83099  1.0000 1.5501190392
In  In12      1.0  0.74973  0.89224  0.46541  1.0000 1.6135317353
In  In13      1.0  0.17515  0.85769  0.09694  1.0000 1.5415359107
In  In14      1.0  0.32217  0.85517  0.83099  1.0000 1.5501190392
In  In15      1.0  0.25027  0.89224  0.46541  1.0000 1.6135317353
In  In16      1.0  0.82485  0.14231  0.09694  1.0000 1.5415359107
In  In17      1.0  0.67783  0.14483  0.83099  1.0000 1.5501190392
In  In18      1.0  0.74973  0.10776  0.46541  1.0000 1.6135317353
In  In19      1.0  0.32485  0.35769  0.90306  1.0000 1.5415359107
In  In20      1.0  0.17783  0.35517  0.16901  1.0000 1.5501190392
In  In21      1.0  0.24973  0.39224  0.53459  1.0000 1.6135317353
In  In22      1.0  0.67515  0.64231  0.90306  1.0000 1.5415359107
In  In23      1.0  0.82217  0.64483  0.16901  1.0000 1.5501190392
In  In24      1.0  0.75027  0.60776  0.53459  1.0000 1.6135317353
H   H1        1.0  0.23870  0.67556  0.36370  1.0000 0.4138375824
H   H2        1.0  0.23530  0.82594  0.29440  1.0000 0.4138375824
H   H3        1.0  0.24870  0.80844  0.96790  1.0000 0.4165533227
H   H4        1.0  0.76130  0.32444  0.36370  1.0000 0.4138375824
H   H5        1.0  0.76470  0.17406  0.29440  1.0000 0.4138375824
H   H6        1.0  0.75130  0.19156  0.96790  1.0000 0.4165533227
H   H7        1.0  0.26130  0.17556  0.63630  1.0000 0.4138375824
H   H8        1.0  0.26470  0.32594  0.70560  1.0000 0.4138375824
H   H9        1.0  0.25130  0.30844  0.03210  1.0000 0.4165533227
H   H10       1.0  0.73870  0.82444  0.63630  1.0000 0.4138375824
H   H11       1.0  0.73530  0.67406  0.70560  1.0000 0.4138375824
H   H12       1.0  0.74870  0.69156  0.03210  1.0000 0.4165533227
H   H13       1.0  0.26130  0.82444  0.63630  1.0000 0.4138375824
H   H14       1.0  0.26470  0.67406  0.70560  1.0000 0.4138375824
H   H15       1.0  0.25130  0.69156  0.03210  1.0000 0.4165533227
H   H16       1.0  0.73870  0.17556  0.63630  1.0000 0.4138375824
H   H17       1.0  0.73530  0.32594  0.70560  1.0000 0.4138375824
H   H18       1.0  0.74870  0.30844  0.03210  1.0000 0.4165533227
H   H19       1.0  0.23870  0.32444  0.36370  1.0000 0.4138375824
H   H20       1.0  0.23530  0.17406  0.29440  1.0000 0.4138375824
H   H21       1.0  0.24870  0.19156  0.96790  1.0000 0.4165533227
H   H22       1.0  0.76130  0.67556  0.36370  1.0000 0.4138375824
H   H23       1.0  0.76470  0.82594  0.29440  1.0000 0.4138375824
H   H24       1.0  0.75130  0.80844  0.96790  1.0000 0.4165533227
H   H25       1.0  0.22700  0.50000  0.30910  1.0000 0.1506150612
H   H26       1.0  0.26540  0.50000  0.75870  1.0000 0.1506150612
H   H27       1.0  0.77300  0.50000  0.30910  1.0000 0.1506150612
H   H28       1.0  0.73460  0.50000  0.75870  1.0000 0.1506150612
H   H29       1.0  0.27300  0.00000  0.69090  1.0000 0.1506150612
H   H30       1.0  0.23460  0.00000  0.24130  1.0000 0.1506150612
H   H31       1.0  0.72700  0.00000  0.69090  1.0000 0.1506150612
H   H32       1.0  0.76540  0.00000  0.24130  1.0000 0.1506150612
H   H33       1.0  0.00000  0.64780  0.94000  1.0000 0.1506150612
H   H34       1.0  0.00000  0.61850  0.40180  1.0000 0.1506150612
H   H35       1.0  0.00000  0.35220  0.94000  1.0000 0.1506150612
H   H36       1.0  0.00000  0.38150  0.40180  1.0000 0.1506150612
H   H37       1.0  0.50000  0.14780  0.06000  1.0000 0.1506150612
H   H38       1.0  0.50000  0.11850  0.59820  1.0000 0.1506150612
H   H39       1.0  0.50000  0.85220  0.06000  1.0000 0.1506150612
H   H40       1.0  0.50000  0.88150  0.59820  1.0000 0.1506150612
H   H41       1.0  0.50000  0.69150  0.88000  1.0000 0.1506150612
H   H42       1.0  0.50000  0.80730  0.69390  1.0000 0.1506150612
H   H43       1.0  0.50000  0.64090  0.12560  1.0000 0.1506150612
H   H44       1.0  0.50000  0.61550  0.67500  1.0000 0.1506150612
H   H45       1.0  0.50000  0.30850  0.88000  1.0000 0.1506150612
H   H46       1.0  0.50000  0.19270  0.69390  1.0000 0.1506150612
H   H47       1.0  0.50000  0.35910  0.12560  1.0000 0.1506150612
H   H48       1.0  0.50000  0.38450  0.67500  1.0000 0.1506150612
H   H49       1.0  0.00000  0.19150  0.12000  1.0000 0.1506150612
H   H50       1.0  0.00000  0.30730  0.30610  1.0000 0.1506150612
H   H51       1.0  0.00000  0.14090  0.87440  1.0000 0.1506150612
H   H52       1.0  0.00000  0.11550  0.32500  1.0000 0.1506150612
H   H53       1.0  0.00000  0.80850  0.12000  1.0000 0.1506150612
H   H54       1.0  0.00000  0.69270  0.30610  1.0000 0.1506150612
H   H55       1.0  0.00000  0.85910  0.87440  1.0000 0.1506150612
H   H56       1.0  0.00000  0.88450  0.32500  1.0000 0.1506150612
C   C1        1.0  0.25110  0.53170  0.95070  1.0000 -0.007874943
C   C2        1.0  0.23960  0.53210  0.12090  1.0000 -0.0282871969
C   C3        1.0  0.26460  0.56530  0.85800  1.0000 0.6364831222
C   C4        1.0  0.22720  0.56560  0.21070  1.0000 0.6364831222
C   C5        1.0  0.05520  0.62870  0.58670  1.0000 -0.0282871969
C   C6        1.0  0.05530  0.63790  0.75220  1.0000 -0.007874943
C   C7        1.0  0.11120  0.64750  0.84200  1.0000 0.6000635244
C   C8        1.0  0.11190  0.62250  0.49340  1.0000 0.6292137471
C   C9        1.0  0.44570  0.73170  0.80390  1.0000 -0.0228126612
C   C10       1.0  0.44570  0.76760  0.75110  1.0000 0.0042985207
C   C11       1.0  0.38730  0.71210  0.82500  1.0000 0.5667246995
C   C12       1.0  0.38780  0.78860  0.72900  1.0000 0.6000635244
C   C13       1.0  0.44510  0.63110  0.31530  1.0000 -0.007874943
C   C14       1.0  0.38920  0.64060  0.22230  1.0000 0.6000635244
C   C15       1.0  0.38740  0.61710  0.57380  1.0000 0.6188328085
C   C16       1.0  0.44490  0.62260  0.48150  1.0000 -0.0228126612
C   C17       1.0  0.74890  0.46830  0.95070  1.0000 -0.007874943
C   C18       1.0  0.76040  0.46790  0.12090  1.0000 -0.0282871969
C   C19       1.0  0.73540  0.43470  0.85800  1.0000 0.6364831222
C   C20       1.0  0.77280  0.43440  0.21070  1.0000 0.6364831222
C   C21       1.0  0.94480  0.37130  0.58670  1.0000 -0.0282871969
C   C22       1.0  0.94470  0.36210  0.75220  1.0000 -0.007874943
C   C23       1.0  0.88880  0.35250  0.84200  1.0000 0.6000635244
C   C24       1.0  0.88810  0.37750  0.49340  1.0000 0.6292137471
C   C25       1.0  0.55430  0.26830  0.80390  1.0000 -0.0228126612
C   C26       1.0  0.55430  0.23240  0.75110  1.0000 0.0042985207
C   C27       1.0  0.61270  0.28790  0.82500  1.0000 0.5667246995
C   C28       1.0  0.61220  0.21140  0.72900  1.0000 0.6000635244
C   C29       1.0  0.55490  0.36890  0.31530  1.0000 -0.007874943
C   C30       1.0  0.61080  0.35940  0.22230  1.0000 0.6000635244
C   C31       1.0  0.61260  0.38290  0.57380  1.0000 0.6188328085
C   C32       1.0  0.55510  0.37740  0.48150  1.0000 -0.0228126612
C   C33       1.0  0.24890  0.03170  0.04930  1.0000 -0.007874943
C   C34       1.0  0.26040  0.03210  0.87910  1.0000 -0.0282871969
C   C35       1.0  0.23540  0.06530  0.14200  1.0000 0.6364831222
C   C36       1.0  0.27280  0.06560  0.78930  1.0000 0.6364831222
C   C37       1.0  0.44480  0.12870  0.41330  1.0000 -0.0282871969
C   C38       1.0  0.44470  0.13790  0.24780  1.0000 -0.007874943
C   C39       1.0  0.38880  0.14750  0.15800  1.0000 0.6000635244
C   C40       1.0  0.38810  0.12250  0.50660  1.0000 0.6292137471
C   C41       1.0  0.05430  0.23170  0.19610  1.0000 -0.0228126612
C   C42       1.0  0.05430  0.26760  0.24890  1.0000 0.0042985207
C   C43       1.0  0.11270  0.21210  0.17500  1.0000 0.5667246995
C   C44       1.0  0.11220  0.28860  0.27100  1.0000 0.6000635244
C   C45       1.0  0.05490  0.13110  0.68470  1.0000 -0.007874943
C   C46       1.0  0.11080  0.14060  0.77770  1.0000 0.6000635244
C   C47       1.0  0.11260  0.11710  0.42620  1.0000 0.6188328085
C   C48       1.0  0.05510  0.12260  0.51850  1.0000 -0.0228126612
C   C49       1.0  0.75110  0.96830  0.04930  1.0000 -0.007874943
C   C50       1.0  0.73960  0.96790  0.87910  1.0000 -0.0282871969
C   C51       1.0  0.76460  0.93470  0.14200  1.0000 0.6364831222
C   C52       1.0  0.72720  0.93440  0.78930  1.0000 0.6364831222
C   C53       1.0  0.55520  0.87130  0.41330  1.0000 -0.0282871969
C   C54       1.0  0.55530  0.86210  0.24780  1.0000 -0.007874943
C   C55       1.0  0.61120  0.85250  0.15800  1.0000 0.6000635244
C   C56       1.0  0.61190  0.87750  0.50660  1.0000 0.6292137471
C   C57       1.0  0.94570  0.76830  0.19610  1.0000 -0.0228126612
C   C58       1.0  0.94570  0.73240  0.24890  1.0000 0.0042985207
C   C59       1.0  0.88730  0.78790  0.17500  1.0000 0.5667246995
C   C60       1.0  0.88780  0.71140  0.27100  1.0000 0.6000635244
C   C61       1.0  0.94510  0.86890  0.68470  1.0000 -0.007874943
C   C62       1.0  0.88920  0.85940  0.77770  1.0000 0.6000635244
C   C63       1.0  0.88740  0.88290  0.42620  1.0000 0.6188328085
C   C64       1.0  0.94490  0.87740  0.51850  1.0000 -0.0228126612
C   C65       1.0  0.24890  0.96830  0.04930  1.0000 -0.007874943
C   C66       1.0  0.26040  0.96790  0.87910  1.0000 -0.0282871969
C   C67       1.0  0.23540  0.93470  0.14200  1.0000 0.6364831222
C   C68       1.0  0.27280  0.93440  0.78930  1.0000 0.6364831222
C   C69       1.0  0.44480  0.87130  0.41330  1.0000 -0.0282871969
C   C70       1.0  0.44470  0.86210  0.24780  1.0000 -0.007874943
C   C71       1.0  0.38880  0.85250  0.15800  1.0000 0.6000635244
C   C72       1.0  0.38810  0.87750  0.50660  1.0000 0.6292137471
C   C73       1.0  0.05430  0.76830  0.19610  1.0000 -0.0228126612
C   C74       1.0  0.05430  0.73240  0.24890  1.0000 0.0042985207
C   C75       1.0  0.11270  0.78790  0.17500  1.0000 0.5667246995
C   C76       1.0  0.11220  0.71140  0.27100  1.0000 0.6000635244
C   C77       1.0  0.05490  0.86890  0.68470  1.0000 -0.007874943
C   C78       1.0  0.11080  0.85940  0.77770  1.0000 0.6000635244
C   C79       1.0  0.11260  0.88290  0.42620  1.0000 0.6188328085
C   C80       1.0  0.05510  0.87740  0.51850  1.0000 -0.0228126612
C   C81       1.0  0.75110  0.03170  0.04930  1.0000 -0.007874943
C   C82       1.0  0.73960  0.03210  0.87910  1.0000 -0.0282871969
C   C83       1.0  0.76460  0.06530  0.14200  1.0000 0.6364831222
C   C84       1.0  0.72720  0.06560  0.78930  1.0000 0.6364831222
C   C85       1.0  0.55520  0.12870  0.41330  1.0000 -0.0282871969
C   C86       1.0  0.55530  0.13790  0.24780  1.0000 -0.007874943
C   C87       1.0  0.61120  0.14750  0.15800  1.0000 0.6000635244
C   C88       1.0  0.61190  0.12250  0.50660  1.0000 0.6292137471
C   C89       1.0  0.94570  0.23170  0.19610  1.0000 -0.0228126612
C   C90       1.0  0.94570  0.26760  0.24890  1.0000 0.0042985207
C   C91       1.0  0.88730  0.21210  0.17500  1.0000 0.5667246995
C   C92       1.0  0.88780  0.28860  0.27100  1.0000 0.6000635244
C   C93       1.0  0.94510  0.13110  0.68470  1.0000 -0.007874943
C   C94       1.0  0.88920  0.14060  0.77770  1.0000 0.6000635244
C   C95       1.0  0.88740  0.11710  0.42620  1.0000 0.6188328085
C   C96       1.0  0.94490  0.12260  0.51850  1.0000 -0.0228126612
C   C97       1.0  0.25110  0.46830  0.95070  1.0000 -0.007874943
C   C98       1.0  0.23960  0.46790  0.12090  1.0000 -0.0282871969
C   C99       1.0  0.26460  0.43470  0.85800  1.0000 0.6364831222
C   C100      1.0  0.22720  0.43440  0.21070  1.0000 0.6364831222
C   C101      1.0  0.05520  0.37130  0.58670  1.0000 -0.0282871969
C   C102      1.0  0.05530  0.36210  0.75220  1.0000 -0.007874943
C   C103      1.0  0.11120  0.35250  0.84200  1.0000 0.6000635244
C   C104      1.0  0.11190  0.37750  0.49340  1.0000 0.6292137471
C   C105      1.0  0.44570  0.26830  0.80390  1.0000 -0.0228126612
C   C106      1.0  0.44570  0.23240  0.75110  1.0000 0.0042985207
C   C107      1.0  0.38730  0.28790  0.82500  1.0000 0.5667246995
C   C108      1.0  0.38780  0.21140  0.72900  1.0000 0.6000635244
C   C109      1.0  0.44510  0.36890  0.31530  1.0000 -0.007874943
C   C110      1.0  0.38920  0.35940  0.22230  1.0000 0.6000635244
C   C111      1.0  0.38740  0.38290  0.57380  1.0000 0.6188328085
C   C112      1.0  0.44490  0.37740  0.48150  1.0000 -0.0228126612
C   C113      1.0  0.74890  0.53170  0.95070  1.0000 -0.007874943
C   C114      1.0  0.76040  0.53210  0.12090  1.0000 -0.0282871969
C   C115      1.0  0.73540  0.56530  0.85800  1.0000 0.6364831222
C   C116      1.0  0.77280  0.56560  0.21070  1.0000 0.6364831222
C   C117      1.0  0.94480  0.62870  0.58670  1.0000 -0.0282871969
C   C118      1.0  0.94470  0.63790  0.75220  1.0000 -0.007874943
C   C119      1.0  0.88880  0.64750  0.84200  1.0000 0.6000635244
C   C120      1.0  0.88810  0.62250  0.49340  1.0000 0.6292137471
C   C121      1.0  0.55430  0.73170  0.80390  1.0000 -0.0228126612
C   C122      1.0  0.55430  0.76760  0.75110  1.0000 0.0042985207
C   C123      1.0  0.61270  0.71210  0.82500  1.0000 0.5667246995
C   C124      1.0  0.61220  0.78860  0.72900  1.0000 0.6000635244
C   C125      1.0  0.55490  0.63110  0.31530  1.0000 -0.007874943
C   C126      1.0  0.61080  0.64060  0.22230  1.0000 0.6000635244
C   C127      1.0  0.61260  0.61710  0.57380  1.0000 0.6188328085
C   C128      1.0  0.55510  0.62260  0.48150  1.0000 -0.0228126612
C   C129      1.0  0.23440  0.50000  0.19800  1.0000 -0.0891954206
C   C130      1.0  0.25720  0.50000  0.86940  1.0000 -0.1019006627
C   C131      1.0  0.76560  0.50000  0.19800  1.0000 -0.0891954206
C   C132      1.0  0.74280  0.50000  0.86940  1.0000 -0.1019006627
C   C133      1.0  0.26560  0.00000  0.80200  1.0000 -0.0891954206
C   C134      1.0  0.24280  0.00000  0.13060  1.0000 -0.1019006627
C   C135      1.0  0.73440  0.00000  0.80200  1.0000 -0.0891954206
C   C136      1.0  0.75720  0.00000  0.13060  1.0000 -0.1019006627
C   C137      1.0  0.00000  0.64200  0.83000  1.0000 -0.1019006627
C   C138      1.0  0.00000  0.62450  0.51100  1.0000 -0.0891954206
C   C139      1.0  0.00000  0.35800  0.83000  1.0000 -0.1019006627
C   C140      1.0  0.00000  0.37550  0.51100  1.0000 -0.0891954206
C   C141      1.0  0.50000  0.14200  0.17000  1.0000 -0.1019006627
C   C142      1.0  0.50000  0.12450  0.48900  1.0000 -0.0891954206
C   C143      1.0  0.50000  0.85800  0.17000  1.0000 -0.1019006627
C   C144      1.0  0.50000  0.87550  0.48900  1.0000 -0.0891954206
C   C145      1.0  0.50000  0.71430  0.83700  1.0000 -0.0835623877
C   C146      1.0  0.50000  0.78380  0.72800  1.0000 -0.1058588908
C   C147      1.0  0.50000  0.63520  0.23500  1.0000 -0.1058588908
C   C148      1.0  0.50000  0.61960  0.56370  1.0000 -0.0891954206
C   C149      1.0  0.50000  0.28570  0.83700  1.0000 -0.0835623877
C   C150      1.0  0.50000  0.21620  0.72800  1.0000 -0.1058588908
C   C151      1.0  0.50000  0.36480  0.23500  1.0000 -0.1058588908
C   C152      1.0  0.50000  0.38040  0.56370  1.0000 -0.0891954206
C   C153      1.0  0.00000  0.21430  0.16300  1.0000 -0.0835623877
C   C154      1.0  0.00000  0.28380  0.27200  1.0000 -0.1058588908
C   C155      1.0  0.00000  0.13520  0.76500  1.0000 -0.1058588908
C   C156      1.0  0.00000  0.11960  0.43630  1.0000 -0.0891954206
C   C157      1.0  0.00000  0.78570  0.16300  1.0000 -0.0835623877
C   C158      1.0  0.00000  0.71620  0.27200  1.0000 -0.1058588908
C   C159      1.0  0.00000  0.86480  0.76500  1.0000 -0.1058588908
C   C160      1.0  0.00000  0.88040  0.43630  1.0000 -0.0835623877
O   O1        1.0  0.24710  0.56640  0.35710  1.0000 -0.5612920927
O   O2        1.0  0.23870  0.64910  0.36370  1.0000 -0.8860977771
O   O3        1.0  0.26470  0.64760  0.70560  1.0000 -0.8839946868
O   O4        1.0  0.24510  0.56640  0.71340  1.0000 -0.5486426758
O   O5        1.0  0.25130  0.66510  0.03210  1.0000 -0.872518714
O   O6        1.0  0.11090  0.62900  0.34610  1.0000 -0.5386417789
O   O7        1.0  0.15420  0.61020  0.57310  1.0000 -0.5312807965
O   O8        1.0  0.38320  0.62370  0.08940  1.0000 -0.5386417789
O   O9        1.0  0.11740  0.63030  0.97720  1.0000 -0.5659201922
O   O10       1.0  0.19920  0.58900  0.14100  1.0000 -0.5111915948
O   O11       1.0  0.29600  0.58760  0.92810  1.0000 -0.5312807965
O   O12       1.0  0.38930  0.62290  0.72030  1.0000 -0.5312807965
O   O13       1.0  0.34460  0.60540  0.49300  1.0000 -0.5386417789
O   O14       1.0  0.36820  0.80530  0.83450  1.0000 -0.4609412248
O   O15       1.0  0.38560  0.68680  0.90710  1.0000 -0.4819530877
O   O16       1.0  0.14410  0.67070  0.79200  1.0000 -0.439654726
O   O17       1.0  0.34170  0.72290  0.74600  1.0000 -0.5111915948
O   O18       1.0  0.37350  0.79300  0.57200  1.0000 -0.5312807965
O   O19       1.0  0.35610  0.66440  0.27040  1.0000 -0.4701492819
O   O20       1.0  0.75290  0.43360  0.35710  1.0000 -0.5612920927
O   O21       1.0  0.76130  0.35090  0.36370  1.0000 -0.8860977771
O   O22       1.0  0.73530  0.35240  0.70560  1.0000 -0.8860977771
O   O23       1.0  0.75490  0.43360  0.71340  1.0000 -0.5486426758
O   O24       1.0  0.74870  0.33490  0.03210  1.0000 -0.872518714
O   O25       1.0  0.88910  0.37100  0.34610  1.0000 -0.5386417789
O   O26       1.0  0.84580  0.38980  0.57310  1.0000 -0.5312807965
O   O27       1.0  0.61680  0.37630  0.08940  1.0000 -0.5386417789
O   O28       1.0  0.88260  0.36970  0.97720  1.0000 -0.5659201922
O   O29       1.0  0.80080  0.41100  0.14100  1.0000 -0.5111915948
O   O30       1.0  0.70400  0.41240  0.92810  1.0000 -0.5312807965
O   O31       1.0  0.61070  0.37710  0.72030  1.0000 -0.5312807965
O   O32       1.0  0.65540  0.39460  0.49300  1.0000 -0.5386417789
O   O33       1.0  0.63180  0.19470  0.83450  1.0000 -0.4609412248
O   O34       1.0  0.61440  0.31320  0.90710  1.0000 -0.4819530877
O   O35       1.0  0.85590  0.32930  0.79200  1.0000 -0.439654726
O   O36       1.0  0.65830  0.27710  0.74600  1.0000 -0.5111915948
O   O37       1.0  0.62650  0.20700  0.57200  1.0000 -0.5312807965
O   O38       1.0  0.64390  0.33560  0.27040  1.0000 -0.4701492819
O   O39       1.0  0.25290  0.06640  0.64290  1.0000 -0.5612920927
O   O40       1.0  0.26130  0.14910  0.63630  1.0000 -0.8860977771
O   O41       1.0  0.23530  0.14760  0.29440  1.0000 -0.8839946868
O   O42       1.0  0.25490  0.06640  0.28660  1.0000 -0.5486426758
O   O43       1.0  0.24870  0.16510  0.96790  1.0000 -0.872518714
O   O44       1.0  0.38910  0.12900  0.65390  1.0000 -0.5386417789
O   O45       1.0  0.34580  0.11020  0.42690  1.0000 -0.5312807965
O   O46       1.0  0.11680  0.12370  0.91060  1.0000 -0.5386417789
O   O47       1.0  0.38260  0.13030  0.02280  1.0000 -0.5659201922
O   O48       1.0  0.30080  0.08900  0.85900  1.0000 -0.5111915948
O   O49       1.0  0.20400  0.08760  0.07190  1.0000 -0.5312807965
O   O50       1.0  0.11070  0.12290  0.27970  1.0000 -0.5312807965
O   O51       1.0  0.15540  0.10540  0.50700  1.0000 -0.5386417789
O   O52       1.0  0.13180  0.30530  0.16550  1.0000 -0.4609412248
O   O53       1.0  0.11440  0.18680  0.09290  1.0000 -0.4819530877
O   O54       1.0  0.35590  0.17070  0.20800  1.0000 -0.439654726
O   O55       1.0  0.15830  0.22290  0.25400  1.0000 -0.5111915948
O   O56       1.0  0.12650  0.29300  0.42800  1.0000 -0.5312807965
O   O57       1.0  0.14390  0.16440  0.72960  1.0000 -0.4701492819
O   O58       1.0  0.74710  0.93360  0.64290  1.0000 -0.5612920927
O   O59       1.0  0.73870  0.85090  0.63630  1.0000 -0.8860977771
O   O60       1.0  0.76470  0.85240  0.29440  1.0000 -0.8860977771
O   O61       1.0  0.74510  0.93360  0.28660  1.0000 -0.5486426758
O   O62       1.0  0.75130  0.83490  0.96790  1.0000 -0.872518714
O   O63       1.0  0.61090  0.87100  0.65390  1.0000 -0.5386417789
O   O64       1.0  0.65420  0.88980  0.42690  1.0000 -0.5312807965
O   O65       1.0  0.88320  0.87630  0.91060  1.0000 -0.5386417789
O   O66       1.0  0.61740  0.86970  0.02280  1.0000 -0.5659201922
O   O67       1.0  0.69920  0.91100  0.85900  1.0000 -0.5111915948
O   O68       1.0  0.79600  0.91240  0.07190  1.0000 -0.5312807965
O   O69       1.0  0.88930  0.87710  0.27970  1.0000 -0.5312807965
O   O70       1.0  0.84460  0.89460  0.50700  1.0000 -0.5386417789
O   O71       1.0  0.86820  0.69470  0.16550  1.0000 -0.4609412248
O   O72       1.0  0.88560  0.81320  0.09290  1.0000 -0.4819530877
O   O73       1.0  0.64410  0.82930  0.20800  1.0000 -0.439654726
O   O74       1.0  0.84170  0.77710  0.25400  1.0000 -0.5111915948
O   O75       1.0  0.87350  0.70700  0.42800  1.0000 -0.5312807965
O   O76       1.0  0.85610  0.83560  0.72960  1.0000 -0.4701492819
O   O77       1.0  0.25290  0.93360  0.64290  1.0000 -0.5612920927
O   O78       1.0  0.26130  0.85090  0.63630  1.0000 -0.8860977771
O   O79       1.0  0.23530  0.85240  0.29440  1.0000 -0.8839946868
O   O80       1.0  0.25490  0.93360  0.28660  1.0000 -0.5486426758
O   O81       1.0  0.24870  0.83490  0.96790  1.0000 -0.872518714
O   O82       1.0  0.38910  0.87100  0.65390  1.0000 -0.5386417789
O   O83       1.0  0.34580  0.88980  0.42690  1.0000 -0.5312807965
O   O84       1.0  0.11680  0.87630  0.91060  1.0000 -0.5386417789
O   O85       1.0  0.38260  0.86970  0.02280  1.0000 -0.5659201922
O   O86       1.0  0.30080  0.91100  0.85900  1.0000 -0.5111915948
O   O87       1.0  0.20400  0.91240  0.07190  1.0000 -0.5312807965
O   O88       1.0  0.11070  0.87710  0.27970  1.0000 -0.5312807965
O   O89       1.0  0.15540  0.89460  0.50700  1.0000 -0.5386417789
O   O90       1.0  0.13180  0.69470  0.16550  1.0000 -0.4609412248
O   O91       1.0  0.11440  0.81320  0.09290  1.0000 -0.4819530877
O   O92       1.0  0.35590  0.82930  0.20800  1.0000 -0.439654726
O   O93       1.0  0.15830  0.77710  0.25400  1.0000 -0.5111915948
O   O94       1.0  0.12650  0.70700  0.42800  1.0000 -0.5312807965
O   O95       1.0  0.14390  0.83560  0.72960  1.0000 -0.4701492819
O   O96       1.0  0.74710  0.06640  0.64290  1.0000 -0.5612920927
O   O97       1.0  0.73870  0.14910  0.63630  1.0000 -0.8860977771
O   O98       1.0  0.76470  0.14760  0.29440  1.0000 -0.8860977771
O   O99       1.0  0.74510  0.06640  0.28660  1.0000 -0.5486426758
O   O100      1.0  0.75130  0.16510  0.96790  1.0000 -0.872518714
O   O101      1.0  0.61090  0.12900  0.65390  1.0000 -0.5386417789
O   O102      1.0  0.65420  0.11020  0.42690  1.0000 -0.5312807965
O   O103      1.0  0.88320  0.12370  0.91060  1.0000 -0.5386417789
O   O104      1.0  0.61740  0.13030  0.02280  1.0000 -0.5659201922
O   O105      1.0  0.69920  0.08900  0.85900  1.0000 -0.5111915948
O   O106      1.0  0.79600  0.08760  0.07190  1.0000 -0.5312807965
O   O107      1.0  0.88930  0.12290  0.27970  1.0000 -0.5312807965
O   O108      1.0  0.84460  0.10540  0.50700  1.0000 -0.5386417789
O   O109      1.0  0.86820  0.30530  0.16550  1.0000 -0.4609412248
O   O110      1.0  0.88560  0.18680  0.09290  1.0000 -0.4819530877
O   O111      1.0  0.64410  0.17070  0.20800  1.0000 -0.439654726
O   O112      1.0  0.84170  0.22290  0.25400  1.0000 -0.5111915948
O   O113      1.0  0.87350  0.29300  0.42800  1.0000 -0.5312807965
O   O114      1.0  0.85610  0.16440  0.72960  1.0000 -0.4701492819
O   O115      1.0  0.24710  0.43360  0.35710  1.0000 -0.5612920927
O   O116      1.0  0.23870  0.35090  0.36370  1.0000 -0.8860977771
O   O117      1.0  0.26470  0.35240  0.70560  1.0000 -0.8860977771
O   O118      1.0  0.24510  0.43360  0.71340  1.0000 -0.5486426758
O   O119      1.0  0.25130  0.33490  0.03210  1.0000 -0.872518714
O   O120      1.0  0.11090  0.37100  0.34610  1.0000 -0.5386417789
O   O121      1.0  0.15420  0.38980  0.57310  1.0000 -0.5312807965
O   O122      1.0  0.38320  0.37630  0.08940  1.0000 -0.5386417789
O   O123      1.0  0.11740  0.36970  0.97720  1.0000 -0.5659201922
O   O124      1.0  0.19920  0.41100  0.14100  1.0000 -0.5111915948
O   O125      1.0  0.29600  0.41240  0.92810  1.0000 -0.5312807965
O   O126      1.0  0.38930  0.37710  0.72030  1.0000 -0.5312807965
O   O127      1.0  0.34460  0.39460  0.49300  1.0000 -0.5386417789
O   O128      1.0  0.36820  0.19470  0.83450  1.0000 -0.4609412248
O   O129      1.0  0.38560  0.31320  0.90710  1.0000 -0.4819530877
O   O130      1.0  0.14410  0.32930  0.79200  1.0000 -0.439654726
O   O131      1.0  0.34170  0.27710  0.74600  1.0000 -0.5111915948
O   O132      1.0  0.37350  0.20700  0.57200  1.0000 -0.5312807965
O   O133      1.0  0.35610  0.33560  0.27040  1.0000 -0.4701492819
O   O134      1.0  0.75290  0.56640  0.35710  1.0000 -0.5612920927
O   O135      1.0  0.76130  0.64910  0.36370  1.0000 -0.8860977771
O   O136      1.0  0.73530  0.64760  0.70560  1.0000 -0.8839946868
O   O137      1.0  0.75490  0.56640  0.71340  1.0000 -0.5486426758
O   O138      1.0  0.74870  0.66510  0.03210  1.0000 -0.872518714
O   O139      1.0  0.88910  0.62900  0.34610  1.0000 -0.5386417789
O   O140      1.0  0.84580  0.61020  0.57310  1.0000 -0.5312807965
O   O141      1.0  0.61680  0.62370  0.08940  1.0000 -0.5386417789
O   O142      1.0  0.88260  0.63030  0.97720  1.0000 -0.5659201922
O   O143      1.0  0.80080  0.58900  0.14100  1.0000 -0.5111915948
O   O144      1.0  0.70400  0.58760  0.92810  1.0000 -0.5312807965
O   O145      1.0  0.61070  0.62290  0.72030  1.0000 -0.5312807965
O   O146      1.0  0.65540  0.60540  0.49300  1.0000 -0.5386417789
O   O147      1.0  0.63180  0.80530  0.83450  1.0000 -0.4609412248
O   O148      1.0  0.61440  0.68680  0.90710  1.0000 -0.4819530877
O   O149      1.0  0.85590  0.67070  0.79200  1.0000 -0.439654726
O   O150      1.0  0.65830  0.72290  0.74600  1.0000 -0.5111915948
O   O151      1.0  0.62650  0.79300  0.57200  1.0000 -0.5312807965
O   O152      1.0  0.64390  0.66440  0.27040  1.0000 -0.4701492819
