# DDEC6 charges by PACMAN v1.1 (https://github.com/mtap-research/PACMAN-charge/)
data_2011[Cu][uki]3[ASR]1
_chemical_formula_sum              "Cu8 H120 C120 N24 O16"
_cell_length_a       13.7561
_cell_length_b       13.7561
_cell_length_c       25.5306
_cell_angle_alpha    90
_cell_angle_beta     90
_cell_angle_gamma    90

_symmetry_space_group_name_H-M    "P 1"
_symmetry_Int_Tables_number       1

loop_
  _symmetry_equiv_pos_as_xyz
  'x, y, z'

loop_
  _atom_site_type_symbol
  _atom_site_label
  _atom_site_symmetry_multiplicity
  _atom_site_fract_x
  _atom_site_fract_y
  _atom_site_fract_z
  _atom_site_occupancy
  _atom_site_charge
Cu  Cu1       1.0  0.09339  0.24926  0.47627  1.0000 0.6936167234
Cu  Cu2       1.0  0.24926  0.90661  0.52373  1.0000 0.6936167234
Cu  Cu3       1.0  0.90661  0.75074  0.47627  1.0000 0.6936167234
Cu  Cu4       1.0  0.75074  0.09339  0.52373  1.0000 0.6936167234
Cu  Cu5       1.0  0.40661  0.74926  0.97627  1.0000 0.6936167234
Cu  Cu6       1.0  0.74926  0.59339  0.02373  1.0000 0.6936167234
Cu  Cu7       1.0  0.59339  0.25074  0.97627  1.0000 0.6936167234
Cu  Cu8       1.0  0.25074  0.40661  0.02373  1.0000 0.6936167234
H   H1        1.0  0.19710  0.20270  0.55710  1.0000 0.2635292948
H   H2        1.0  0.20270  0.80290  0.44290  1.0000 0.2635292948
H   H3        1.0  0.80290  0.79730  0.55710  1.0000 0.2635292948
H   H4        1.0  0.79730  0.19710  0.44290  1.0000 0.2635292948
H   H5        1.0  0.30290  0.70270  0.05710  1.0000 0.2635292948
H   H6        1.0  0.70270  0.69710  0.94290  1.0000 0.2635292948
H   H7        1.0  0.69710  0.29730  0.05710  1.0000 0.2635292948
H   H8        1.0  0.29730  0.30290  0.94290  1.0000 0.2635292948
H   H9        1.0  0.04610  0.25660  0.59970  1.0000 0.0910310115
H   H10       1.0  0.25660  0.95390  0.40030  1.0000 0.0910310115
H   H11       1.0  0.95390  0.74340  0.59970  1.0000 0.0910310115
H   H12       1.0  0.74340  0.04610  0.40030  1.0000 0.0910310115
H   H13       1.0  0.45390  0.75660  0.09970  1.0000 0.0910310115
H   H14       1.0  0.75660  0.54610  0.90030  1.0000 0.0910310115
H   H15       1.0  0.54610  0.24340  0.09970  1.0000 0.0910310115
H   H16       1.0  0.24340  0.45390  0.90030  1.0000 0.0910310115
H   H17       1.0  0.08090  0.05630  0.60540  1.0000 0.1413665616
H   H18       1.0  0.05630  0.91910  0.39460  1.0000 0.1413665616
H   H19       1.0  0.91910  0.94370  0.60540  1.0000 0.1413665616
H   H20       1.0  0.94370  0.08090  0.39460  1.0000 0.1413665616
H   H21       1.0  0.41910  0.55630  0.10540  1.0000 0.1413665616
H   H22       1.0  0.55630  0.58090  0.89460  1.0000 0.1413665616
H   H23       1.0  0.58090  0.44370  0.10540  1.0000 0.1413665616
H   H24       1.0  0.44370  0.41910  0.89460  1.0000 0.1413665616
H   H25       1.0  0.01770  0.11620  0.64500  1.0000 0.1298639001
H   H26       1.0  0.11620  0.98230  0.35500  1.0000 0.1298639001
H   H27       1.0  0.98230  0.88380  0.64500  1.0000 0.1298639001
H   H28       1.0  0.88380  0.01770  0.35500  1.0000 0.1298639001
H   H29       1.0  0.48230  0.61620  0.14500  1.0000 0.1298639001
H   H30       1.0  0.61620  0.51770  0.85500  1.0000 0.1298639001
H   H31       1.0  0.51770  0.38380  0.14500  1.0000 0.1298639001
H   H32       1.0  0.38380  0.48230  0.85500  1.0000 0.1298639001
H   H33       1.0  0.13020  0.13340  0.64200  1.0000 0.1119128034
H   H34       1.0  0.13340  0.86980  0.35800  1.0000 0.1119128034
H   H35       1.0  0.86980  0.86660  0.64200  1.0000 0.1119128034
H   H36       1.0  0.86660  0.13020  0.35800  1.0000 0.1119128034
H   H37       1.0  0.36980  0.63340  0.14200  1.0000 0.1119128034
H   H38       1.0  0.63340  0.63020  0.85800  1.0000 0.1119128034
H   H39       1.0  0.63020  0.36660  0.14200  1.0000 0.1119128034
H   H40       1.0  0.36660  0.36980  0.85800  1.0000 0.1119128034
H   H41       1.0  0.12140  0.24430  0.36210  1.0000 0.1119128034
H   H42       1.0  0.24430  0.87860  0.63790  1.0000 0.1119128034
H   H43       1.0  0.87860  0.75570  0.36210  1.0000 0.1119128034
H   H44       1.0  0.75570  0.12140  0.63790  1.0000 0.1119128034
H   H45       1.0  0.37860  0.74430  0.86210  1.0000 0.1119128034
H   H46       1.0  0.74430  0.62140  0.13790  1.0000 0.1119128034
H   H47       1.0  0.62140  0.25570  0.86210  1.0000 0.1119128034
H   H48       1.0  0.25570  0.37860  0.13790  1.0000 0.1119128034
H   H49       1.0  0.05740  0.30680  0.28660  1.0000 0.1298639001
H   H50       1.0  0.30680  0.94260  0.71340  1.0000 0.1298639001
H   H51       1.0  0.94260  0.69320  0.28660  1.0000 0.1298639001
H   H52       1.0  0.69320  0.05740  0.71340  1.0000 0.1298639001
H   H53       1.0  0.44260  0.80680  0.78660  1.0000 0.1298639001
H   H54       1.0  0.80680  0.55740  0.21340  1.0000 0.1298639001
H   H55       1.0  0.55740  0.19320  0.78660  1.0000 0.1298639001
H   H56       1.0  0.19320  0.44260  0.21340  1.0000 0.1298639001
H   H57       1.0  0.85150  0.43270  0.37270  1.0000 0.1298639001
H   H58       1.0  0.43270  0.14850  0.62730  1.0000 0.1298639001
H   H59       1.0  0.14850  0.56730  0.37270  1.0000 0.1298639001
H   H60       1.0  0.56730  0.85150  0.62730  1.0000 0.1298639001
H   H61       1.0  0.64850  0.93270  0.87270  1.0000 0.1298639001
H   H62       1.0  0.93270  0.35150  0.12730  1.0000 0.1298639001
H   H63       1.0  0.35150  0.06730  0.87270  1.0000 0.1298639001
H   H64       1.0  0.06730  0.64850  0.12730  1.0000 0.1298639001
H   H65       1.0  0.92530  0.36730  0.44730  1.0000 0.0995915362
H   H66       1.0  0.36730  0.07470  0.55270  1.0000 0.0995915362
H   H67       1.0  0.07470  0.63270  0.44730  1.0000 0.0995915362
H   H68       1.0  0.63270  0.92530  0.55270  1.0000 0.0995915362
H   H69       1.0  0.57470  0.86730  0.94730  1.0000 0.0995915362
H   H70       1.0  0.86730  0.42530  0.05270  1.0000 0.0995915362
H   H71       1.0  0.42530  0.13270  0.94730  1.0000 0.0995915362
H   H72       1.0  0.13270  0.57470  0.05270  1.0000 0.0995915362
H   H73       1.0  0.84600  0.46150  0.28000  1.0000 0.1176744659
H   H74       1.0  0.46150  0.15400  0.72000  1.0000 0.1176744659
H   H75       1.0  0.15400  0.53850  0.28000  1.0000 0.1176744659
H   H76       1.0  0.53850  0.84600  0.72000  1.0000 0.1176744659
H   H77       1.0  0.65400  0.96150  0.78000  1.0000 0.1176744659
H   H78       1.0  0.96150  0.34600  0.22000  1.0000 0.1176744659
H   H79       1.0  0.34600  0.03850  0.78000  1.0000 0.1176744659
H   H80       1.0  0.03850  0.65400  0.22000  1.0000 0.1176744659
H   H81       1.0  0.30260  0.19980  0.45860  1.0000 0.1176744659
H   H82       1.0  0.19980  0.69740  0.54140  1.0000 0.1176744659
H   H83       1.0  0.69740  0.80020  0.45860  1.0000 0.1176744659
H   H84       1.0  0.80020  0.30260  0.54140  1.0000 0.1176744659
H   H85       1.0  0.19740  0.69980  0.95860  1.0000 0.1176744659
H   H86       1.0  0.69980  0.80260  0.04140  1.0000 0.1176744659
H   H87       1.0  0.80260  0.30020  0.95860  1.0000 0.1176744659
H   H88       1.0  0.30020  0.19740  0.04140  1.0000 0.1176744659
H   H89       1.0  0.44500  0.26660  0.44580  1.0000 0.1298639001
H   H90       1.0  0.26660  0.55500  0.55420  1.0000 0.1298639001
H   H91       1.0  0.55500  0.73340  0.44580  1.0000 0.1298639001
H   H92       1.0  0.73340  0.44500  0.55420  1.0000 0.1298639001
H   H93       1.0  0.05500  0.76660  0.94580  1.0000 0.1298639001
H   H94       1.0  0.76660  0.94500  0.05420  1.0000 0.1298639001
H   H95       1.0  0.94500  0.23340  0.94580  1.0000 0.1298639001
H   H96       1.0  0.23340  0.05500  0.05420  1.0000 0.1298639001
H   H97       1.0  0.30810  0.52680  0.43820  1.0000 0.1298639001
H   H98       1.0  0.52680  0.69190  0.56180  1.0000 0.1298639001
H   H99       1.0  0.69190  0.47320  0.43820  1.0000 0.1298639001
H   H100      1.0  0.47320  0.30810  0.56180  1.0000 0.1298639001
H   H101      1.0  0.19190  0.02680  0.93820  1.0000 0.1298639001
H   H102      1.0  0.02680  0.80810  0.06180  1.0000 0.1298639001
H   H103      1.0  0.80810  0.97320  0.93820  1.0000 0.1298639001
H   H104      1.0  0.97320  0.19190  0.06180  1.0000 0.1298639001
H   H105      1.0  0.16490  0.44280  0.45290  1.0000 0.0910310115
H   H106      1.0  0.44280  0.83510  0.54710  1.0000 0.0910310115
H   H107      1.0  0.83510  0.55720  0.45290  1.0000 0.0910310115
H   H108      1.0  0.55720  0.16490  0.54710  1.0000 0.0910310115
H   H109      1.0  0.33510  0.94280  0.95290  1.0000 0.0910310115
H   H110      1.0  0.94280  0.66490  0.04710  1.0000 0.0910310115
H   H111      1.0  0.66490  0.05720  0.95290  1.0000 0.0910310115
H   H112      1.0  0.05720  0.33510  0.04710  1.0000 0.0910310115
H   H113      1.0  0.54670  0.41390  0.42890  1.0000 0.1176744659
H   H114      1.0  0.41390  0.45330  0.57110  1.0000 0.1176744659
H   H115      1.0  0.45330  0.58610  0.42890  1.0000 0.1176744659
H   H116      1.0  0.58610  0.54670  0.57110  1.0000 0.1176744659
H   H117      1.0  0.95330  0.91390  0.92890  1.0000 0.1176744659
H   H118      1.0  0.91390  0.04670  0.07110  1.0000 0.1176744659
H   H119      1.0  0.04670  0.08610  0.92890  1.0000 0.1176744659
H   H120      1.0  0.08610  0.95330  0.07110  1.0000 0.1176744659
C   C1        1.0  0.96050  0.17110  0.54870  1.0000 0.5413506978
C   C2        1.0  0.17110  0.03950  0.45130  1.0000 0.5413506978
C   C3        1.0  0.03950  0.82890  0.54870  1.0000 0.5413506978
C   C4        1.0  0.82890  0.96050  0.45130  1.0000 0.5413506978
C   C5        1.0  0.53950  0.67110  0.04870  1.0000 0.5413506978
C   C6        1.0  0.67110  0.46050  0.95130  1.0000 0.5413506978
C   C7        1.0  0.46050  0.32890  0.04870  1.0000 0.5413506978
C   C8        1.0  0.32890  0.53950  0.95130  1.0000 0.5413506978
C   C9        1.0  0.05750  0.19520  0.58120  1.0000 0.0910310115
C   C10       1.0  0.19520  0.94250  0.41880  1.0000 0.0910310115
C   C11       1.0  0.94250  0.80480  0.58120  1.0000 0.0910310115
C   C12       1.0  0.80480  0.05750  0.41880  1.0000 0.0910310115
C   C13       1.0  0.44250  0.69520  0.08120  1.0000 0.0910310115
C   C14       1.0  0.69520  0.55750  0.91880  1.0000 0.0910310115
C   C15       1.0  0.55750  0.30480  0.08120  1.0000 0.0910310115
C   C16       1.0  0.30480  0.44250  0.91880  1.0000 0.0910310115
C   C17       1.0  0.07300  0.11840  0.62210  1.0000 -0.4029260225
C   C18       1.0  0.11840  0.92700  0.37790  1.0000 -0.4029260225
C   C19       1.0  0.92700  0.88160  0.62210  1.0000 -0.4029260225
C   C20       1.0  0.88160  0.07300  0.37790  1.0000 -0.4029260225
C   C21       1.0  0.42700  0.61840  0.12210  1.0000 -0.4029260225
C   C22       1.0  0.61840  0.57300  0.87790  1.0000 -0.4029260225
C   C23       1.0  0.57300  0.38160  0.12210  1.0000 -0.4029260225
C   C24       1.0  0.38160  0.42700  0.87790  1.0000 -0.4029260225
C   C25       1.0  0.06660  0.28370  0.36430  1.0000 0.0830499257
C   C26       1.0  0.28370  0.93340  0.63570  1.0000 0.0830499257
C   C27       1.0  0.93340  0.71630  0.36430  1.0000 0.0830499257
C   C28       1.0  0.71630  0.06660  0.63570  1.0000 0.0830499257
C   C29       1.0  0.43340  0.78370  0.86430  1.0000 0.0830499257
C   C30       1.0  0.78370  0.56660  0.13570  1.0000 0.0830499257
C   C31       1.0  0.56660  0.21630  0.86430  1.0000 0.0830499257
C   C32       1.0  0.21630  0.43340  0.13570  1.0000 0.0830499257
C   C33       1.0  0.02800  0.31990  0.31860  1.0000 -0.2093208891
C   C34       1.0  0.31990  0.97200  0.68140  1.0000 -0.2093208891
C   C35       1.0  0.97200  0.68010  0.31860  1.0000 -0.2093208891
C   C36       1.0  0.68010  0.02800  0.68140  1.0000 -0.2093208891
C   C37       1.0  0.47200  0.81990  0.81860  1.0000 -0.2093208891
C   C38       1.0  0.81990  0.52800  0.18140  1.0000 -0.2093208891
C   C39       1.0  0.52800  0.18010  0.81860  1.0000 -0.2093208891
C   C40       1.0  0.18010  0.47200  0.18140  1.0000 -0.2093208891
C   C41       1.0  0.94320  0.37730  0.32100  1.0000 0.1413665616
C   C42       1.0  0.37730  0.05680  0.67900  1.0000 0.1413665616
C   C43       1.0  0.05680  0.62270  0.32100  1.0000 0.1413665616
C   C44       1.0  0.62270  0.94320  0.67900  1.0000 0.1413665616
C   C45       1.0  0.55680  0.87730  0.82100  1.0000 0.1413665616
C   C46       1.0  0.87730  0.44320  0.17900  1.0000 0.1413665616
C   C47       1.0  0.44320  0.12270  0.82100  1.0000 0.1413665616
C   C48       1.0  0.12270  0.55680  0.17900  1.0000 0.1413665616
C   C49       1.0  0.90690  0.39450  0.36910  1.0000 -0.2203132839
C   C50       1.0  0.39450  0.09310  0.63090  1.0000 -0.2203132839
C   C51       1.0  0.09310  0.60550  0.36910  1.0000 -0.2203132839
C   C52       1.0  0.60550  0.90690  0.63090  1.0000 -0.2203132839
C   C53       1.0  0.59310  0.89450  0.86910  1.0000 -0.2203132839
C   C54       1.0  0.89450  0.40690  0.13090  1.0000 -0.2203132839
C   C55       1.0  0.40690  0.10550  0.86910  1.0000 -0.2203132839
C   C56       1.0  0.10550  0.59310  0.13090  1.0000 -0.2203132839
C   C57       1.0  0.95200  0.35500  0.41440  1.0000 0.0555349716
C   C58       1.0  0.35500  0.04800  0.58560  1.0000 0.0555349716
C   C59       1.0  0.04800  0.64500  0.41440  1.0000 0.0496106795
C   C60       1.0  0.64500  0.95200  0.58560  1.0000 0.0496106795
C   C61       1.0  0.54800  0.85500  0.91440  1.0000 0.0496106795
C   C62       1.0  0.85500  0.45200  0.08560  1.0000 0.0496106795
C   C63       1.0  0.45200  0.14500  0.91440  1.0000 0.0496106795
C   C64       1.0  0.14500  0.54800  0.08560  1.0000 0.0496106795
C   C65       1.0  0.89580  0.41700  0.27450  1.0000 -0.1518360751
C   C66       1.0  0.41700  0.10420  0.72550  1.0000 -0.1518360751
C   C67       1.0  0.10420  0.58300  0.27450  1.0000 -0.1518360751
C   C68       1.0  0.58300  0.89580  0.72550  1.0000 -0.1518360751
C   C69       1.0  0.60420  0.91700  0.77450  1.0000 -0.1518360751
C   C70       1.0  0.91700  0.39580  0.22550  1.0000 -0.1518360751
C   C71       1.0  0.39580  0.08300  0.77450  1.0000 -0.1518360751
C   C72       1.0  0.08300  0.60420  0.22550  1.0000 -0.1518360751
C   C73       1.0  0.30420  0.26700  0.45510  1.0000 0.0496106795
C   C74       1.0  0.26700  0.69580  0.54490  1.0000 0.0496106795
C   C75       1.0  0.69580  0.73300  0.45510  1.0000 0.0496106795
C   C76       1.0  0.73300  0.30420  0.54490  1.0000 0.0496106795
C   C77       1.0  0.19580  0.76700  0.95510  1.0000 0.0496106795
C   C78       1.0  0.76700  0.80420  0.04490  1.0000 0.0496106795
C   C79       1.0  0.80420  0.23300  0.95510  1.0000 0.0496106795
C   C80       1.0  0.23300  0.19580  0.04490  1.0000 0.0496106795
C   C81       1.0  0.38970  0.30550  0.44660  1.0000 -0.1987876988
C   C82       1.0  0.30550  0.61030  0.55340  1.0000 -0.1987876988
C   C83       1.0  0.61030  0.69450  0.44660  1.0000 -0.1987876988
C   C84       1.0  0.69450  0.38970  0.55340  1.0000 -0.1987876988
C   C85       1.0  0.11030  0.80550  0.94660  1.0000 -0.1987876988
C   C86       1.0  0.80550  0.88970  0.05340  1.0000 -0.1987876988
C   C87       1.0  0.88970  0.19450  0.94660  1.0000 -0.1987876988
C   C88       1.0  0.19450  0.11030  0.05340  1.0000 -0.1987876988
C   C89       1.0  0.39690  0.40570  0.43850  1.0000 0.1522951999
C   C90       1.0  0.40570  0.60310  0.56150  1.0000 0.1522951999
C   C91       1.0  0.60310  0.59430  0.43850  1.0000 0.1522951999
C   C92       1.0  0.59430  0.39690  0.56150  1.0000 0.1522951999
C   C93       1.0  0.10310  0.90570  0.93850  1.0000 0.1522951999
C   C94       1.0  0.90570  0.89690  0.06150  1.0000 0.1522951999
C   C95       1.0  0.89690  0.09430  0.93850  1.0000 0.1522951999
C   C96       1.0  0.09430  0.10310  0.06150  1.0000 0.1522951999
C   C97       1.0  0.30860  0.45960  0.44210  1.0000 -0.2203132839
C   C98       1.0  0.45960  0.69140  0.55790  1.0000 -0.2203132839
C   C99       1.0  0.69140  0.54040  0.44210  1.0000 -0.2203132839
C   C100      1.0  0.54040  0.30860  0.55790  1.0000 -0.2203132839
C   C101      1.0  0.19140  0.95960  0.94210  1.0000 -0.2203132839
C   C102      1.0  0.95960  0.80860  0.05790  1.0000 -0.2203132839
C   C103      1.0  0.80860  0.04040  0.94210  1.0000 -0.2203132839
C   C104      1.0  0.04040  0.19140  0.05790  1.0000 -0.2203132839
C   C105      1.0  0.22290  0.40810  0.45180  1.0000 0.0496106795
C   C106      1.0  0.40810  0.77710  0.54820  1.0000 0.0496106795
C   C107      1.0  0.77710  0.59190  0.45180  1.0000 0.0496106795
C   C108      1.0  0.59190  0.22290  0.54820  1.0000 0.0496106795
C   C109      1.0  0.27710  0.90810  0.95180  1.0000 0.0496106795
C   C110      1.0  0.90810  0.72290  0.04820  1.0000 0.0496106795
C   C111      1.0  0.72290  0.09190  0.95180  1.0000 0.0496106795
C   C112      1.0  0.09190  0.27710  0.04820  1.0000 0.0496106795
C   C113      1.0  0.49260  0.45380  0.43280  1.0000 -0.1373080428
C   C114      1.0  0.45380  0.50740  0.56720  1.0000 -0.1373080428
C   C115      1.0  0.50740  0.54620  0.43280  1.0000 -0.1373080428
C   C116      1.0  0.54620  0.49260  0.56720  1.0000 -0.1373080428
C   C117      1.0  0.00740  0.95380  0.93280  1.0000 -0.1373080428
C   C118      1.0  0.95380  0.99260  0.06720  1.0000 -0.1373080428
C   C119      1.0  0.99260  0.04620  0.93280  1.0000 -0.1373080428
C   C120      1.0  0.04620  0.00740  0.06720  1.0000 -0.1373080428
N   N1        1.0  0.03040  0.30160  0.41080  1.0000 -0.2093208891
N   N2        1.0  0.30160  0.96960  0.58920  1.0000 -0.2093208891
N   N3        1.0  0.96960  0.69840  0.41080  1.0000 -0.2093208891
N   N4        1.0  0.69840  0.03040  0.58920  1.0000 -0.2093208891
N   N5        1.0  0.46960  0.80160  0.91080  1.0000 -0.2093208891
N   N6        1.0  0.80160  0.53040  0.08920  1.0000 -0.2093208891
N   N7        1.0  0.53040  0.19840  0.91080  1.0000 -0.2093208891
N   N8        1.0  0.19840  0.46960  0.08920  1.0000 -0.2093208891
N   N9        1.0  0.21910  0.31270  0.45950  1.0000 -0.2333386282
N   N10       1.0  0.31270  0.78090  0.54050  1.0000 -0.2333386282
N   N11       1.0  0.78090  0.68730  0.45950  1.0000 -0.2333386282
N   N12       1.0  0.68730  0.21910  0.54050  1.0000 -0.2333386282
N   N13       1.0  0.28090  0.81270  0.95950  1.0000 -0.2333386282
N   N14       1.0  0.81270  0.71910  0.04050  1.0000 -0.2333386282
N   N15       1.0  0.71910  0.18730  0.95950  1.0000 -0.2333386282
N   N16       1.0  0.18730  0.28090  0.04050  1.0000 -0.2333386282
N   N17       1.0  0.13740  0.20980  0.54800  1.0000 -0.7124607883
N   N18       1.0  0.20980  0.86260  0.45200  1.0000 -0.7124607883
N   N19       1.0  0.86260  0.79020  0.54800  1.0000 -0.7124607883
N   N20       1.0  0.79020  0.13740  0.45200  1.0000 -0.7124607883
N   N21       1.0  0.36260  0.70980  0.04800  1.0000 -0.7124607883
N   N22       1.0  0.70980  0.63740  0.95200  1.0000 -0.7124607883
N   N23       1.0  0.63740  0.29020  0.04800  1.0000 -0.7124607883
N   N24       1.0  0.29020  0.36260  0.95200  1.0000 -0.7124607883
O   O1        1.0  0.96970  0.20170  0.50070  1.0000 -0.5461988172
O   O2        1.0  0.20170  0.03030  0.49930  1.0000 -0.5461988172
O   O3        1.0  0.03030  0.79830  0.50070  1.0000 -0.5461988172
O   O4        1.0  0.79830  0.96970  0.49930  1.0000 -0.5461988172
O   O5        1.0  0.53030  0.70170  0.00070  1.0000 -0.5461988172
O   O6        1.0  0.70170  0.46970  0.99930  1.0000 -0.5461988172
O   O7        1.0  0.46970  0.29830  0.00070  1.0000 -0.5461988172
O   O8        1.0  0.29830  0.53030  0.99930  1.0000 -0.5461988172
O   O9        1.0  0.89060  0.13610  0.56820  1.0000 -0.5236167333
O   O10       1.0  0.13610  0.10940  0.43180  1.0000 -0.5236167333
O   O11       1.0  0.10940  0.86390  0.56820  1.0000 -0.5236167333
O   O12       1.0  0.86390  0.89060  0.43180  1.0000 -0.5236167333
O   O13       1.0  0.60940  0.63610  0.06820  1.0000 -0.5236167333
O   O14       1.0  0.63610  0.39060  0.93180  1.0000 -0.5236167333
O   O15       1.0  0.39060  0.36390  0.06820  1.0000 -0.5236167333
O   O16       1.0  0.36390  0.60940  0.93180  1.0000 -0.5236167333
