# DDEC6 charges by PACMAN v1.1 (https://github.com/mtap-research/PACMAN-charge/)
data_2011[Zn][nan]3[ASR]17
_chemical_formula_sum              "Zn5 P4 H8 C8 O24"
_cell_length_a       5.5512
_cell_length_b       9.7858
_cell_length_c       12.9382
_cell_angle_alpha    86.877
_cell_angle_beta     87.809
_cell_angle_gamma    76.451

_symmetry_space_group_name_H-M    "P 1"
_symmetry_Int_Tables_number       1

loop_
  _symmetry_equiv_pos_as_xyz
  'x, y, z'

loop_
  _atom_site_type_symbol
  _atom_site_label
  _atom_site_symmetry_multiplicity
  _atom_site_fract_x
  _atom_site_fract_y
  _atom_site_fract_z
  _atom_site_occupancy
  _atom_site_charge
Zn  Zn1       1.0  0.07274  0.60457  0.80091  1.0000 1.0614073108
Zn  Zn2       1.0  0.50000  0.00000  0.50000  1.0000 1.1047501991
Zn  Zn3       1.0  0.75395  0.10523  0.95413  1.0000 1.0441539715
Zn  Zn4       1.0  0.92726  0.39543  0.19909  1.0000 1.0614073108
Zn  Zn5       1.0  0.24605  0.89477  0.04587  1.0000 1.0441539715
P   P1        1.0  0.05289  0.83437  0.59647  1.0000 1.3550857733
P   P2        1.0  0.81800  0.76119  0.00886  1.0000 1.2929525207
P   P3        1.0  0.94711  0.16563  0.40353  1.0000 1.3540685604
P   P4        1.0  0.18200  0.23881  0.99114  1.0000 1.2929525207
H   H1        1.0  0.29256  0.02142  0.70751  1.0000 0.3635775874
H   H2        1.0  0.50710  0.63632  0.16779  1.0000 0.3818513582
H   H3        1.0  0.93733  0.07877  0.60853  1.0000 0.1134104821
H   H4        1.0  0.79444  0.78948  0.18927  1.0000 0.1263764034
H   H5        1.0  0.70744  0.97858  0.29249  1.0000 0.3635775874
H   H6        1.0  0.49290  0.36368  0.83221  1.0000 0.3818513582
H   H7        1.0  0.06267  0.92123  0.39147  1.0000 0.1134104821
H   H8        1.0  0.20556  0.21052  0.81073  1.0000 0.1263764034
C   C1        1.0  0.93378  0.01178  0.68186  1.0000 -0.0495358576
C   C2        1.0  0.67791  0.02260  0.73129  1.0000 0.617096586
C   C3        1.0  0.85197  0.69016  0.14658  1.0000 -0.1896438469
C   C4        1.0  0.12029  0.62702  0.17334  1.0000 0.6276699732
C   C5        1.0  0.06622  0.98822  0.31814  1.0000 -0.0495358576
C   C6        1.0  0.32209  0.97740  0.26871  1.0000 0.617096586
C   C7        1.0  0.14803  0.30984  0.85342  1.0000 -0.1896438469
C   C8        1.0  0.87971  0.37298  0.82666  1.0000 0.6276699732
O   O1        1.0  0.01718  0.71835  0.67418  1.0000 -0.757241862
O   O2        1.0  0.87034  0.87059  0.50803  1.0000 -0.7501078119
O   O3        1.0  0.31835  0.83847  0.57071  1.0000 -0.7380779554
O   O4        1.0  0.10918  0.01252  0.74751  1.0000 -0.3561087121
O   O5        1.0  0.50433  0.02807  0.66569  1.0000 -0.51000789
O   O6        1.0  0.63308  0.02751  0.82657  1.0000 -0.51000789
O   O7        1.0  0.54928  0.78481  0.97906  1.0000 -0.7174289694
O   O8        1.0  0.89236  0.90378  0.01927  1.0000 -0.7501078119
O   O9        1.0  0.00526  0.66282  0.94073  1.0000 -0.7501078119
O   O10       1.0  0.70807  0.59372  0.17753  1.0000 -0.4485921432
O   O11       1.0  0.27519  0.70343  0.15255  1.0000 -0.5268411209
O   O12       1.0  0.18575  0.50441  0.21457  1.0000 -0.4816387762
O   O13       1.0  0.98282  0.28165  0.32582  1.0000 -0.757241862
O   O14       1.0  0.12966  0.12941  0.49197  1.0000 -0.7501078119
O   O15       1.0  0.68165  0.16153  0.42929  1.0000 -0.7380779554
O   O16       1.0  0.89082  0.98748  0.25249  1.0000 -0.3561087121
O   O17       1.0  0.49567  0.97193  0.33431  1.0000 -0.51000789
O   O18       1.0  0.36692  0.97249  0.17343  1.0000 -0.51000789
O   O19       1.0  0.45072  0.21519  0.02094  1.0000 -0.7174289694
O   O20       1.0  0.10764  0.09622  0.98073  1.0000 -0.7501078119
O   O21       1.0  0.99474  0.33718  0.05927  1.0000 -0.7501078119
O   O22       1.0  0.29193  0.40628  0.82247  1.0000 -0.4485921432
O   O23       1.0  0.72481  0.29657  0.84745  1.0000 -0.5268411209
O   O24       1.0  0.81425  0.49559  0.78543  1.0000 -0.4816387762
