# DDEC6 charges by PACMAN v1.1 (https://github.com/mtap-research/PACMAN-charge/)
data_2011[Ag][nan]3[ASR]2
_chemical_formula_sum              "Ag12 H116 C72 N32 O28"
_cell_length_a       20.837
_cell_length_b       11.759
_cell_length_c       11.346
_cell_angle_alpha    90
_cell_angle_beta     90
_cell_angle_gamma    90

_symmetry_space_group_name_H-M    "P 1"
_symmetry_Int_Tables_number       1

loop_
  _symmetry_equiv_pos_as_xyz
  'x, y, z'

loop_
  _atom_site_type_symbol
  _atom_site_label
  _atom_site_symmetry_multiplicity
  _atom_site_fract_x
  _atom_site_fract_y
  _atom_site_fract_z
  _atom_site_occupancy
  _atom_site_charge
Ag  Ag1       1.0  0.24786  0.59954  0.47645  1.0000 0.3334145743
Ag  Ag2       1.0  0.75216  0.40046  0.97646  1.0000 0.3334145743
Ag  Ag3       1.0  0.24784  0.40046  0.97646  1.0000 0.3334145743
Ag  Ag4       1.0  0.75214  0.59954  0.47645  1.0000 0.3334145743
Ag  Ag5       1.0  0.74783  0.09954  0.47647  1.0000 0.3334145743
Ag  Ag6       1.0  0.25216  0.90047  0.97645  1.0000 0.3334145743
Ag  Ag7       1.0  0.74784  0.90047  0.97645  1.0000 0.3334145743
Ag  Ag8       1.0  0.25217  0.09954  0.47647  1.0000 0.3334145743
Ag  Ag9       1.0  0.00000  0.81958  0.31014  1.0000 0.3397752951
Ag  Ag10      1.0  0.00000  0.18049  0.81024  1.0000 0.3397752951
Ag  Ag11      1.0  0.50000  0.31951  0.31022  1.0000 0.3397752951
Ag  Ag12      1.0  0.50000  0.68048  0.81020  1.0000 0.3397752951
H   H1        1.0  0.21177  0.68998  0.17365  1.0000 0.0803924139
H   H2        1.0  0.78823  0.31002  0.67365  1.0000 0.0803924139
H   H3        1.0  0.21177  0.31002  0.67365  1.0000 0.0803924139
H   H4        1.0  0.78823  0.68998  0.17365  1.0000 0.0803924139
H   H5        1.0  0.71177  0.18998  0.17365  1.0000 0.0803924139
H   H6        1.0  0.28823  0.81002  0.67365  1.0000 0.0803924139
H   H7        1.0  0.71177  0.81002  0.67365  1.0000 0.0803924139
H   H8        1.0  0.28823  0.18998  0.17365  1.0000 0.0803924139
H   H9        1.0  0.28112  0.77171  0.22301  1.0000 0.0902576571
H   H10       1.0  0.71888  0.22829  0.72301  1.0000 0.0902576571
H   H11       1.0  0.28112  0.22829  0.72301  1.0000 0.0902576571
H   H12       1.0  0.71888  0.77171  0.22301  1.0000 0.0902576571
H   H13       1.0  0.78112  0.27171  0.22301  1.0000 0.0902576571
H   H14       1.0  0.21888  0.72829  0.72301  1.0000 0.0902576571
H   H15       1.0  0.78112  0.72829  0.72301  1.0000 0.0902576571
H   H16       1.0  0.21888  0.27171  0.22301  1.0000 0.0902576571
H   H17       1.0  0.27845  0.86148  0.42053  1.0000 0.099745216
H   H18       1.0  0.72155  0.13852  0.92053  1.0000 0.099745216
H   H19       1.0  0.27845  0.13852  0.92053  1.0000 0.099745216
H   H20       1.0  0.72155  0.86148  0.42053  1.0000 0.099745216
H   H21       1.0  0.77844  0.36147  0.42052  1.0000 0.099745216
H   H22       1.0  0.22156  0.63853  0.92053  1.0000 0.099745216
H   H23       1.0  0.77844  0.63853  0.92053  1.0000 0.099745216
H   H24       1.0  0.22156  0.36147  0.42052  1.0000 0.099745216
H   H25       1.0  0.20731  0.84363  0.50812  1.0000 0.0703379975
H   H26       1.0  0.79270  0.15637  0.00811  1.0000 0.0703379975
H   H27       1.0  0.20730  0.15637  0.00811  1.0000 0.0703379975
H   H28       1.0  0.79269  0.84363  0.50812  1.0000 0.0703379975
H   H29       1.0  0.70730  0.34363  0.50811  1.0000 0.0703379975
H   H30       1.0  0.29270  0.65637  0.00811  1.0000 0.0703379975
H   H31       1.0  0.70730  0.65637  0.00811  1.0000 0.0703379975
H   H32       1.0  0.29270  0.34363  0.50811  1.0000 0.0703379975
H   H33       1.0  0.11725  0.73588  0.44090  1.0000 0.0902576571
H   H34       1.0  0.88276  0.26413  0.94089  1.0000 0.0902576571
H   H35       1.0  0.11724  0.26413  0.94089  1.0000 0.0902576571
H   H36       1.0  0.88275  0.73588  0.44090  1.0000 0.0902576571
H   H37       1.0  0.61724  0.23587  0.44089  1.0000 0.0902576571
H   H38       1.0  0.38275  0.76413  0.94090  1.0000 0.0902576571
H   H39       1.0  0.61725  0.76413  0.94090  1.0000 0.0902576571
H   H40       1.0  0.38276  0.23587  0.44089  1.0000 0.0902576571
H   H41       1.0  0.11834  0.67042  0.29872  1.0000 0.0902576571
H   H42       1.0  0.88166  0.32958  0.79873  1.0000 0.0902576571
H   H43       1.0  0.11834  0.32958  0.79873  1.0000 0.0902576571
H   H44       1.0  0.88166  0.67042  0.29872  1.0000 0.0902576571
H   H45       1.0  0.61834  0.17042  0.29873  1.0000 0.0902576571
H   H46       1.0  0.38166  0.82958  0.79872  1.0000 0.0902576571
H   H47       1.0  0.61834  0.82958  0.79872  1.0000 0.0902576571
H   H48       1.0  0.38166  0.17042  0.29873  1.0000 0.0902576571
H   H49       1.0  0.10663  0.02908  0.32713  1.0000 0.0803924139
H   H50       1.0  0.89337  0.97092  0.82713  1.0000 0.0803924139
H   H51       1.0  0.10663  0.97092  0.82713  1.0000 0.0803924139
H   H52       1.0  0.89337  0.02908  0.32713  1.0000 0.0803924139
H   H53       1.0  0.60663  0.52908  0.32713  1.0000 0.0803924139
H   H54       1.0  0.39337  0.47092  0.82713  1.0000 0.0803924139
H   H55       1.0  0.60663  0.47092  0.82713  1.0000 0.0803924139
H   H56       1.0  0.39337  0.52908  0.32713  1.0000 0.0803924139
H   H57       1.0  0.11011  0.93968  0.45634  1.0000 0.0803924139
H   H58       1.0  0.88989  0.06033  0.95633  1.0000 0.0803924139
H   H59       1.0  0.11011  0.06033  0.95633  1.0000 0.0803924139
H   H60       1.0  0.88989  0.93968  0.45634  1.0000 0.0803924139
H   H61       1.0  0.61011  0.43967  0.45633  1.0000 0.0803924139
H   H62       1.0  0.38989  0.56033  0.95634  1.0000 0.0803924139
H   H63       1.0  0.61011  0.56033  0.95634  1.0000 0.0803924139
H   H64       1.0  0.38989  0.43967  0.45633  1.0000 0.0803924139
H   H65       1.0  0.10982  0.93937  0.13268  1.0000 0.0703379975
H   H66       1.0  0.89018  0.06063  0.63268  1.0000 0.0703379975
H   H67       1.0  0.10982  0.06063  0.63268  1.0000 0.0703379975
H   H68       1.0  0.89018  0.93937  0.13268  1.0000 0.0703379975
H   H69       1.0  0.60982  0.43937  0.13268  1.0000 0.0703379975
H   H70       1.0  0.39018  0.56063  0.63268  1.0000 0.0703379975
H   H71       1.0  0.60982  0.56063  0.63268  1.0000 0.0703379975
H   H72       1.0  0.39018  0.43937  0.13268  1.0000 0.0703379975
H   H73       1.0  0.11461  0.78631  0.11966  1.0000 0.099745216
H   H74       1.0  0.88539  0.21368  0.61966  1.0000 0.099745216
H   H75       1.0  0.11461  0.21368  0.61966  1.0000 0.099745216
H   H76       1.0  0.88539  0.78631  0.11966  1.0000 0.099745216
H   H77       1.0  0.61460  0.28632  0.11966  1.0000 0.099745216
H   H78       1.0  0.38540  0.71368  0.61966  1.0000 0.099745216
H   H79       1.0  0.61460  0.71368  0.61966  1.0000 0.099745216
H   H80       1.0  0.38540  0.28632  0.11966  1.0000 0.099745216
H   H81       1.0  0.20084  0.04610  0.20227  1.0000 0.0703379975
H   H82       1.0  0.79916  0.95390  0.70227  1.0000 0.0703379975
H   H83       1.0  0.20084  0.95390  0.70227  1.0000 0.0703379975
H   H84       1.0  0.79916  0.04610  0.20227  1.0000 0.0703379975
H   H85       1.0  0.70084  0.54610  0.20227  1.0000 0.0703379975
H   H86       1.0  0.29916  0.45390  0.70227  1.0000 0.0703379975
H   H87       1.0  0.70084  0.45390  0.70227  1.0000 0.0703379975
H   H88       1.0  0.29916  0.54610  0.20227  1.0000 0.0703379975
H   H89       1.0  0.27436  0.97270  0.24043  1.0000 0.0902576571
H   H90       1.0  0.72564  0.02730  0.74043  1.0000 0.0902576571
H   H91       1.0  0.27436  0.02730  0.74043  1.0000 0.0902576571
H   H92       1.0  0.72564  0.97270  0.24043  1.0000 0.0902576571
H   H93       1.0  0.77436  0.47270  0.24043  1.0000 0.0902576571
H   H94       1.0  0.22564  0.52730  0.74044  1.0000 0.0902576571
H   H95       1.0  0.77436  0.52730  0.74044  1.0000 0.0902576571
H   H96       1.0  0.22564  0.47270  0.24043  1.0000 0.0902576571
H   H97       1.0  0.05537  0.57239  0.69438  1.0000 0.1365929257
H   H98       1.0  0.94463  0.42760  0.19437  1.0000 0.1365929257
H   H99       1.0  0.05537  0.42760  0.19437  1.0000 0.1365929257
H   H100      1.0  0.94463  0.57239  0.69438  1.0000 0.1365929257
H   H101      1.0  0.55537  0.07239  0.69437  1.0000 0.1365929257
H   H102      1.0  0.44463  0.92761  0.19438  1.0000 0.1365929257
H   H103      1.0  0.55537  0.92761  0.19438  1.0000 0.1365929257
H   H104      1.0  0.44463  0.07239  0.69437  1.0000 0.1365929257
H   H105      1.0  0.05782  0.42175  0.66352  1.0000 0.1249797355
H   H106      1.0  0.94217  0.57827  0.16351  1.0000 0.1249797355
H   H107      1.0  0.05783  0.57827  0.16351  1.0000 0.1249797355
H   H108      1.0  0.94218  0.42175  0.66352  1.0000 0.1249797355
H   H109      1.0  0.55783  0.92174  0.66351  1.0000 0.1249797355
H   H110      1.0  0.44218  0.07826  0.16352  1.0000 0.1249797355
H   H111      1.0  0.55782  0.07826  0.16352  1.0000 0.1249797355
H   H112      1.0  0.44217  0.92174  0.66351  1.0000 0.1249797355
H   H113      1.0  0.00000  0.45910  0.38342  1.0000 0.3454834829
H   H114      1.0  0.00000  0.54084  0.88344  1.0000 0.3454834829
H   H115      1.0  0.50000  0.95914  0.38346  1.0000 0.3454834829
H   H116      1.0  0.50000  0.04088  0.88347  1.0000 0.3454834829
C   C1        1.0  0.22815  0.76426  0.22547  1.0000 0.0089103891
C   C2        1.0  0.77185  0.23574  0.72548  1.0000 0.0089103891
C   C3        1.0  0.22815  0.23574  0.72548  1.0000 0.0089103891
C   C4        1.0  0.77185  0.76426  0.22547  1.0000 0.0089103891
C   C5        1.0  0.72815  0.26427  0.22548  1.0000 0.0089103891
C   C6        1.0  0.27185  0.73573  0.72547  1.0000 0.0089103891
C   C7        1.0  0.72815  0.73573  0.72547  1.0000 0.0089103891
C   C8        1.0  0.27185  0.26427  0.22548  1.0000 0.0089103891
C   C9        1.0  0.22564  0.85287  0.41716  1.0000 -0.0149229847
C   C10       1.0  0.77435  0.14713  0.91716  1.0000 -0.0149229847
C   C11       1.0  0.22565  0.14713  0.91716  1.0000 -0.0149229847
C   C12       1.0  0.77436  0.85287  0.41716  1.0000 -0.0149229847
C   C13       1.0  0.72564  0.35288  0.41716  1.0000 -0.0149229847
C   C14       1.0  0.27436  0.64713  0.91716  1.0000 -0.0149229847
C   C15       1.0  0.72564  0.64713  0.91716  1.0000 -0.0149229847
C   C16       1.0  0.27436  0.35288  0.41716  1.0000 -0.0149229847
C   C17       1.0  0.13466  0.74518  0.34937  1.0000 -0.0017982054
C   C18       1.0  0.86536  0.25482  0.84938  1.0000 -0.0017982054
C   C19       1.0  0.13464  0.25482  0.84938  1.0000 -0.0017982054
C   C20       1.0  0.86534  0.74518  0.34937  1.0000 -0.0017982054
C   C21       1.0  0.63464  0.24518  0.34937  1.0000 -0.0017982054
C   C22       1.0  0.36536  0.75482  0.84937  1.0000 -0.0017982054
C   C23       1.0  0.63464  0.75482  0.84937  1.0000 -0.0017982054
C   C24       1.0  0.36536  0.24518  0.34937  1.0000 -0.0017982054
C   C25       1.0  0.12762  0.95056  0.36489  1.0000 0.0181288632
C   C26       1.0  0.87239  0.04947  0.86488  1.0000 0.0181288632
C   C27       1.0  0.12761  0.04947  0.86488  1.0000 0.0181288632
C   C28       1.0  0.87238  0.95056  0.36489  1.0000 0.0181288632
C   C29       1.0  0.62760  0.45054  0.36488  1.0000 0.0181288632
C   C30       1.0  0.37239  0.54946  0.86488  1.0000 0.0181288632
C   C31       1.0  0.62761  0.54946  0.86488  1.0000 0.0181288632
C   C32       1.0  0.37240  0.45054  0.36488  1.0000 0.0181288632
C   C33       1.0  0.13019  0.86099  0.17175  1.0000 0.0181288632
C   C34       1.0  0.86982  0.13901  0.67179  1.0000 0.0181288632
C   C35       1.0  0.13018  0.13901  0.67179  1.0000 0.0181288632
C   C36       1.0  0.86981  0.86099  0.17175  1.0000 0.0181288632
C   C37       1.0  0.63018  0.36099  0.17178  1.0000 0.0181288632
C   C38       1.0  0.36982  0.63901  0.67177  1.0000 0.0181288632
C   C39       1.0  0.63018  0.63901  0.67177  1.0000 0.0181288632
C   C40       1.0  0.36982  0.36099  0.17178  1.0000 0.0181288632
C   C41       1.0  0.22136  0.96802  0.24159  1.0000 0.0089103891
C   C42       1.0  0.77864  0.03199  0.74160  1.0000 0.0089103891
C   C43       1.0  0.22136  0.03199  0.74160  1.0000 0.0089103891
C   C44       1.0  0.77864  0.96802  0.24159  1.0000 0.0089103891
C   C45       1.0  0.72136  0.46801  0.24160  1.0000 0.0089103891
C   C46       1.0  0.27864  0.53199  0.74159  1.0000 0.0089103891
C   C47       1.0  0.72136  0.53199  0.74159  1.0000 0.0089103891
C   C48       1.0  0.27864  0.46801  0.24160  1.0000 0.0089103891
C   C49       1.0  0.12491  0.52269  0.56454  1.0000 0.621746042
C   C50       1.0  0.87514  0.47737  0.06458  1.0000 0.621746042
C   C51       1.0  0.12486  0.47737  0.06458  1.0000 0.621746042
C   C52       1.0  0.87509  0.52269  0.56454  1.0000 0.621746042
C   C53       1.0  0.62484  0.02260  0.56459  1.0000 0.621746042
C   C54       1.0  0.37515  0.97740  0.06458  1.0000 0.621746042
C   C55       1.0  0.62485  0.97740  0.06458  1.0000 0.621746042
C   C56       1.0  0.37516  0.02260  0.56459  1.0000 0.621746042
C   C57       1.0  0.05974  0.50792  0.62427  1.0000 -0.369450136
C   C58       1.0  0.94026  0.49206  0.12427  1.0000 -0.369450136
C   C59       1.0  0.05974  0.49206  0.12427  1.0000 -0.369450136
C   C60       1.0  0.94026  0.50792  0.62427  1.0000 -0.369450136
C   C61       1.0  0.55974  0.00795  0.62427  1.0000 -0.369450136
C   C62       1.0  0.44026  0.99205  0.12426  1.0000 -0.369450136
C   C63       1.0  0.55974  0.99205  0.12426  1.0000 -0.369450136
C   C64       1.0  0.44026  0.00795  0.62427  1.0000 -0.369450136
C   C65       1.0  0.00000  0.51574  0.54299  1.0000 0.2460342805
C   C66       1.0  0.00000  0.48428  0.04296  1.0000 0.2460342805
C   C67       1.0  0.50000  0.01569  0.54295  1.0000 0.2460342805
C   C68       1.0  0.50000  0.98426  0.04291  1.0000 0.2460342805
C   C69       1.0  0.00000  0.63040  0.47479  1.0000 0.4982587408
C   C70       1.0  0.00000  0.36938  0.97479  1.0000 0.4982587408
C   C71       1.0  0.50000  0.13061  0.47475  1.0000 0.4982587408
C   C72       1.0  0.50000  0.86938  0.97481  1.0000 0.4982587408
N   N1        1.0  0.20571  0.75165  0.34893  1.0000 -0.1710562901
N   N2        1.0  0.79428  0.24835  0.84893  1.0000 -0.1710562901
N   N3        1.0  0.20572  0.24835  0.84893  1.0000 -0.1710562901
N   N4        1.0  0.79429  0.75165  0.34893  1.0000 -0.1710562901
N   N5        1.0  0.70572  0.25165  0.34893  1.0000 -0.1710562901
N   N6        1.0  0.29428  0.74835  0.84893  1.0000 -0.1710562901
N   N7        1.0  0.70572  0.74835  0.84893  1.0000 -0.1710562901
N   N8        1.0  0.29428  0.25165  0.34893  1.0000 -0.1710562901
N   N9        1.0  0.10551  0.84994  0.29521  1.0000 -0.1577303399
N   N10       1.0  0.89447  0.15004  0.79519  1.0000 -0.1577303399
N   N11       1.0  0.10553  0.15004  0.79519  1.0000 -0.1577303399
N   N12       1.0  0.89449  0.84994  0.29521  1.0000 -0.1577303399
N   N13       1.0  0.60554  0.34996  0.29519  1.0000 -0.1577303399
N   N14       1.0  0.39447  0.65004  0.79519  1.0000 -0.1577303399
N   N15       1.0  0.60553  0.65004  0.79519  1.0000 -0.1577303399
N   N16       1.0  0.39446  0.34996  0.29519  1.0000 -0.1577303399
N   N17       1.0  0.19871  0.95981  0.36604  1.0000 -0.1710562901
N   N18       1.0  0.80128  0.04019  0.86604  1.0000 -0.1710562901
N   N19       1.0  0.19872  0.04019  0.86604  1.0000 -0.1710562901
N   N20       1.0  0.80129  0.95981  0.36604  1.0000 -0.1710562901
N   N21       1.0  0.69873  0.45981  0.36604  1.0000 -0.1710562901
N   N22       1.0  0.30127  0.54019  0.86604  1.0000 -0.1710562901
N   N23       1.0  0.69873  0.54019  0.86604  1.0000 -0.1710562901
N   N24       1.0  0.30127  0.45981  0.36604  1.0000 -0.1710562901
N   N25       1.0  0.20100  0.86861  0.16978  1.0000 -0.1753753581
N   N26       1.0  0.79899  0.13139  0.66976  1.0000 -0.1753753581
N   N27       1.0  0.20101  0.13139  0.66976  1.0000 -0.1753753581
N   N28       1.0  0.79900  0.86861  0.16978  1.0000 -0.1753753581
N   N29       1.0  0.70101  0.36861  0.16977  1.0000 -0.1753753581
N   N30       1.0  0.29899  0.63139  0.66977  1.0000 -0.1753753581
N   N31       1.0  0.70101  0.63139  0.66977  1.0000 -0.1753753581
N   N32       1.0  0.29899  0.36861  0.16977  1.0000 -0.1753753581
O   O1        1.0  0.00000  0.72269  0.53243  1.0000 -0.5289859016
O   O2        1.0  0.00000  0.27719  0.03259  1.0000 -0.5289859016
O   O3        1.0  0.50000  0.22277  0.53256  1.0000 -0.5289859016
O   O4        1.0  0.50000  0.77734  0.03248  1.0000 -0.5289859016
O   O5        1.0  0.00000  0.62121  0.36122  1.0000 -0.5614423543
O   O6        1.0  0.00000  0.37894  0.86097  1.0000 -0.5614423543
O   O7        1.0  0.50000  0.12108  0.36104  1.0000 -0.5614423543
O   O8        1.0  0.50000  0.87888  0.86112  1.0000 -0.5614423543
O   O9        1.0  0.14770  0.44223  0.50264  1.0000 -0.5804037441
O   O10       1.0  0.85227  0.55776  0.00262  1.0000 -0.5804037441
O   O11       1.0  0.14773  0.55776  0.00262  1.0000 -0.5804037441
O   O12       1.0  0.85230  0.44223  0.50264  1.0000 -0.5804037441
O   O13       1.0  0.64775  0.94225  0.50262  1.0000 -0.5804037441
O   O14       1.0  0.35226  0.05775  0.00263  1.0000 -0.5804037441
O   O15       1.0  0.64774  0.05775  0.00263  1.0000 -0.5804037441
O   O16       1.0  0.35225  0.94225  0.50262  1.0000 -0.5804037441
O   O17       1.0  0.15443  0.61798  0.58395  1.0000 -0.5614423543
O   O18       1.0  0.84554  0.38200  0.08394  1.0000 -0.5614423543
O   O19       1.0  0.15446  0.38200  0.08394  1.0000 -0.5614423543
O   O20       1.0  0.84557  0.61798  0.58395  1.0000 -0.5614423543
O   O21       1.0  0.65448  0.11802  0.58393  1.0000 -0.5614423543
O   O22       1.0  0.34553  0.88198  0.08394  1.0000 -0.5614423543
O   O23       1.0  0.65447  0.88198  0.08394  1.0000 -0.5614423543
O   O24       1.0  0.34552  0.11802  0.58393  1.0000 -0.5614423543
O   O25       1.0  0.00000  0.42203  0.46174  1.0000 -0.4997002919
O   O26       1.0  0.00000  0.57808  0.96175  1.0000 -0.4997002919
O   O27       1.0  0.50000  0.92196  0.46173  1.0000 -0.4997002919
O   O28       1.0  0.50000  0.07805  0.96173  1.0000 -0.4997002919
