# DDEC6 charges by PACMAN v1.1 (https://github.com/mtap-research/PACMAN-charge/)
data_2011[Cd][pcu]3[ASR]2
_chemical_formula_sum              "Cd1 H54 C54 N12"
_cell_length_a       10.998
_cell_length_b       11.8
_cell_length_c       12.793
_cell_angle_alpha    70.09
_cell_angle_beta     66.74
_cell_angle_gamma    73.43

_symmetry_space_group_name_H-M    "P 1"
_symmetry_Int_Tables_number       1

loop_
  _symmetry_equiv_pos_as_xyz
  'x, y, z'

loop_
  _atom_site_type_symbol
  _atom_site_label
  _atom_site_symmetry_multiplicity
  _atom_site_fract_x
  _atom_site_fract_y
  _atom_site_fract_z
  _atom_site_occupancy
  _atom_site_charge
Cd  Cd1       1.0  0.00000  0.50000  0.50000  1.0000 0.6081975146
H   H1        1.0  0.40390  0.13760  0.18430  1.0000 0.2379334016
H   H2        1.0  0.59610  0.86240  0.81570  1.0000 0.2379334016
H   H3        1.0  0.50940  0.76040  0.16210  1.0000 0.2379334016
H   H4        1.0  0.49060  0.23960  0.83790  1.0000 0.2379334016
H   H5        1.0  0.82340  0.22720  0.23530  1.0000 0.2477528347
H   H6        1.0  0.17660  0.77280  0.76470  1.0000 0.2477528347
H   H7        1.0  0.19480  0.38380  0.28040  1.0000 0.1030825473
H   H8        1.0  0.80520  0.61620  0.71960  1.0000 0.1030825473
H   H9        1.0  0.46440  0.09160  0.36340  1.0000 0.1193178619
H   H10       1.0  0.53560  0.90840  0.63660  1.0000 0.1193178619
H   H11       1.0  0.40040  0.12980  0.54460  1.0000 0.1080436929
H   H12       1.0  0.59960  0.87020  0.45540  1.0000 0.1080436929
H   H13       1.0  0.23470  0.29210  0.59000  1.0000 0.0936205766
H   H14       1.0  0.76530  0.70790  0.41000  1.0000 0.0936205766
H   H15       1.0  0.24690  0.33940  0.11630  1.0000 0.1030825473
H   H16       1.0  0.75310  0.66060  0.88370  1.0000 0.1030825473
H   H17       1.0  0.36110  0.26700  0.03050  1.0000 0.1030825473
H   H18       1.0  0.63890  0.73300  0.96950  1.0000 0.1030825473
H   H19       1.0  0.27010  0.54860  0.04500  1.0000 0.1080436929
H   H20       1.0  0.72990  0.45140  0.95500  1.0000 0.1080436929
H   H21       1.0  0.60440  0.29920  0.02640  1.0000 0.1080436929
H   H22       1.0  0.39560  0.70080  0.97360  1.0000 0.1080436929
H   H23       1.0  0.29030  0.56140  0.34920  1.0000 0.1030825473
H   H24       1.0  0.70970  0.43860  0.65080  1.0000 0.1030825473
H   H25       1.0  0.31130  0.90430  0.14790  1.0000 0.1193178619
H   H26       1.0  0.68870  0.09570  0.85210  1.0000 0.1193178619
H   H27       1.0  0.08150  0.94440  0.20720  1.0000 0.1193178619
H   H28       1.0  0.91850  0.05560  0.79280  1.0000 0.1193178619
H   H29       1.0  0.95980  0.79580  0.34560  1.0000 0.0936205766
H   H30       1.0  0.04020  0.20420  0.65440  1.0000 0.0936205766
H   H31       1.0  0.63360  0.58620  0.20490  1.0000 0.1080436929
H   H32       1.0  0.36640  0.41380  0.79510  1.0000 0.1080436929
H   H33       1.0  0.51360  0.52570  0.22630  1.0000 0.1080436929
H   H34       1.0  0.48640  0.47430  0.77370  1.0000 0.1080436929
H   H35       1.0  0.50000  0.70400  0.40460  1.0000 0.1030825473
H   H36       1.0  0.50000  0.29600  0.59540  1.0000 0.1030825473
H   H37       1.0  0.53160  0.36310  0.39600  1.0000 0.1080436929
H   H38       1.0  0.46840  0.63690  0.60400  1.0000 0.1080436929
H   H39       1.0  0.87070  0.32170  0.44200  1.0000 0.1030825473
H   H40       1.0  0.12930  0.67830  0.55800  1.0000 0.1030825473
H   H41       1.0  0.88040  0.41900  0.10740  1.0000 0.1193178619
H   H42       1.0  0.11960  0.58100  0.89260  1.0000 0.1193178619
H   H43       1.0  0.94540  0.59890  0.08350  1.0000 0.1080436929
H   H44       1.0  0.05460  0.40110  0.91650  1.0000 0.1080436929
H   H45       1.0  0.97820  0.63060  0.23620  1.0000 0.0936205766
H   H46       1.0  0.02180  0.36940  0.76380  1.0000 0.0936205766
H   H47       1.0  0.73990  0.10170  0.40290  1.0000 0.1080436929
H   H48       1.0  0.26010  0.89830  0.59710  1.0000 0.1080436929
H   H49       1.0  0.72800  0.19930  0.46530  1.0000 0.1030825473
H   H50       1.0  0.27200  0.80070  0.53470  1.0000 0.1030825473
H   H51       1.0  0.77870  0.99540  0.60880  1.0000 0.1080436929
H   H52       1.0  0.22130  0.00460  0.39120  1.0000 0.1080436929
H   H53       1.0  0.06040  0.12910  0.31440  1.0000 0.1080436929
H   H54       1.0  0.93960  0.87090  0.68560  1.0000 0.1080436929
C   C1        1.0  0.23730  0.33130  0.33360  1.0000 -0.0784711571
C   C2        1.0  0.76270  0.66870  0.66640  1.0000 -0.0784711571
C   C3        1.0  0.33570  0.23380  0.30000  1.0000 0.1799952953
C   C4        1.0  0.66430  0.76620  0.70000  1.0000 0.1799952953
C   C5        1.0  0.39750  0.15770  0.38180  1.0000 -0.1970986482
C   C6        1.0  0.60250  0.84230  0.61820  1.0000 -0.1933947788
C   C7        1.0  0.35940  0.18040  0.48970  1.0000 -0.1379989193
C   C8        1.0  0.64060  0.81960  0.51030  1.0000 -0.1379989193
C   C9        1.0  0.26050  0.27800  0.51630  1.0000 0.0057449007
C   C10       1.0  0.73950  0.72200  0.48370  1.0000 0.0057449007
C   C11       1.0  0.34180  0.30430  0.09350  1.0000 -0.1486784152
C   C12       1.0  0.65820  0.69570  0.90650  1.0000 -0.1486784152
C   C13       1.0  0.42230  0.40630  0.04650  1.0000 0.0722872136
C   C14       1.0  0.57770  0.59370  0.95350  1.0000 0.0722872136
C   C15       1.0  0.36280  0.52790  0.02770  1.0000 -0.1933947788
C   C16       1.0  0.63720  0.47210  0.97230  1.0000 -0.1933947788
C   C17       1.0  0.56120  0.38040  0.01650  1.0000 -0.1612610178
C   C18       1.0  0.43880  0.61960  0.98350  1.0000 -0.1612610178
C   C19       1.0  0.24800  0.64020  0.32170  1.0000 -0.0569651326
C   C20       1.0  0.75200  0.35980  0.67830  1.0000 -0.0569651326
C   C21       1.0  0.32880  0.72770  0.24330  1.0000 0.1915511234
C   C22       1.0  0.67120  0.27230  0.75670  1.0000 0.1915511234
C   C23       1.0  0.26230  0.84350  0.20090  1.0000 -0.1933947788
C   C24       1.0  0.73770  0.15650  0.79910  1.0000 -0.1933947788
C   C25       1.0  0.12620  0.86760  0.23690  1.0000 -0.1099109234
C   C26       1.0  0.87380  0.13240  0.76310  1.0000 -0.1099109234
C   C27       1.0  0.05320  0.77700  0.31860  1.0000 -0.0100083876
C   C28       1.0  0.94680  0.22300  0.68140  1.0000 -0.0100083876
C   C29       1.0  0.53870  0.58510  0.24760  1.0000 -0.1486784152
C   C30       1.0  0.46130  0.41490  0.75240  1.0000 -0.1486784152
C   C31       1.0  0.51850  0.54150  0.37930  1.0000 0.0814056291
C   C32       1.0  0.48150  0.45850  0.62070  1.0000 0.0814056291
C   C33       1.0  0.50000  0.62130  0.44240  1.0000 -0.1701451596
C   C34       1.0  0.50000  0.37870  0.55760  1.0000 -0.1701451596
C   C35       1.0  0.51870  0.41910  0.43750  1.0000 -0.1832331674
C   C36       1.0  0.48130  0.58090  0.56250  1.0000 -0.1832331674
C   C37       1.0  0.88740  0.37690  0.36810  1.0000 -0.0687192337
C   C38       1.0  0.11260  0.62310  0.63190  1.0000 -0.0687192337
C   C39       1.0  0.86790  0.34850  0.27970  1.0000 0.1799952953
C   C40       1.0  0.13210  0.65150  0.72030  1.0000 0.1799952953
C   C41       1.0  0.89140  0.43390  0.16970  1.0000 -0.1970986482
C   C42       1.0  0.10860  0.56610  0.83030  1.0000 -0.1970986482
C   C43       1.0  0.93120  0.54010  0.15540  1.0000 -0.1379989193
C   C44       1.0  0.06880  0.45990  0.84460  1.0000 -0.1379989193
C   C45       1.0  0.94970  0.55890  0.24780  1.0000 -0.0004887149
C   C46       1.0  0.05030  0.44110  0.75220  1.0000 -0.0004887149
C   C47       1.0  0.78930  0.15500  0.40770  1.0000 -0.1486784152
C   C48       1.0  0.21070  0.84500  0.59230  1.0000 -0.1486784152
C   C49       1.0  0.90040  0.07610  0.45310  1.0000 0.0722872136
C   C50       1.0  0.09960  0.92390  0.54690  1.0000 0.0722872136
C   C51       1.0  0.86870  0.99760  0.56400  1.0000 -0.1701451596
C   C52       1.0  0.13130  0.00240  0.43600  1.0000 -0.1701451596
C   C53       1.0  0.03510  0.07700  0.38960  1.0000 -0.1701451596
C   C54       1.0  0.96490  0.92300  0.61040  1.0000 -0.1701451596
N   N1        1.0  0.20070  0.35310  0.43940  1.0000 -0.2195136802
N   N2        1.0  0.79930  0.64690  0.56060  1.0000 -0.2195136802
N   N3        1.0  0.36760  0.21050  0.19210  1.0000 -0.3554772095
N   N4        1.0  0.63240  0.78950  0.80790  1.0000 -0.3490273611
N   N5        1.0  0.11390  0.66380  0.35900  1.0000 -0.2195136802
N   N6        1.0  0.88610  0.33620  0.64100  1.0000 -0.2195136802
N   N7        1.0  0.46540  0.70260  0.20910  1.0000 -0.3306511001
N   N8        1.0  0.53460  0.29740  0.79090  1.0000 -0.3306511001
N   N9        1.0  0.92890  0.47970  0.35260  1.0000 -0.2195136802
N   N10       1.0  0.07110  0.52030  0.64740  1.0000 -0.2195136802
N   N11       1.0  0.82670  0.24200  0.29540  1.0000 -0.3490273611
N   N12       1.0  0.17330  0.75800  0.70460  1.0000 -0.3490273611
