# DDEC6 charges by PACMAN v1.1 (https://github.com/mtap-research/PACMAN-charge/)
data_2011[Yb][nan]3[ASR]2
_chemical_formula_sum              "Yb4 H28 C60 O24"
_cell_length_a       14.642
_cell_length_b       14.642
_cell_length_c       14.333
_cell_angle_alpha    90
_cell_angle_beta     90
_cell_angle_gamma    90

_symmetry_space_group_name_H-M    "P 1"
_symmetry_Int_Tables_number       1

loop_
  _symmetry_equiv_pos_as_xyz
  'x, y, z'

loop_
  _atom_site_type_symbol
  _atom_site_label
  _atom_site_symmetry_multiplicity
  _atom_site_fract_x
  _atom_site_fract_y
  _atom_site_fract_z
  _atom_site_occupancy
  _atom_site_charge
Yb  Yb1       1.0  0.41359  0.63346  0.48494  1.0000 2.0528241974
Yb  Yb2       1.0  0.58641  0.36654  0.98494  1.0000 2.0528241974
Yb  Yb3       1.0  0.63346  0.58641  0.23494  1.0000 2.0528241974
Yb  Yb4       1.0  0.36654  0.41359  0.73494  1.0000 2.0528241974
H   H1        1.0  0.44460  0.51860  0.10430  1.0000 0.1196278807
H   H2        1.0  0.55540  0.48140  0.60430  1.0000 0.1196278807
H   H3        1.0  0.51860  0.55540  0.85430  1.0000 0.1196278807
H   H4        1.0  0.48140  0.44460  0.35430  1.0000 0.1196278807
H   H5        1.0  0.19660  0.48500  0.99190  1.0000 0.1298231502
H   H6        1.0  0.80340  0.51500  0.49190  1.0000 0.1298231502
H   H7        1.0  0.48500  0.80340  0.74190  1.0000 0.1298231502
H   H8        1.0  0.51500  0.19660  0.24190  1.0000 0.1298231502
H   H9        1.0  0.22530  0.60980  0.24160  1.0000 0.1196278807
H   H10       1.0  0.77470  0.39020  0.74160  1.0000 0.1196278807
H   H11       1.0  0.60980  0.77470  0.99160  1.0000 0.1196278807
H   H12       1.0  0.39020  0.22530  0.49160  1.0000 0.1196278807
H   H13       1.0  0.09470  0.68900  0.17470  1.0000 0.1196278807
H   H14       1.0  0.90530  0.31100  0.67470  1.0000 0.1196278807
H   H15       1.0  0.68900  0.90530  0.92470  1.0000 0.1196278807
H   H16       1.0  0.31100  0.09470  0.42470  1.0000 0.1196278807
H   H17       1.0  0.94020  0.69760  0.20120  1.0000 0.1196278807
H   H18       1.0  0.05980  0.30240  0.70120  1.0000 0.1196278807
H   H19       1.0  0.69760  0.05980  0.95120  1.0000 0.1196278807
H   H20       1.0  0.30240  0.94020  0.45120  1.0000 0.1196278807
H   H21       1.0  0.90750  0.43820  0.11860  1.0000 0.1298231502
H   H22       1.0  0.09250  0.56180  0.61860  1.0000 0.1298231502
H   H23       1.0  0.43820  0.09250  0.86860  1.0000 0.1298231502
H   H24       1.0  0.56180  0.90750  0.36860  1.0000 0.1298231502
H   H25       1.0  0.06470  0.43240  0.08420  1.0000 0.1196278807
H   H26       1.0  0.93530  0.56760  0.58420  1.0000 0.1196278807
H   H27       1.0  0.43240  0.93530  0.83420  1.0000 0.1196278807
H   H28       1.0  0.56760  0.06470  0.33420  1.0000 0.1196278807
C   C1        1.0  0.34470  0.57120  0.18380  1.0000 -0.0520043447
C   C2        1.0  0.65530  0.42880  0.68380  1.0000 -0.0520043447
C   C3        1.0  0.57120  0.65530  0.93380  1.0000 -0.0520043447
C   C4        1.0  0.42880  0.34470  0.43380  1.0000 -0.0520043447
C   C5        1.0  0.38190  0.52810  0.10740  1.0000 -0.114445174
C   C6        1.0  0.61810  0.47190  0.60740  1.0000 -0.1153459865
C   C7        1.0  0.52810  0.61810  0.85740  1.0000 -0.114445174
C   C8        1.0  0.47190  0.38190  0.35740  1.0000 -0.1153459865
C   C9        1.0  0.32640  0.49890  0.03500  1.0000 -0.0135832591
C   C10       1.0  0.67360  0.50110  0.53500  1.0000 -0.0135832591
C   C11       1.0  0.49890  0.67360  0.78500  1.0000 -0.0135832591
C   C12       1.0  0.50110  0.32640  0.28500  1.0000 -0.0135832591
C   C13       1.0  0.23310  0.50750  0.03970  1.0000 -0.1306547885
C   C14       1.0  0.76690  0.49250  0.53970  1.0000 -0.1306547885
C   C15       1.0  0.50750  0.76690  0.78970  1.0000 -0.1306547885
C   C16       1.0  0.49250  0.23310  0.28970  1.0000 -0.1306547885
C   C17       1.0  0.19300  0.55050  0.11730  1.0000 0.0511699394
C   C18       1.0  0.80700  0.44950  0.61730  1.0000 0.0511699394
C   C19       1.0  0.55050  0.80700  0.86730  1.0000 0.0511699394
C   C20       1.0  0.44950  0.19300  0.36730  1.0000 0.0511699394
C   C21       1.0  0.25060  0.58170  0.18950  1.0000 -0.1306547885
C   C22       1.0  0.74940  0.41830  0.68950  1.0000 -0.1306547885
C   C23       1.0  0.58170  0.74940  0.93950  1.0000 -0.1306547885
C   C24       1.0  0.41830  0.25060  0.43950  1.0000 -0.1306547885
C   C25       1.0  0.40090  0.60080  0.26250  1.0000 0.6656638366
C   C26       1.0  0.59910  0.39920  0.76250  1.0000 0.6623503071
C   C27       1.0  0.60080  0.59910  0.01250  1.0000 0.6656638366
C   C28       1.0  0.39920  0.40090  0.51250  1.0000 0.6656638366
C   C29       1.0  0.36970  0.45630  0.94960  1.0000 0.6623503071
C   C30       1.0  0.63030  0.54370  0.44960  1.0000 0.6623503071
C   C31       1.0  0.45630  0.63030  0.69960  1.0000 0.6623503071
C   C32       1.0  0.54370  0.36970  0.19960  1.0000 0.6623503071
C   C33       1.0  0.09350  0.55930  0.12720  1.0000 0.0635832456
C   C34       1.0  0.90650  0.44070  0.62720  1.0000 0.0635832456
C   C35       1.0  0.55930  0.90650  0.87720  1.0000 0.0635832456
C   C36       1.0  0.44070  0.09350  0.37720  1.0000 0.0635832456
C   C37       1.0  0.05730  0.63910  0.16230  1.0000 -0.1486930381
C   C38       1.0  0.94270  0.36090  0.66230  1.0000 -0.1486930381
C   C39       1.0  0.63910  0.94270  0.91230  1.0000 -0.1486930381
C   C40       1.0  0.36090  0.05730  0.41230  1.0000 -0.1486930381
C   C41       1.0  0.96530  0.64360  0.17860  1.0000 -0.0817316556
C   C42       1.0  0.03470  0.35640  0.67860  1.0000 -0.0817316556
C   C43       1.0  0.64360  0.03470  0.92860  1.0000 -0.0817316556
C   C44       1.0  0.35640  0.96530  0.42860  1.0000 -0.0817316556
C   C45       1.0  0.90890  0.56940  0.16220  1.0000 -0.019063557
C   C46       1.0  0.09110  0.43060  0.66220  1.0000 -0.019063557
C   C47       1.0  0.56940  0.09110  0.91220  1.0000 -0.019063557
C   C48       1.0  0.43060  0.90890  0.41220  1.0000 -0.019063557
C   C49       1.0  0.94460  0.48880  0.12840  1.0000 -0.0817316556
C   C50       1.0  0.05540  0.51120  0.62840  1.0000 -0.0817316556
C   C51       1.0  0.48880  0.05540  0.87840  1.0000 -0.0817316556
C   C52       1.0  0.51120  0.94460  0.37840  1.0000 -0.0817316556
C   C53       1.0  0.03930  0.48520  0.10920  1.0000 -0.1486930381
C   C54       1.0  0.96070  0.51480  0.60920  1.0000 -0.1486930381
C   C55       1.0  0.48520  0.96070  0.85920  1.0000 -0.1486930381
C   C56       1.0  0.51480  0.03930  0.35920  1.0000 -0.1486930381
C   C57       1.0  0.81090  0.57610  0.18790  1.0000 0.5540268204
C   C58       1.0  0.18910  0.42390  0.68790  1.0000 0.5540268204
C   C59       1.0  0.57610  0.18910  0.93790  1.0000 0.5551457983
C   C60       1.0  0.42390  0.81090  0.43790  1.0000 0.5540268204
O   O1        1.0  0.36230  0.61420  0.33840  1.0000 -0.6473188597
O   O2        1.0  0.63770  0.38580  0.83840  1.0000 -0.6473188597
O   O3        1.0  0.61420  0.63770  0.08840  1.0000 -0.6473188597
O   O4        1.0  0.38580  0.36230  0.58840  1.0000 -0.6473188597
O   O5        1.0  0.48570  0.60830  0.25140  1.0000 -0.7068134564
O   O6        1.0  0.51430  0.39170  0.75140  1.0000 -0.7068134564
O   O7        1.0  0.60830  0.51430  0.00140  1.0000 -0.7068134564
O   O8        1.0  0.39170  0.48570  0.50140  1.0000 -0.7068134564
O   O9        1.0  0.32730  0.45910  0.87600  1.0000 -0.6473188597
O   O10       1.0  0.67270  0.54090  0.37600  1.0000 -0.644636454
O   O11       1.0  0.45910  0.67270  0.62600  1.0000 -0.6473188597
O   O12       1.0  0.54090  0.32730  0.12600  1.0000 -0.644636454
O   O13       1.0  0.44820  0.42140  0.95990  1.0000 -0.7210070509
O   O14       1.0  0.55180  0.57860  0.45990  1.0000 -0.7210070509
O   O15       1.0  0.42140  0.55180  0.70990  1.0000 -0.7210070509
O   O16       1.0  0.57860  0.44820  0.20990  1.0000 -0.7210070509
O   O17       1.0  0.77970  0.64920  0.21830  1.0000 -0.6473188597
O   O18       1.0  0.22030  0.35080  0.71830  1.0000 -0.6473188597
O   O19       1.0  0.64920  0.22030  0.96830  1.0000 -0.6473188597
O   O20       1.0  0.35080  0.77970  0.46830  1.0000 -0.6473188597
O   O21       1.0  0.76070  0.50830  0.17410  1.0000 -0.6167138237
O   O22       1.0  0.23930  0.49170  0.67410  1.0000 -0.6167138237
O   O23       1.0  0.50830  0.23930  0.92410  1.0000 -0.6167138237
O   O24       1.0  0.49170  0.76070  0.42410  1.0000 -0.6167138237
