# DDEC6 charges by PACMAN v1.1 (https://github.com/mtap-research/PACMAN-charge/)
data_2011[V][ths]3[ASR]1
_chemical_formula_sum              "V12 P16 H16 C8 O60 F8"
_cell_length_a       11.0644
_cell_length_b       13.989
_cell_length_c       18.3866
_cell_angle_alpha    90
_cell_angle_beta     103.381
_cell_angle_gamma    90

_symmetry_space_group_name_H-M    "P 1"
_symmetry_Int_Tables_number       1

loop_
  _symmetry_equiv_pos_as_xyz
  'x, y, z'

loop_
  _atom_site_type_symbol
  _atom_site_label
  _atom_site_symmetry_multiplicity
  _atom_site_fract_x
  _atom_site_fract_y
  _atom_site_fract_z
  _atom_site_occupancy
  _atom_site_charge
V   V1        1.0  0.50000  0.28586  0.50000  1.0000 1.9149782137
V   V2        1.0  0.00000  0.78586  0.50000  1.0000 1.9216025548
V   V3        1.0  0.50000  0.19467  0.00000  1.0000 1.9216025548
V   V4        1.0  0.00000  0.69467  0.00000  1.0000 1.9216025548
V   V5        1.0  0.98153  0.22112  0.27256  1.0000 1.8243523316
V   V6        1.0  0.01847  0.22112  0.72744  1.0000 1.8504992203
V   V7        1.0  0.48153  0.72112  0.27256  1.0000 1.8269283847
V   V8        1.0  0.51847  0.72112  0.72744  1.0000 1.8269283847
V   V9        1.0  0.22163  0.46623  0.22932  1.0000 1.8504992203
V   V10       1.0  0.77837  0.46623  0.77068  1.0000 1.8504992203
V   V11       1.0  0.72163  0.96623  0.22932  1.0000 1.8504992203
V   V12       1.0  0.27837  0.96623  0.77068  1.0000 1.8504992203
P   P1        1.0  0.25043  0.30971  0.35944  1.0000 1.3662000374
P   P2        1.0  0.74957  0.30971  0.64056  1.0000 1.3815495448
P   P3        1.0  0.75043  0.80971  0.35944  1.0000 1.3815495448
P   P4        1.0  0.24957  0.80971  0.64056  1.0000 1.3815495448
P   P5        1.0  0.74049  0.16657  0.14266  1.0000 1.3628051356
P   P6        1.0  0.25951  0.16657  0.85734  1.0000 1.3662000374
P   P7        1.0  0.24049  0.66657  0.14266  1.0000 1.3662000374
P   P8        1.0  0.75951  0.66657  0.85734  1.0000 1.3628051356
P   P9        1.0  0.03576  0.43806  0.33815  1.0000 1.4057329373
P   P10       1.0  0.96424  0.43806  0.66185  1.0000 1.400362712
P   P11       1.0  0.53576  0.93806  0.33815  1.0000 1.400362712
P   P12       1.0  0.46424  0.93806  0.66185  1.0000 1.400362712
P   P13       1.0  0.95572  0.03954  0.16354  1.0000 1.400362712
P   P14       1.0  0.04428  0.03954  0.83646  1.0000 1.400362712
P   P15       1.0  0.45572  0.53954  0.16354  1.0000 1.400362712
P   P16       1.0  0.54428  0.53954  0.83646  1.0000 1.400362712
H   H1        1.0  0.21815  0.43909  0.44028  1.0000 0.2291703652
H   H2        1.0  0.78185  0.43909  0.55972  1.0000 0.2291703652
H   H3        1.0  0.71815  0.93909  0.44028  1.0000 0.2291703652
H   H4        1.0  0.28185  0.93909  0.55972  1.0000 0.2291703652
H   H5        1.0  0.11783  0.33799  0.44499  1.0000 0.222787057
H   H6        1.0  0.88217  0.33799  0.55501  1.0000 0.222787057
H   H7        1.0  0.61783  0.83799  0.44499  1.0000 0.222787057
H   H8        1.0  0.38217  0.83799  0.55501  1.0000 0.222787057
H   H9        1.0  0.88166  0.14853  0.06044  1.0000 0.222787057
H   H10       1.0  0.11834  0.14853  0.93956  1.0000 0.2291703652
H   H11       1.0  0.38166  0.64853  0.06044  1.0000 0.2291703652
H   H12       1.0  0.61834  0.64853  0.93956  1.0000 0.2291703652
H   H13       1.0  0.78094  0.04564  0.05761  1.0000 0.2291703652
H   H14       1.0  0.21906  0.04564  0.94239  1.0000 0.2291703652
H   H15       1.0  0.28094  0.54564  0.05761  1.0000 0.2291703652
H   H16       1.0  0.71906  0.54564  0.94239  1.0000 0.2291703652
C   C1        1.0  0.15995  0.38242  0.40768  1.0000 -0.6902748866
C   C2        1.0  0.84005  0.38242  0.59232  1.0000 -0.6902748866
C   C3        1.0  0.65995  0.88242  0.40768  1.0000 -0.6902748866
C   C4        1.0  0.34005  0.88242  0.59232  1.0000 -0.6902748866
C   C5        1.0  0.83700  0.10032  0.09403  1.0000 -0.6839286907
C   C6        1.0  0.16300  0.10032  0.90597  1.0000 -0.6902748866
C   C7        1.0  0.33700  0.60032  0.09403  1.0000 -0.6839286907
C   C8        1.0  0.66300  0.60032  0.90597  1.0000 -0.6902748866
O   O1        1.0  0.50000  0.39883  0.50000  1.0000 -0.6449966355
O   O2        1.0  0.00000  0.89883  0.50000  1.0000 -0.6472495123
O   O3        1.0  0.35733  0.26084  0.41404  1.0000 -0.7095410185
O   O4        1.0  0.64267  0.26084  0.58596  1.0000 -0.7095410185
O   O5        1.0  0.85733  0.76084  0.41404  1.0000 -0.7095410185
O   O6        1.0  0.14267  0.76084  0.58596  1.0000 -0.7095410185
O   O7        1.0  0.29795  0.38054  0.30716  1.0000 -0.7037680669
O   O8        1.0  0.70205  0.38054  0.69284  1.0000 -0.7095410185
O   O9        1.0  0.79795  0.88054  0.30716  1.0000 -0.7037680669
O   O10       1.0  0.20205  0.88054  0.69284  1.0000 -0.7095410185
O   O11       1.0  0.10587  0.49379  0.28648  1.0000 -0.6737183108
O   O12       1.0  0.89413  0.49379  0.71352  1.0000 -0.6737183108
O   O13       1.0  0.60587  0.99379  0.28648  1.0000 -0.6737183108
O   O14       1.0  0.39413  0.99379  0.71352  1.0000 -0.6737183108
O   O15       1.0  0.95437  0.50001  0.37297  1.0000 -0.5398793368
O   O16       1.0  0.04563  0.50001  0.62703  1.0000 -0.5398793368
O   O17       1.0  0.45437  0.00001  0.37297  1.0000 -0.5398793368
O   O18       1.0  0.54563  0.00001  0.62703  1.0000 -0.5398793368
O   O19       1.0  0.96501  0.35209  0.29214  1.0000 -0.7202537154
O   O20       1.0  0.03499  0.35209  0.70786  1.0000 -0.7202537154
O   O21       1.0  0.46501  0.85209  0.29214  1.0000 -0.7255665584
O   O22       1.0  0.53499  0.85209  0.70786  1.0000 -0.7202537154
O   O23       1.0  0.15766  0.23714  0.31274  1.0000 -0.7095410185
O   O24       1.0  0.84234  0.23714  0.68726  1.0000 -0.7095410185
O   O25       1.0  0.65766  0.73714  0.31274  1.0000 -0.7095410185
O   O26       1.0  0.34234  0.73714  0.68726  1.0000 -0.7095410185
O   O27       1.0  0.02407  0.12253  0.21430  1.0000 -0.6902748866
O   O28       1.0  0.97593  0.12253  0.78570  1.0000 -0.6902748866
O   O29       1.0  0.52407  0.62253  0.21430  1.0000 -0.6902748866
O   O30       1.0  0.47593  0.62253  0.78570  1.0000 -0.6902748866
O   O31       1.0  0.83055  0.23492  0.19582  1.0000 -0.6902748866
O   O32       1.0  0.16945  0.23492  0.80418  1.0000 -0.6902748866
O   O33       1.0  0.33055  0.73492  0.19582  1.0000 -0.6902748866
O   O34       1.0  0.66945  0.73492  0.80418  1.0000 -0.6902748866
O   O35       1.0  0.04019  0.98096  0.12852  1.0000 -0.5398793368
O   O36       1.0  0.95981  0.98096  0.87148  1.0000 -0.5398793368
O   O37       1.0  0.54019  0.48096  0.12852  1.0000 -0.5398793368
O   O38       1.0  0.45981  0.48096  0.87148  1.0000 -0.5398793368
O   O39       1.0  0.88171  0.98099  0.21141  1.0000 -0.7095410185
O   O40       1.0  0.11829  0.98099  0.78859  1.0000 -0.7095410185
O   O41       1.0  0.38171  0.48099  0.21141  1.0000 -0.7095410185
O   O42       1.0  0.61829  0.48099  0.78859  1.0000 -0.7095410185
O   O43       1.0  0.68599  0.09123  0.18811  1.0000 -0.7202537154
O   O44       1.0  0.31401  0.09123  0.81189  1.0000 -0.7202537154
O   O45       1.0  0.18599  0.59123  0.18811  1.0000 -0.7202537154
O   O46       1.0  0.81401  0.59123  0.81189  1.0000 -0.7202537154
O   O47       1.0  0.63851  0.22010  0.08769  1.0000 -0.7095410185
O   O48       1.0  0.36149  0.22010  0.91231  1.0000 -0.7095410185
O   O49       1.0  0.13851  0.72010  0.08769  1.0000 -0.7095410185
O   O50       1.0  0.86149  0.72010  0.91231  1.0000 -0.7095410185
O   O51       1.0  0.50000  0.08141  0.00000  1.0000 -0.6305881365
O   O52       1.0  0.00000  0.58141  0.00000  1.0000 -0.6305881365
O   O53       1.0  0.14990  0.39735  0.16544  1.0000 -0.4921413499
O   O54       1.0  0.85010  0.39735  0.83456  1.0000 -0.4921413499
O   O55       1.0  0.64990  0.89735  0.16544  1.0000 -0.4921413499
O   O56       1.0  0.35010  0.89735  0.83456  1.0000 -0.4921413499
O   O57       1.0  0.93644  0.16750  0.33730  1.0000 -0.4835378452
O   O58       1.0  0.06356  0.16750  0.66270  1.0000 -0.4921413499
O   O59       1.0  0.43644  0.66750  0.33730  1.0000 -0.4921413499
O   O60       1.0  0.56356  0.66750  0.66270  1.0000 -0.4921413499
F   F1        1.0  0.59675  0.24422  0.44294  1.0000 -0.4639561995
F   F2        1.0  0.40325  0.24422  0.55706  1.0000 -0.4691849488
F   F3        1.0  0.09675  0.74422  0.44294  1.0000 -0.4691849488
F   F4        1.0  0.90325  0.74422  0.55706  1.0000 -0.4691849488
F   F5        1.0  0.39920  0.23609  0.05444  1.0000 -0.4691849488
F   F6        1.0  0.60080  0.23609  0.94556  1.0000 -0.4691849488
F   F7        1.0  0.89920  0.73609  0.05444  1.0000 -0.4691849488
F   F8        1.0  0.10080  0.73609  0.94556  1.0000 -0.4691849488
