# DDEC6 charges by PACMAN v1.1 (https://github.com/mtap-research/PACMAN-charge/)
data_2011[Tm][bnn]3[ASR]1
_chemical_formula_sum              "Tm2 H14 C30 O14"
_cell_length_a       9.356
_cell_length_b       9.796
_cell_length_c       11.415
_cell_angle_alpha    94.799
_cell_angle_beta     99.614
_cell_angle_gamma    111.738

_symmetry_space_group_name_H-M    "P 1"
_symmetry_Int_Tables_number       1

loop_
  _symmetry_equiv_pos_as_xyz
  'x, y, z'

loop_
  _atom_site_type_symbol
  _atom_site_label
  _atom_site_symmetry_multiplicity
  _atom_site_fract_x
  _atom_site_fract_y
  _atom_site_fract_z
  _atom_site_occupancy
  _atom_site_charge
Tm  Tm1       1.0  0.27485  0.54484  0.98976  1.0000 2.0663981659
Tm  Tm2       1.0  0.72515  0.45516  0.01024  1.0000 2.0663981659
H   H1        1.0  0.93510  0.39500  0.57930  1.0000 0.119598165
H   H2        1.0  0.06490  0.60500  0.42070  1.0000 0.119598165
H   H3        1.0  0.85180  0.27750  0.38120  1.0000 0.1489735393
H   H4        1.0  0.14820  0.72250  0.61880  1.0000 0.1489735393
H   H5        1.0  0.18000  0.10400  0.43420  1.0000 0.1307093424
H   H6        1.0  0.82000  0.89600  0.56580  1.0000 0.1307093424
H   H7        1.0  0.27140  0.22890  0.62550  1.0000 0.119598165
H   H8        1.0  0.72860  0.77110  0.37450  1.0000 0.119598165
H   H9        1.0  0.19930  0.29500  0.22510  1.0000 0.1489735393
H   H10       1.0  0.80070  0.70500  0.77490  1.0000 0.1489735393
H   H11       1.0  0.32400  0.00560  0.03900  1.0000 0.1437322831
H   H12       1.0  0.67600  0.99440  0.96100  1.0000 0.1437322831
H   H13       1.0  0.92480  0.85750  0.16420  1.0000 0.1437322831
H   H14       1.0  0.07520  0.14250  0.83580  1.0000 0.1437322831
C   C1        1.0  0.17350  0.41080  0.74820  1.0000 0.5499926431
C   C2        1.0  0.82650  0.58920  0.25180  1.0000 0.5499926431
C   C3        1.0  0.11610  0.32870  0.62630  1.0000 -0.0605143264
C   C4        1.0  0.88390  0.67130  0.37370  1.0000 -0.0605143264
C   C5        1.0  0.98670  0.33910  0.54990  1.0000 -0.0703655968
C   C6        1.0  0.01330  0.66090  0.45010  1.0000 -0.0703655968
C   C7        1.0  0.93500  0.26710  0.43140  1.0000 -0.2009921747
C   C8        1.0  0.06500  0.73290  0.56860  1.0000 -0.2009921747
C   C9        1.0  0.00760  0.18080  0.38930  1.0000 0.2502127511
C   C10       1.0  0.99240  0.81920  0.61070  1.0000 0.2502127511
C   C11       1.0  0.13310  0.16470  0.46320  1.0000 -0.2181817941
C   C12       1.0  0.86690  0.83530  0.53680  1.0000 -0.2181817941
C   C13       1.0  0.18600  0.23830  0.57750  1.0000 -0.0605143264
C   C14       1.0  0.81400  0.76170  0.42250  1.0000 -0.0605143264
C   C15       1.0  0.05100  0.08070  0.20720  1.0000 0.2337479664
C   C16       1.0  0.94900  0.91930  0.79280  1.0000 0.2337479664
C   C17       1.0  0.18000  0.19820  0.19220  1.0000 -0.2181817941
C   C18       1.0  0.82000  0.80180  0.80780  1.0000 -0.2181817941
C   C19       1.0  0.28180  0.16930  0.12640  1.0000 -0.0029418866
C   C20       1.0  0.71820  0.83070  0.87360  1.0000 -0.0029418866
C   C21       1.0  0.25260  0.02460  0.07860  1.0000 -0.1191135498
C   C22       1.0  0.74740  0.97540  0.92140  1.0000 -0.1191135498
C   C23       1.0  0.11870  0.90880  0.08900  1.0000 -0.0165473267
C   C24       1.0  0.88130  0.09120  0.91100  1.0000 -0.0165473267
C   C25       1.0  0.01490  0.93520  0.15530  1.0000 -0.1939830857
C   C26       1.0  0.98510  0.06480  0.84470  1.0000 -0.1939830857
C   C27       1.0  0.41840  0.29520  0.10200  1.0000 0.6411690933
C   C28       1.0  0.58160  0.70480  0.89800  1.0000 0.6411690933
C   C29       1.0  0.08270  0.75310  0.03270  1.0000 0.6568303926
C   C30       1.0  0.91730  0.24690  0.96730  1.0000 0.6568303926
O   O1        1.0  0.12070  0.50380  0.78480  1.0000 -0.6128215568
O   O2        1.0  0.87930  0.49620  0.21520  1.0000 -0.6128215568
O   O3        1.0  0.27900  0.38710  0.82000  1.0000 -0.6487767475
O   O4        1.0  0.72100  0.61290  0.18000  1.0000 -0.6487767475
O   O5        1.0  0.39830  0.41030  0.07840  1.0000 -0.7163578646
O   O6        1.0  0.60170  0.58970  0.92160  1.0000 -0.7163578646
O   O7        1.0  0.54680  0.28000  0.10340  1.0000 -0.6338418501
O   O8        1.0  0.45320  0.72000  0.89660  1.0000 -0.6338418501
O   O9        1.0  0.19270  0.73210  0.99390  1.0000 -0.6747989433
O   O10       1.0  0.80730  0.26790  0.00610  1.0000 -0.6747989433
O   O11       1.0  0.95050  0.65420  0.02860  1.0000 -0.6875537114
O   O12       1.0  0.04950  0.34580  0.97140  1.0000 -0.6875537114
O   O13       1.0  0.94570  0.10580  0.27150  1.0000 -0.2181817941
O   O14       1.0  0.05430  0.89420  0.72850  1.0000 -0.2181817941
