# DDEC6 charges by PACMAN v1.1 (https://github.com/mtap-research/PACMAN-charge/)
data_2011[V][bpq]3[ASR]5
_chemical_formula_sum              "V4 H16 C32 O20"
_cell_length_a       6.8018
_cell_length_b       13.5344
_cell_length_c       16.4156
_cell_angle_alpha    90
_cell_angle_beta     90
_cell_angle_gamma    90

_symmetry_space_group_name_H-M    "P 1"
_symmetry_Int_Tables_number       1

loop_
  _symmetry_equiv_pos_as_xyz
  'x, y, z'

loop_
  _atom_site_type_symbol
  _atom_site_label
  _atom_site_symmetry_multiplicity
  _atom_site_fract_x
  _atom_site_fract_y
  _atom_site_fract_z
  _atom_site_occupancy
  _atom_site_charge
V   V1        1.0  0.06289  0.23560  0.99928  1.0000 1.8155171912
V   V2        1.0  0.43711  0.76440  0.49928  1.0000 1.8155171912
V   V3        1.0  0.93711  0.73560  0.50072  1.0000 1.8155171912
V   V4        1.0  0.56289  0.26440  0.00072  1.0000 1.8155171912
H   H1        1.0  0.46620  0.05540  0.18860  1.0000 0.1355671625
H   H2        1.0  0.03380  0.94460  0.68860  1.0000 0.1355671625
H   H3        1.0  0.53380  0.55540  0.31140  1.0000 0.1355671625
H   H4        1.0  0.96620  0.44460  0.81140  1.0000 0.1355671625
H   H5        1.0  0.44530  0.95170  0.29630  1.0000 0.1304932674
H   H6        1.0  0.05470  0.04830  0.79630  1.0000 0.1304932674
H   H7        1.0  0.55470  0.45170  0.20370  1.0000 0.1304932674
H   H8        1.0  0.94530  0.54830  0.70370  1.0000 0.1304932674
H   H9        1.0  0.03090  0.91510  0.29140  1.0000 0.1304932674
H   H10       1.0  0.46910  0.08490  0.79140  1.0000 0.1304932674
H   H11       1.0  0.96910  0.41510  0.20860  1.0000 0.1304932674
H   H12       1.0  0.53090  0.58490  0.70860  1.0000 0.1304932674
H   H13       1.0  0.05000  0.02030  0.18240  1.0000 0.1304932674
H   H14       1.0  0.45000  0.97970  0.68240  1.0000 0.1304932674
H   H15       1.0  0.95000  0.52030  0.31760  1.0000 0.1304932674
H   H16       1.0  0.55000  0.47970  0.81760  1.0000 0.1304932674
C   C1        1.0  0.77410  0.12110  0.10597  1.0000 0.6195681135
C   C2        1.0  0.72590  0.87890  0.60597  1.0000 0.6195681135
C   C3        1.0  0.22590  0.62110  0.39403  1.0000 0.6195681135
C   C4        1.0  0.27410  0.37890  0.89403  1.0000 0.6195681135
C   C5        1.0  0.76140  0.05090  0.17416  1.0000 -0.0368432139
C   C6        1.0  0.73860  0.94910  0.67416  1.0000 -0.0368432139
C   C7        1.0  0.23860  0.55090  0.32584  1.0000 -0.0368432139
C   C8        1.0  0.26140  0.44910  0.82584  1.0000 -0.0368432139
C   C9        1.0  0.58040  0.02760  0.20970  1.0000 -0.0928283247
C   C10       1.0  0.91960  0.97240  0.70970  1.0000 -0.0928283247
C   C11       1.0  0.41960  0.52760  0.29030  1.0000 -0.0928283247
C   C12       1.0  0.08040  0.47240  0.79030  1.0000 -0.0928283247
C   C13       1.0  0.56770  0.96590  0.27390  1.0000 -0.1002933156
C   C14       1.0  0.93230  0.03410  0.77390  1.0000 -0.1002933156
C   C15       1.0  0.43230  0.46590  0.22610  1.0000 -0.1002933156
C   C16       1.0  0.06770  0.53410  0.72610  1.0000 -0.1002933156
C   C17       1.0  0.73780  0.92280  0.30736  1.0000 -0.0348715369
C   C18       1.0  0.76220  0.07720  0.80736  1.0000 -0.0348715369
C   C19       1.0  0.26220  0.42280  0.19264  1.0000 -0.0348715369
C   C20       1.0  0.23780  0.57720  0.69264  1.0000 -0.0348715369
C   C21       1.0  0.91690  0.94390  0.27110  1.0000 -0.0928283247
C   C22       1.0  0.58310  0.05610  0.77110  1.0000 -0.0928283247
C   C23       1.0  0.08310  0.44390  0.22890  1.0000 -0.0928283247
C   C24       1.0  0.41690  0.55610  0.72890  1.0000 -0.0928283247
C   C25       1.0  0.92830  0.00700  0.20576  1.0000 -0.1002933156
C   C26       1.0  0.57170  0.99300  0.70576  1.0000 -0.1002933156
C   C27       1.0  0.07170  0.50700  0.29424  1.0000 -0.1002933156
C   C28       1.0  0.42830  0.49300  0.79424  1.0000 -0.1002933156
C   C29       1.0  0.72550  0.85840  0.37953  1.0000 0.6195681135
C   C30       1.0  0.77450  0.14160  0.87953  1.0000 0.6195681135
C   C31       1.0  0.27450  0.35840  0.12047  1.0000 0.6195681135
C   C32       1.0  0.22550  0.64160  0.62047  1.0000 0.6195681135
O   O1        1.0  0.28111  0.18868  0.99578  1.0000 -0.7528865297
O   O2        1.0  0.21889  0.81132  0.49578  1.0000 -0.7528865297
O   O3        1.0  0.71889  0.68868  0.50422  1.0000 -0.7528865297
O   O4        1.0  0.78111  0.31132  0.00422  1.0000 -0.7528865297
O   O5        1.0  0.94300  0.14257  0.07867  1.0000 -0.5999518444
O   O6        1.0  0.55700  0.85743  0.57867  1.0000 -0.5999518444
O   O7        1.0  0.05700  0.64257  0.42133  1.0000 -0.5999518444
O   O8        1.0  0.44300  0.35743  0.92133  1.0000 -0.5999518444
O   O9        1.0  0.55850  0.83983  0.40836  1.0000 -0.5999518444
O   O10       1.0  0.94150  0.16017  0.90836  1.0000 -0.5999518444
O   O11       1.0  0.44150  0.33983  0.09164  1.0000 -0.5999518444
O   O12       1.0  0.05850  0.66017  0.59164  1.0000 -0.5999518444
O   O13       1.0  0.61400  0.15673  0.07945  1.0000 -0.5838214119
O   O14       1.0  0.88600  0.84327  0.57945  1.0000 -0.5838214119
O   O15       1.0  0.38600  0.65673  0.42055  1.0000 -0.5838214119
O   O16       1.0  0.11400  0.34327  0.92055  1.0000 -0.5838214119
O   O17       1.0  0.88590  0.82466  0.40766  1.0000 -0.5871307213
O   O18       1.0  0.61410  0.17534  0.90766  1.0000 -0.5871307213
O   O19       1.0  0.11410  0.32466  0.09234  1.0000 -0.5871307213
O   O20       1.0  0.38590  0.67534  0.59234  1.0000 -0.5871307213
