# DDEC6 charges by PACMAN v1.1 (https://github.com/mtap-research/PACMAN-charge/)
data_2011[In][pth]3[ASR]1
_chemical_formula_sum              "In3 H6 C30 O24"
_cell_length_a       9.038
_cell_length_b       9.038
_cell_length_c       18.975
_cell_angle_alpha    90
_cell_angle_beta     90
_cell_angle_gamma    120

_symmetry_space_group_name_H-M    "P 1"
_symmetry_Int_Tables_number       1

loop_
  _symmetry_equiv_pos_as_xyz
  'x, y, z'

loop_
  _atom_site_type_symbol
  _atom_site_label
  _atom_site_symmetry_multiplicity
  _atom_site_fract_x
  _atom_site_fract_y
  _atom_site_fract_z
  _atom_site_occupancy
  _atom_site_charge
In  In1       1.0  0.00000  0.00000  0.16667  1.0000 1.3775473598
In  In2       1.0  0.00000  0.00000  0.83333  1.0000 1.3775473598
In  In3       1.0  0.00000  0.00000  0.50000  1.0000 1.3775473598
H   H1        1.0  0.50000  0.00000  0.12150  1.0000 0.1581789467
H   H2        1.0  0.00000  0.50000  0.78817  1.0000 0.1581789467
H   H3        1.0  0.50000  0.50000  0.45483  1.0000 0.1581789467
H   H4        1.0  0.00000  0.50000  0.54517  1.0000 0.1581789467
H   H5        1.0  0.50000  0.00000  0.87850  1.0000 0.1581789467
H   H6        1.0  0.50000  0.50000  0.21183  1.0000 0.1581789467
C   C1        1.0  0.76920  0.99840  0.07780  1.0000 0.5635174824
C   C2        1.0  0.00160  0.77080  0.74447  1.0000 0.5635174824
C   C3        1.0  0.22920  0.23080  0.41113  1.0000 0.5635174824
C   C4        1.0  0.23080  0.00160  0.07780  1.0000 0.5635174824
C   C5        1.0  0.99840  0.22920  0.74447  1.0000 0.5635174824
C   C6        1.0  0.77080  0.76920  0.41113  1.0000 0.5635174824
C   C7        1.0  0.99840  0.76920  0.58887  1.0000 0.5635174824
C   C8        1.0  0.77080  0.00160  0.92220  1.0000 0.5635174824
C   C9        1.0  0.23080  0.22920  0.25553  1.0000 0.5635174824
C   C10       1.0  0.00160  0.23080  0.58887  1.0000 0.5635174824
C   C11       1.0  0.22920  0.99840  0.92220  1.0000 0.5635174824
C   C12       1.0  0.76920  0.77080  0.25553  1.0000 0.5635174824
C   C13       1.0  0.50000  0.00000  0.07150  1.0000 -0.078501854
C   C14       1.0  0.00000  0.50000  0.73817  1.0000 -0.078501854
C   C15       1.0  0.50000  0.50000  0.40483  1.0000 -0.078501854
C   C16       1.0  0.00000  0.50000  0.59517  1.0000 -0.078501854
C   C17       1.0  0.50000  0.00000  0.92850  1.0000 -0.078501854
C   C18       1.0  0.50000  0.50000  0.26183  1.0000 -0.078501854
C   C19       1.0  0.63110  0.99690  0.03810  1.0000 -0.0058432755
C   C20       1.0  0.00310  0.63420  0.70477  1.0000 -0.0058432755
C   C21       1.0  0.36580  0.36890  0.37143  1.0000 -0.0058432755
C   C22       1.0  0.36890  0.00310  0.03810  1.0000 -0.0058432755
C   C23       1.0  0.99690  0.36580  0.70477  1.0000 -0.0046174948
C   C24       1.0  0.63420  0.63110  0.37143  1.0000 -0.0058432755
C   C25       1.0  0.99690  0.63110  0.62857  1.0000 -0.0046174948
C   C26       1.0  0.63420  0.00310  0.96190  1.0000 -0.0058432755
C   C27       1.0  0.36890  0.36580  0.29523  1.0000 -0.0058432755
C   C28       1.0  0.00310  0.36890  0.62857  1.0000 -0.0058432755
C   C29       1.0  0.36580  0.99690  0.96190  1.0000 -0.0058432755
C   C30       1.0  0.63110  0.63420  0.29523  1.0000 -0.0058432755
O   O1        1.0  0.85350  0.11200  0.12520  1.0000 -0.4805657006
O   O2        1.0  0.88800  0.74150  0.79187  1.0000 -0.4805657006
O   O3        1.0  0.25850  0.14650  0.45853  1.0000 -0.4805657006
O   O4        1.0  0.14650  0.88800  0.12520  1.0000 -0.4805657006
O   O5        1.0  0.11200  0.25850  0.79187  1.0000 -0.4805657006
O   O6        1.0  0.74150  0.85350  0.45853  1.0000 -0.4805657006
O   O7        1.0  0.11200  0.85350  0.54147  1.0000 -0.4805657006
O   O8        1.0  0.74150  0.88800  0.87480  1.0000 -0.4805657006
O   O9        1.0  0.14650  0.25850  0.20813  1.0000 -0.4805657006
O   O10       1.0  0.88800  0.14650  0.54147  1.0000 -0.4805657006
O   O11       1.0  0.25850  0.11200  0.87480  1.0000 -0.4805657006
O   O12       1.0  0.85350  0.74150  0.20813  1.0000 -0.4805657006
O   O13       1.0  0.81370  0.88770  0.06950  1.0000 -0.4615381894
O   O14       1.0  0.11230  0.92600  0.73617  1.0000 -0.4615381894
O   O15       1.0  0.07400  0.18630  0.40283  1.0000 -0.4615381894
O   O16       1.0  0.18630  0.11230  0.06950  1.0000 -0.4615381894
O   O17       1.0  0.88770  0.07400  0.73617  1.0000 -0.4615381894
O   O18       1.0  0.92600  0.81370  0.40283  1.0000 -0.4615381894
O   O19       1.0  0.88770  0.81370  0.59717  1.0000 -0.4615381894
O   O20       1.0  0.92600  0.11230  0.93050  1.0000 -0.4615381894
O   O21       1.0  0.18630  0.07400  0.26383  1.0000 -0.4615381894
O   O22       1.0  0.11230  0.18630  0.59717  1.0000 -0.4615381894
O   O23       1.0  0.07400  0.88770  0.93050  1.0000 -0.4615381894
O   O24       1.0  0.81370  0.92600  0.26383  1.0000 -0.4615381894
