# DDEC6 charges by PACMAN v1.1 (https://github.com/mtap-research/PACMAN-charge/)
data_2011[Mn][utp]3[ASR]1
_chemical_formula_sum              "Mn4 H48 C80 S8 N16 O24"
_cell_length_a       9.316
_cell_length_b       11.917
_cell_length_c       25.515
_cell_angle_alpha    90
_cell_angle_beta     94.663
_cell_angle_gamma    90

_symmetry_space_group_name_H-M    "P 1"
_symmetry_Int_Tables_number       1

loop_
  _symmetry_equiv_pos_as_xyz
  'x, y, z'

loop_
  _atom_site_type_symbol
  _atom_site_label
  _atom_site_symmetry_multiplicity
  _atom_site_fract_x
  _atom_site_fract_y
  _atom_site_fract_z
  _atom_site_occupancy
  _atom_site_charge
Mn  Mn1       1.0  0.55567  0.91943  0.97874  1.0000 0.9144174225
Mn  Mn2       1.0  0.55567  0.08057  0.47874  1.0000 0.9144174225
Mn  Mn3       1.0  0.07356  0.60055  0.29405  1.0000 0.9233244426
Mn  Mn4       1.0  0.07356  0.39945  0.79405  1.0000 0.9233244426
H   H1        1.0  0.38110  0.31220  0.00790  1.0000 0.1289506122
H   H2        1.0  0.38110  0.68780  0.50790  1.0000 0.1289506122
H   H3        1.0  0.52240  0.45270  0.05050  1.0000 0.1289506122
H   H4        1.0  0.52240  0.54730  0.55050  1.0000 0.1289506122
H   H5        1.0  0.76040  0.48130  0.02620  1.0000 0.1139851279
H   H6        1.0  0.76040  0.51870  0.52620  1.0000 0.1139851279
H   H7        1.0  0.70630  0.23670  0.91660  1.0000 0.1203863596
H   H8        1.0  0.70630  0.76330  0.41660  1.0000 0.1203863596
H   H9        1.0  0.91440  0.25420  0.04770  1.0000 0.1203863596
H   H10       1.0  0.91440  0.74580  0.54770  1.0000 0.1203863596
H   H11       1.0  0.94570  0.23560  0.13910  1.0000 0.1289506122
H   H12       1.0  0.94570  0.76440  0.63910  1.0000 0.1289506122
H   H13       1.0  0.05850  0.37020  0.19130  1.0000 0.1289506122
H   H14       1.0  0.05850  0.62980  0.69130  1.0000 0.1289506122
H   H15       1.0  0.15540  0.54020  0.05970  1.0000 0.1289506122
H   H16       1.0  0.15540  0.45980  0.55970  1.0000 0.1289506122
H   H17       1.0  0.36810  0.56200  0.95700  1.0000 0.1289506122
H   H18       1.0  0.36810  0.43800  0.45700  1.0000 0.1289506122
H   H19       1.0  0.57700  0.62070  0.91800  1.0000 0.1203863596
H   H20       1.0  0.57700  0.37930  0.41800  1.0000 0.1203863596
H   H21       1.0  0.57950  0.59300  0.82310  1.0000 0.1388256654
H   H22       1.0  0.57950  0.40700  0.32310  1.0000 0.1388256654
H   H23       1.0  0.39180  0.50330  0.77800  1.0000 0.1203863596
H   H24       1.0  0.39180  0.49670  0.27800  1.0000 0.1203863596
H   H25       1.0  0.87930  0.97480  0.50830  1.0000 0.1203863596
H   H26       1.0  0.87930  0.02520  0.00830  1.0000 0.1203863596
H   H27       1.0  0.08260  0.92140  0.46880  1.0000 0.1388256654
H   H28       1.0  0.08260  0.07860  0.96880  1.0000 0.1388256654
H   H29       1.0  0.08270  0.92520  0.37690  1.0000 0.1289506122
H   H30       1.0  0.08270  0.07480  0.87690  1.0000 0.1289506122
H   H31       1.0  0.88230  0.00610  0.32680  1.0000 0.1289506122
H   H32       1.0  0.88230  0.99390  0.82680  1.0000 0.1289506122
H   H33       1.0  0.23940  0.00420  0.24070  1.0000 0.1203863596
H   H34       1.0  0.23940  0.99580  0.74070  1.0000 0.1203863596
H   H35       1.0  0.00180  0.02180  0.20400  1.0000 0.1388256654
H   H36       1.0  0.00180  0.97820  0.70400  1.0000 0.1388256654
H   H37       1.0  0.85640  0.16330  0.23020  1.0000 0.1289506122
H   H38       1.0  0.85640  0.83670  0.73020  1.0000 0.1289506122
H   H39       1.0  0.17030  0.27660  0.33333  1.0000 0.1203863596
H   H40       1.0  0.17030  0.72340  0.83333  1.0000 0.1203863596
H   H41       1.0  0.63260  0.99560  0.21450  1.0000 0.1388256654
H   H42       1.0  0.63260  0.00440  0.71450  1.0000 0.1388256654
H   H43       1.0  0.51890  0.17790  0.08190  1.0000 0.1289506122
H   H44       1.0  0.51890  0.82210  0.58190  1.0000 0.1289506122
H   H45       1.0  0.39930  0.30560  0.13330  1.0000 0.1203863596
H   H46       1.0  0.39930  0.69440  0.63330  1.0000 0.1203863596
H   H47       1.0  0.37700  0.27760  0.22200  1.0000 0.1203863596
H   H48       1.0  0.37700  0.72240  0.72200  1.0000 0.1203863596
C   C1        1.0  0.52520  0.26590  0.95600  1.0000 -0.0800165896
C   C2        1.0  0.52520  0.73410  0.45600  1.0000 -0.0800165896
C   C3        1.0  0.47470  0.32700  0.99740  1.0000 -0.0912333548
C   C4        1.0  0.47470  0.67300  0.49740  1.0000 -0.0912333548
C   C5        1.0  0.55880  0.40920  0.02340  1.0000 -0.0800165896
C   C6        1.0  0.55880  0.59080  0.52340  1.0000 -0.0800165896
C   C7        1.0  0.70100  0.42650  0.00830  1.0000 -0.1303475085
C   C8        1.0  0.70100  0.57350  0.50830  1.0000 -0.1303475085
C   C9        1.0  0.75410  0.36600  0.96850  1.0000 0.0453600578
C   C10       1.0  0.75410  0.63400  0.46850  1.0000 0.0453600578
C   C11       1.0  0.66830  0.28210  0.94270  1.0000 -0.119344925
C   C12       1.0  0.66830  0.71790  0.44270  1.0000 -0.119344925
C   C13       1.0  0.89770  0.38430  0.95190  1.0000 0.0923492155
C   C14       1.0  0.89770  0.61570  0.45190  1.0000 0.0923492155
C   C15       1.0  0.02190  0.41320  0.98650  1.0000 0.1646496124
C   C16       1.0  0.02190  0.58680  0.48650  1.0000 0.1646496124
C   C17       1.0  0.03030  0.40040  0.04410  1.0000 0.0351745329
C   C18       1.0  0.03030  0.59960  0.54410  1.0000 0.0351745329
C   C19       1.0  0.96750  0.30890  0.06820  1.0000 -0.1303475085
C   C20       1.0  0.96750  0.69110  0.56820  1.0000 -0.1303475085
C   C21       1.0  0.98440  0.29960  0.12310  1.0000 -0.0704003742
C   C22       1.0  0.98440  0.70040  0.62310  1.0000 -0.0704003742
C   C23       1.0  0.05330  0.37740  0.15410  1.0000 -0.0912333548
C   C24       1.0  0.05330  0.62260  0.65410  1.0000 -0.0912333548
C   C25       1.0  0.11850  0.47100  0.13020  1.0000 -0.0958328888
C   C26       1.0  0.11850  0.52900  0.63020  1.0000 -0.0958328888
C   C27       1.0  0.10880  0.47990  0.07570  1.0000 -0.1087323547
C   C28       1.0  0.10880  0.52010  0.57570  1.0000 -0.1087323547
C   C29       1.0  0.13990  0.45280  0.91350  1.0000 0.3042799897
C   C30       1.0  0.13990  0.54720  0.41350  1.0000 0.3042799897
C   C31       1.0  0.26790  0.49720  0.88920  1.0000 0.1474590666
C   C32       1.0  0.26790  0.50280  0.38920  1.0000 0.1474590666
C   C33       1.0  0.37720  0.55050  0.92060  1.0000 -0.1399582036
C   C34       1.0  0.37720  0.44950  0.42060  1.0000 -0.1399582036
C   C35       1.0  0.49870  0.58620  0.89790  1.0000 -0.0100486919
C   C36       1.0  0.49870  0.41380  0.39790  1.0000 -0.0100486919
C   C37       1.0  0.50020  0.56780  0.84120  1.0000 -0.119344925
C   C38       1.0  0.50020  0.43220  0.34120  1.0000 -0.119344925
C   C39       1.0  0.38800  0.51490  0.81470  1.0000 0.0923492155
C   C40       1.0  0.38800  0.48510  0.31470  1.0000 0.0923492155
C   C41       1.0  0.87920  0.98040  0.47120  1.0000 0.0738084085
C   C42       1.0  0.87920  0.01960  0.97120  1.0000 0.0738084085
C   C43       1.0  0.00040  0.94740  0.44790  1.0000 -0.119344925
C   C44       1.0  0.00040  0.05260  0.94790  1.0000 -0.119344925
C   C45       1.0  0.00210  0.95250  0.39360  1.0000 -0.0100486919
C   C46       1.0  0.00210  0.04750  0.89360  1.0000 -0.0100486919
C   C47       1.0  0.88320  0.99840  0.36380  1.0000 -0.1399582036
C   C48       1.0  0.88320  0.00160  0.86380  1.0000 -0.1399582036
C   C49       1.0  0.76710  0.03200  0.39080  1.0000 0.1474590666
C   C50       1.0  0.76710  0.96800  0.89080  1.0000 0.1474590666
C   C51       1.0  0.63620  0.07700  0.36180  1.0000 0.3063633509
C   C52       1.0  0.63620  0.92300  0.86180  1.0000 0.3063633509
C   C53       1.0  0.50670  0.11370  0.28470  1.0000 0.1751034028
C   C54       1.0  0.50670  0.88630  0.78470  1.0000 0.1751034028
C   C55       1.0  0.38240  0.13120  0.31360  1.0000 0.1026668243
C   C56       1.0  0.38240  0.86880  0.81360  1.0000 0.1026668243
C   C57       1.0  0.23700  0.14390  0.29040  1.0000 0.0453600578
C   C58       1.0  0.23700  0.85610  0.79040  1.0000 0.0453600578
C   C59       1.0  0.18040  0.06350  0.25150  1.0000 -0.119344925
C   C60       1.0  0.18040  0.93650  0.75150  1.0000 -0.119344925
C   C61       1.0  0.03860  0.07380  0.22990  1.0000 -0.0704003742
C   C62       1.0  0.03860  0.92620  0.72990  1.0000 -0.0704003742
C   C63       1.0  0.95240  0.15740  0.24560  1.0000 -0.0912333548
C   C64       1.0  0.95240  0.84260  0.74560  1.0000 -0.0912333548
C   C65       1.0  0.00070  0.23230  0.28270  1.0000 -0.0958328888
C   C66       1.0  0.00070  0.76770  0.78270  1.0000 -0.0958328888
C   C67       1.0  0.13980  0.22540  0.30620  1.0000 -0.119344925
C   C68       1.0  0.13980  0.77460  0.80620  1.0000 -0.119344925
C   C69       1.0  0.50420  0.13010  0.22660  1.0000 0.0576740533
C   C70       1.0  0.50420  0.86990  0.72660  1.0000 0.0576740533
C   C71       1.0  0.58220  0.05700  0.19790  1.0000 -0.119344925
C   C72       1.0  0.58220  0.94300  0.69790  1.0000 -0.119344925
C   C73       1.0  0.58510  0.07630  0.14300  1.0000 -0.0704003742
C   C74       1.0  0.58510  0.92370  0.64300  1.0000 -0.0704003742
C   C75       1.0  0.51670  0.16630  0.11870  1.0000 -0.0912333548
C   C76       1.0  0.51670  0.83370  0.61870  1.0000 -0.0912333548
C   C77       1.0  0.44290  0.24130  0.14980  1.0000 -0.0576851525
C   C78       1.0  0.44290  0.75870  0.64980  1.0000 -0.0576851525
C   C79       1.0  0.43060  0.22710  0.20230  1.0000 -0.119344925
C   C80       1.0  0.43060  0.77290  0.70230  1.0000 -0.119344925
S   S1        1.0  0.41740  0.16210  0.92317  1.0000 1.1727471716
S   S2        1.0  0.41740  0.83790  0.42317  1.0000 1.1727471716
S   S3        1.0  0.22060  0.56710  0.16948  1.0000 1.1823052533
S   S4        1.0  0.22060  0.43290  0.66948  1.0000 1.1823052533
S   S5        1.0  0.68730  0.98380  0.10583  1.0000 1.1727471716
S   S6        1.0  0.68730  0.01620  0.60583  1.0000 1.1727471716
S   S7        1.0  0.88980  0.34410  0.30183  1.0000 1.1606758005
S   S8        1.0  0.88980  0.65590  0.80183  1.0000 1.1606758005
N   N1        1.0  0.91240  0.37400  0.90060  1.0000 -0.1087323547
N   N2        1.0  0.91240  0.62600  0.40060  1.0000 -0.1087323547
N   N3        1.0  0.03810  0.40190  0.88120  1.0000 -0.2013111346
N   N4        1.0  0.03810  0.59810  0.38120  1.0000 -0.2013111346
N   N5        1.0  0.14000  0.45380  0.96650  1.0000 -0.3135714763
N   N6        1.0  0.14000  0.54620  0.46650  1.0000 -0.3135714763
N   N7        1.0  0.27230  0.47790  0.83710  1.0000 -0.2689075105
N   N8        1.0  0.27230  0.52210  0.33710  1.0000 -0.2689075105
N   N9        1.0  0.53070  0.11470  0.39110  1.0000 -0.2381447487
N   N10       1.0  0.53070  0.88530  0.89110  1.0000 -0.2381447487
N   N11       1.0  0.39980  0.13950  0.36510  1.0000 -0.1303475085
N   N12       1.0  0.39980  0.86050  0.86510  1.0000 -0.1303475085
N   N13       1.0  0.62880  0.08350  0.30910  1.0000 -0.2860642009
N   N14       1.0  0.62880  0.91650  0.80910  1.0000 -0.2860642009
N   N15       1.0  0.75870  0.02070  0.44330  1.0000 -0.2860642009
N   N16       1.0  0.75870  0.97930  0.94330  1.0000 -0.2860642009
O   O1        1.0  0.41960  0.06700  0.95970  1.0000 -0.6118202739
O   O2        1.0  0.41960  0.93300  0.45970  1.0000 -0.6118202739
O   O3        1.0  0.27140  0.21160  0.91420  1.0000 -0.6364205711
O   O4        1.0  0.27140  0.78840  0.41420  1.0000 -0.6364205711
O   O5        1.0  0.48130  0.13530  0.87480  1.0000 -0.6118202739
O   O6        1.0  0.48130  0.86470  0.37480  1.0000 -0.6118202739
O   O7        1.0  0.16170  0.56910  0.21950  1.0000 -0.604042732
O   O8        1.0  0.16170  0.43090  0.71950  1.0000 -0.604042732
O   O9        1.0  0.20230  0.67170  0.14270  1.0000 -0.5465249353
O   O10       1.0  0.20230  0.32830  0.64270  1.0000 -0.5465249353
O   O11       1.0  0.36680  0.52380  0.17440  1.0000 -0.5792246395
O   O12       1.0  0.36680  0.47620  0.67440  1.0000 -0.5792246395
O   O13       1.0  0.88520  0.33660  0.35520  1.0000 -0.5563932293
O   O14       1.0  0.88520  0.66340  0.85520  1.0000 -0.5563932293
O   O15       1.0  0.75260  0.33090  0.27150  1.0000 -0.5872367256
O   O16       1.0  0.75260  0.66910  0.77150  1.0000 -0.5872367256
O   O17       1.0  0.96020  0.44400  0.28690  1.0000 -0.5792246395
O   O18       1.0  0.96020  0.55600  0.78690  1.0000 -0.5792246395
O   O19       1.0  0.68380  0.87600  0.12790  1.0000 -0.523262822
O   O20       1.0  0.68380  0.12400  0.62790  1.0000 -0.523262822
O   O21       1.0  0.61780  0.99090  0.05230  1.0000 -0.6118202739
O   O22       1.0  0.61780  0.00910  0.55230  1.0000 -0.6118202739
O   O23       1.0  0.83530  0.02430  0.10980  1.0000 -0.5872367256
O   O24       1.0  0.83530  0.97570  0.60980  1.0000 -0.5872367256
