# DDEC6 charges by PACMAN v1.1 (https://github.com/mtap-research/PACMAN-charge/)
data_2011[Pr][nan]3[ASR]3
_chemical_formula_sum              "Pr4 H18 C48 O30"
_cell_length_a       14.0022
_cell_length_b       14.0022
_cell_length_c       14.0022
_cell_angle_alpha    104.649
_cell_angle_beta     104.649
_cell_angle_gamma    119.618

_symmetry_space_group_name_H-M    "P 1"
_symmetry_Int_Tables_number       1

loop_
  _symmetry_equiv_pos_as_xyz
  'x, y, z'

loop_
  _atom_site_type_symbol
  _atom_site_label
  _atom_site_symmetry_multiplicity
  _atom_site_fract_x
  _atom_site_fract_y
  _atom_site_fract_z
  _atom_site_occupancy
  _atom_site_charge
Pr  Pr1       1.0  0.56495  0.01620  0.85375  1.0000 2.1116474424
Pr  Pr2       1.0  0.96120  0.31495  0.04875  1.0000 2.1116474424
Pr  Pr3       1.0  0.16245  0.71120  0.14625  1.0000 2.1116474424
Pr  Pr4       1.0  0.26620  0.91245  0.95125  1.0000 2.1116474424
H   H1        1.0  0.71820  0.31130  0.05150  1.0000 0.1149204602
H   H2        1.0  0.91670  0.46820  0.90690  1.0000 0.1149204602
H   H3        1.0  0.25980  0.66667  0.94850  1.0000 0.1160901343
H   H4        1.0  0.56130  0.00980  0.09310  1.0000 0.1149204602
H   H5        1.0  0.86040  0.63730  0.29530  1.0000 0.1554110651
H   H6        1.0  0.81510  0.61040  0.72310  1.0000 0.1554110651
H   H7        1.0  0.34200  0.56510  0.70470  1.0000 0.1511191681
H   H8        1.0  0.88730  0.09200  0.27690  1.0000 0.1511191681
H   H9        1.0  0.53150  0.33730  0.21980  1.0000 0.1511191681
H   H10       1.0  0.56170  0.28150  0.69420  1.0000 0.1511191681
H   H11       1.0  0.11750  0.31170  0.78020  1.0000 0.1511191681
H   H12       1.0  0.58730  0.86750  0.30580  1.0000 0.1511191681
H   H13       1.0  0.06830  0.63010  0.65400  1.0000 0.1511191681
H   H14       1.0  0.66430  0.81830  0.93820  1.0000 0.1511191681
H   H15       1.0  0.97610  0.41430  0.34600  1.0000 0.1511191681
H   H16       1.0  0.88010  0.72610  0.06180  1.0000 0.1511191681
H   H17       1.0  0.26920  0.76920  0.50000  1.0000 0.1511191681
H   H18       1.0  0.01920  0.01920  0.00000  1.0000 0.1511191681
C   C1        1.0  0.60930  0.30360  0.12510  1.0000 0.0021011827
C   C2        1.0  0.73420  0.35930  0.80570  1.0000 0.0021011827
C   C3        1.0  0.17850  0.48420  0.87490  1.0000 0.0021011827
C   C4        1.0  0.55360  0.92850  0.19430  1.0000 0.0021011827
C   C5        1.0  0.71220  0.35830  0.10650  1.0000 -0.1250911946
C   C6        1.0  0.85570  0.46220  0.85390  1.0000 -0.1234902586
C   C7        1.0  0.25180  0.60570  0.89350  1.0000 -0.1250911946
C   C8        1.0  0.60830  0.00180  0.14610  1.0000 -0.1250911946
C   C9        1.0  0.80640  0.48340  0.17040  1.0000 -0.0108967093
C   C10       1.0  0.88600  0.55640  0.82300  1.0000 -0.0108967093
C   C11       1.0  0.31300  0.63600  0.82960  1.0000 -0.0108967093
C   C12       1.0  0.73340  0.06300  0.17700  1.0000 -0.0108967093
C   C13       1.0  0.79740  0.55360  0.25260  1.0000 -0.1614823374
C   C14       1.0  0.79480  0.54740  0.74380  1.0000 -0.1614823374
C   C15       1.0  0.30100  0.54480  0.74740  1.0000 -0.1614823374
C   C16       1.0  0.80360  0.05100  0.25620  1.0000 -0.1614823374
C   C17       1.0  0.69450  0.49890  0.27120  1.0000 0.3114926373
C   C18       1.0  0.67330  0.44450  0.69560  1.0000 0.3114926373
C   C19       1.0  0.22770  0.42330  0.72880  1.0000 0.3114926373
C   C20       1.0  0.74890  0.97770  0.30440  1.0000 0.3114926373
C   C21       1.0  0.60030  0.37390  0.20740  1.0000 -0.1762611861
C   C22       1.0  0.64290  0.35030  0.72640  1.0000 -0.1762611861
C   C23       1.0  0.16650  0.39290  0.79260  1.0000 -0.1762611861
C   C24       1.0  0.62390  0.91650  0.27360  1.0000 -0.1762611861
C   C25       1.0  0.50670  0.17090  0.05940  1.0000 0.6175289755
C   C26       1.0  0.69730  0.25670  0.83580  1.0000 0.6175289755
C   C27       1.0  0.11150  0.44730  0.94060  1.0000 0.6175289755
C   C28       1.0  0.42090  0.86150  0.16420  1.0000 0.6175289755
C   C29       1.0  0.91730  0.54500  0.15330  1.0000 0.6175289755
C   C30       1.0  0.01400  0.66730  0.87230  1.0000 0.6175289755
C   C31       1.0  0.39170  0.76400  0.84670  1.0000 0.6175289755
C   C32       1.0  0.79500  0.14170  0.12770  1.0000 0.6175289755
C   C33       1.0  0.18130  0.71833  0.59223  1.0000 -0.0108967093
C   C34       1.0  0.83907  0.93130  0.96297  1.0000 -0.0108967093
C   C35       1.0  0.12610  0.58907  0.40777  1.0000 -0.0108967093
C   C36       1.0  0.96833  0.87610  0.03703  1.0000 -0.0108967093
C   C37       1.0  0.08270  0.61973  0.59223  1.0000 -0.1742633428
C   C38       1.0  0.74047  0.83270  0.96297  1.0000 -0.1742633428
C   C39       1.0  0.02750  0.49047  0.40777  1.0000 -0.1742633428
C   C40       1.0  0.86973  0.77750  0.03703  1.0000 -0.1742633428
C   C41       1.0  0.00550  0.50550  0.50000  1.0000 0.3223726307
C   C42       1.0  0.75550  0.75550  0.00000  1.0000 0.3223726307
C   C43       1.0  0.20320  0.70320  0.50000  1.0000 -0.1234902586
C   C44       1.0  0.95320  0.95320  0.00000  1.0000 -0.1234902586
C   C45       1.0  0.26250  0.84010  0.69340  1.0000 0.6316522662
C   C46       1.0  0.81910  0.01250  0.92240  1.0000 0.6316522662
C   C47       1.0  0.14670  0.56910  0.30660  1.0000 0.6316522662
C   C48       1.0  0.09010  0.89670  0.07760  1.0000 0.6316522662
O   O1        1.0  0.49690  0.10710  0.97300  1.0000 -0.6732573803
O   O2        1.0  0.77390  0.24690  0.88980  1.0000 -0.6732573803
O   O3        1.0  0.13410  0.52390  0.02700  1.0000 -0.6732573803
O   O4        1.0  0.35710  0.88410  0.11020  1.0000 -0.6732573803
O   O5        1.0  0.42890  0.12430  0.09420  1.0000 -0.6017539794
O   O6        1.0  0.58470  0.17890  0.80460  1.0000 -0.6017539794
O   O7        1.0  0.03010  0.33470  0.90580  1.0000 -0.6017539794
O   O8        1.0  0.37430  0.78010  0.19540  1.0000 -0.6017539794
O   O9        1.0  0.93710  0.48370  0.08960  1.0000 -0.7123114164
O   O10       1.0  0.09750  0.68710  0.95340  1.0000 -0.7123114164
O   O11       1.0  0.39410  0.84750  0.91040  1.0000 -0.7123114164
O   O12       1.0  0.73370  0.14410  0.04660  1.0000 -0.7123114164
O   O13       1.0  0.99440  0.66220  0.20380  1.0000 -0.6133408467
O   O14       1.0  0.04060  0.74440  0.83220  1.0000 -0.6133408467
O   O15       1.0  0.45840  0.79060  0.79620  1.0000 -0.6133408467
O   O16       1.0  0.91220  0.20840  0.16780  1.0000 -0.6133408467
O   O17       1.0  0.68370  0.56430  0.34960  1.0000 -0.3807276557
O   O18       1.0  0.58410  0.43370  0.61940  1.0000 -0.3807276557
O   O19       1.0  0.21470  0.33410  0.65040  1.0000 -0.3807276557
O   O20       1.0  0.81430  0.96470  0.38060  1.0000 -0.3807276557
O   O21       1.0  0.36380  0.91940  0.70800  1.0000 -0.5803900952
O   O22       1.0  0.90580  0.11380  0.94440  1.0000 -0.5803900952
O   O23       1.0  0.21140  0.65580  0.29200  1.0000 -0.5803900952
O   O24       1.0  0.16940  0.96140  0.05560  1.0000 -0.5803900952
O   O25       1.0  0.21930  0.85160  0.75730  1.0000 -0.6133408467
O   O26       1.0  0.71200  0.96930  0.86770  1.0000 -0.6133408467
O   O27       1.0  0.09430  0.46200  0.24270  1.0000 -0.6133408467
O   O28       1.0  0.10160  0.84430  0.13230  1.0000 -0.6133408467
O   O29       1.0  0.91140  0.41140  0.50000  1.0000 -0.4081102307
O   O30       1.0  0.66140  0.66140  0.00000  1.0000 -0.4081102307
