# DDEC6 charges by PACMAN v1.1 (https://github.com/mtap-research/PACMAN-charge/)
data_2011[Cd][nan]3[ASR]1
_chemical_formula_sum              "Cd8 H240 C204 S16 N4 O48"
_cell_length_a       20.3454
_cell_length_b       14.9971
_cell_length_c       26.4511
_cell_angle_alpha    90
_cell_angle_beta     124.462
_cell_angle_gamma    90

_symmetry_space_group_name_H-M    "P 1"
_symmetry_Int_Tables_number       1

loop_
  _symmetry_equiv_pos_as_xyz
  'x, y, z'

loop_
  _atom_site_type_symbol
  _atom_site_label
  _atom_site_symmetry_multiplicity
  _atom_site_fract_x
  _atom_site_fract_y
  _atom_site_fract_z
  _atom_site_occupancy
  _atom_site_charge
Cd  Cd1       1.0  0.10758  0.22896  0.20617  1.0000 0.9779146794
Cd  Cd2       1.0  0.89242  0.72896  0.29383  1.0000 0.9779146794
Cd  Cd3       1.0  0.89242  0.77104  0.79383  1.0000 0.9779146794
Cd  Cd4       1.0  0.10758  0.27104  0.70617  1.0000 0.9779146794
Cd  Cd5       1.0  0.32379  0.28437  0.31362  1.0000 0.9117793326
Cd  Cd6       1.0  0.67621  0.78437  0.18638  1.0000 0.9117793326
Cd  Cd7       1.0  0.67621  0.71563  0.68638  1.0000 0.9117793326
Cd  Cd8       1.0  0.32379  0.21563  0.81362  1.0000 0.9117793326
H   H1        1.0  0.17390  0.58040  0.37570  1.0000 0.1297001048
H   H2        1.0  0.82610  0.08040  0.12430  1.0000 0.1297001048
H   H3        1.0  0.82610  0.41960  0.62430  1.0000 0.1297001048
H   H4        1.0  0.17390  0.91960  0.87570  1.0000 0.1297001048
H   H5        1.0  0.41000  0.54750  0.47730  1.0000 0.1209592866
H   H6        1.0  0.59000  0.04750  0.02270  1.0000 0.1209592866
H   H7        1.0  0.59000  0.45250  0.52270  1.0000 0.1209592866
H   H8        1.0  0.41000  0.95250  0.97730  1.0000 0.1209592866
H   H9        1.0  0.39830  0.19900  0.53210  1.0000 0.1101886102
H   H10       1.0  0.60170  0.69900  0.96790  1.0000 0.1101886102
H   H11       1.0  0.60170  0.80100  0.46790  1.0000 0.1101886102
H   H12       1.0  0.39830  0.30100  0.03210  1.0000 0.1101886102
H   H13       1.0  0.40940  0.25410  0.68570  1.0000 0.1209592866
H   H14       1.0  0.59060  0.75410  0.81430  1.0000 0.1209592866
H   H15       1.0  0.59060  0.74590  0.31430  1.0000 0.1209592866
H   H16       1.0  0.40940  0.24590  0.18570  1.0000 0.1209592866
H   H17       1.0  0.42950  0.61630  0.68840  1.0000 0.1209592866
H   H18       1.0  0.57050  0.11630  0.81160  1.0000 0.1209592866
H   H19       1.0  0.57050  0.38370  0.31160  1.0000 0.1209592866
H   H20       1.0  0.42950  0.88370  0.18840  1.0000 0.1209592866
H   H21       1.0  0.19510  0.66560  0.59660  1.0000 0.1101886102
H   H22       1.0  0.80490  0.16560  0.90340  1.0000 0.1101886102
H   H23       1.0  0.80490  0.33440  0.40340  1.0000 0.1101886102
H   H24       1.0  0.19510  0.83440  0.09660  1.0000 0.1101886102
H   H25       1.0  0.05880  0.33260  0.53650  1.0000 0.1209592866
H   H26       1.0  0.94120  0.83260  0.96350  1.0000 0.1209592866
H   H27       1.0  0.94120  0.66740  0.46350  1.0000 0.1209592866
H   H28       1.0  0.05880  0.16740  0.03650  1.0000 0.1209592866
H   H29       1.0  0.04900  0.27230  0.38410  1.0000 0.1209592866
H   H30       1.0  0.95100  0.77230  0.11590  1.0000 0.1209592866
H   H31       1.0  0.95100  0.72770  0.61590  1.0000 0.1209592866
H   H32       1.0  0.04900  0.22770  0.88410  1.0000 0.1209592866
H   H33       1.0  0.22360  0.18400  0.41060  1.0000 0.1471612041
H   H34       1.0  0.77640  0.68400  0.08940  1.0000 0.1471612041
H   H35       1.0  0.77640  0.81600  0.58940  1.0000 0.1471612041
H   H36       1.0  0.22360  0.31600  0.91060  1.0000 0.1471612041
H   H37       1.0  0.16500  0.26230  0.40230  1.0000 0.1209592866
H   H38       1.0  0.83500  0.76230  0.09770  1.0000 0.1209592866
H   H39       1.0  0.83500  0.73770  0.59770  1.0000 0.1209592866
H   H40       1.0  0.16500  0.23770  0.90230  1.0000 0.1209592866
H   H41       1.0  0.57040  0.45010  0.68180  1.0000 0.1209592866
H   H42       1.0  0.42960  0.95010  0.81820  1.0000 0.1209592866
H   H43       1.0  0.42960  0.54990  0.31820  1.0000 0.1209592866
H   H44       1.0  0.57040  0.04990  0.18180  1.0000 0.1209592866
H   H45       1.0  0.57020  0.44320  0.62130  1.0000 0.1297001048
H   H46       1.0  0.42980  0.94320  0.87870  1.0000 0.1297001048
H   H47       1.0  0.42980  0.55680  0.37870  1.0000 0.1297001048
H   H48       1.0  0.57020  0.05680  0.12130  1.0000 0.1297001048
H   H49       1.0  0.18820  0.37840  0.63980  1.0000 0.1209592866
H   H50       1.0  0.81180  0.87840  0.86020  1.0000 0.1209592866
H   H51       1.0  0.81180  0.62160  0.36020  1.0000 0.1209592866
H   H52       1.0  0.18820  0.12160  0.13980  1.0000 0.1209592866
H   H53       1.0  0.19800  0.28910  0.61190  1.0000 0.1471612041
H   H54       1.0  0.80200  0.78910  0.88810  1.0000 0.1471612041
H   H55       1.0  0.80200  0.71090  0.38810  1.0000 0.1471612041
H   H56       1.0  0.19800  0.21090  0.11190  1.0000 0.1471612041
H   H57       1.0  0.06730  0.60530  0.47880  1.0000 0.1101886102
H   H58       1.0  0.93270  0.10530  0.02120  1.0000 0.1101886102
H   H59       1.0  0.93270  0.39470  0.52120  1.0000 0.1101886102
H   H60       1.0  0.06730  0.89470  0.97880  1.0000 0.1101886102
H   H61       1.0  0.12800  0.66800  0.47540  1.0000 0.1384827231
H   H62       1.0  0.87200  0.16800  0.02460  1.0000 0.1384827231
H   H63       1.0  0.87200  0.33200  0.52460  1.0000 0.1384827231
H   H64       1.0  0.12800  0.83200  0.97540  1.0000 0.1384827231
H   H65       1.0  0.23670  0.79690  0.39280  1.0000 0.1209592866
H   H66       1.0  0.76330  0.29690  0.10720  1.0000 0.1209592866
H   H67       1.0  0.76330  0.20310  0.60720  1.0000 0.1209592866
H   H68       1.0  0.23670  0.70310  0.89280  1.0000 0.1209592866
H   H69       1.0  0.19870  0.71430  0.34640  1.0000 0.1209592866
H   H70       1.0  0.80130  0.21430  0.15360  1.0000 0.1209592866
H   H71       1.0  0.80130  0.28570  0.65360  1.0000 0.1209592866
H   H72       1.0  0.19870  0.78570  0.84640  1.0000 0.1209592866
H   H73       1.0  0.19260  0.71900  0.40410  1.0000 0.1209592866
H   H74       1.0  0.80740  0.21900  0.09590  1.0000 0.1209592866
H   H75       1.0  0.80740  0.28100  0.59590  1.0000 0.1209592866
H   H76       1.0  0.19260  0.78100  0.90410  1.0000 0.1209592866
H   H77       1.0  0.36080  0.77210  0.40530  1.0000 0.1297001048
H   H78       1.0  0.63920  0.27210  0.09470  1.0000 0.1297001048
H   H79       1.0  0.63920  0.22790  0.59470  1.0000 0.1297001048
H   H80       1.0  0.36080  0.72790  0.90530  1.0000 0.1297001048
H   H81       1.0  0.40580  0.67810  0.42750  1.0000 0.1101886102
H   H82       1.0  0.59420  0.17810  0.07250  1.0000 0.1101886102
H   H83       1.0  0.59420  0.32190  0.57250  1.0000 0.1101886102
H   H84       1.0  0.40580  0.82190  0.92750  1.0000 0.1101886102
H   H85       1.0  0.32550  0.68780  0.36030  1.0000 0.1297001048
H   H86       1.0  0.67450  0.18780  0.13970  1.0000 0.1297001048
H   H87       1.0  0.67450  0.31220  0.63970  1.0000 0.1297001048
H   H88       1.0  0.32550  0.81220  0.86030  1.0000 0.1297001048
H   H89       1.0  0.35580  0.77430  0.49830  1.0000 0.1209592866
H   H90       1.0  0.64420  0.27430  0.00170  1.0000 0.1209592866
H   H91       1.0  0.64420  0.22570  0.50170  1.0000 0.1209592866
H   H92       1.0  0.35580  0.72570  0.99830  1.0000 0.1209592866
H   H93       1.0  0.31460  0.69320  0.50970  1.0000 0.1297001048
H   H94       1.0  0.68540  0.19320  0.99030  1.0000 0.1297001048
H   H95       1.0  0.68540  0.30680  0.49030  1.0000 0.1297001048
H   H96       1.0  0.31460  0.80680  0.00970  1.0000 0.1297001048
H   H97       1.0  0.39890  0.67910  0.51920  1.0000 0.1384827231
H   H98       1.0  0.60110  0.17910  0.98080  1.0000 0.1384827231
H   H99       1.0  0.60110  0.32090  0.48080  1.0000 0.1384827231
H   H100      1.0  0.39890  0.82090  0.01920  1.0000 0.1384827231
H   H101      1.0  0.50770  0.08270  0.68150  1.0000 0.1297001048
H   H102      1.0  0.49230  0.58270  0.81850  1.0000 0.1297001048
H   H103      1.0  0.49230  0.91730  0.31850  1.0000 0.1297001048
H   H104      1.0  0.50770  0.41730  0.18150  1.0000 0.1297001048
H   H105      1.0  0.45720  0.99550  0.64580  1.0000 0.1209592866
H   H106      1.0  0.54280  0.49550  0.85420  1.0000 0.1209592866
H   H107      1.0  0.54280  0.00450  0.35420  1.0000 0.1209592866
H   H108      1.0  0.45720  0.50450  0.14580  1.0000 0.1209592866
H   H109      1.0  0.48260  0.06360  0.61320  1.0000 0.1209592866
H   H110      1.0  0.51740  0.56360  0.88680  1.0000 0.1209592866
H   H111      1.0  0.51740  0.93640  0.38680  1.0000 0.1209592866
H   H112      1.0  0.48260  0.43640  0.11320  1.0000 0.1209592866
H   H113      1.0  0.41190  0.11970  0.70170  1.0000 0.1297001048
H   H114      1.0  0.58810  0.61970  0.79830  1.0000 0.1297001048
H   H115      1.0  0.58810  0.88030  0.29830  1.0000 0.1297001048
H   H116      1.0  0.41190  0.38030  0.20170  1.0000 0.1297001048
H   H117      1.0  0.31850  0.12610  0.64930  1.0000 0.1384827231
H   H118      1.0  0.68150  0.62610  0.85070  1.0000 0.1384827231
H   H119      1.0  0.68150  0.87390  0.35070  1.0000 0.1384827231
H   H120      1.0  0.31850  0.37390  0.14930  1.0000 0.1384827231
H   H121      1.0  0.36290  0.03180  0.66570  1.0000 0.1297001048
H   H122      1.0  0.63710  0.53180  0.83430  1.0000 0.1297001048
H   H123      1.0  0.63710  0.96820  0.33430  1.0000 0.1297001048
H   H124      1.0  0.36290  0.46820  0.16570  1.0000 0.1297001048
H   H125      1.0  0.34300  0.08550  0.52790  1.0000 0.1209592866
H   H126      1.0  0.65700  0.58550  0.97210  1.0000 0.1209592866
H   H127      1.0  0.65700  0.91450  0.47210  1.0000 0.1209592866
H   H128      1.0  0.34300  0.41450  0.02790  1.0000 0.1209592866
H   H129      1.0  0.32490  0.00970  0.56100  1.0000 0.1297001048
H   H130      1.0  0.67510  0.50970  0.93900  1.0000 0.1297001048
H   H131      1.0  0.67510  0.99030  0.43900  1.0000 0.1297001048
H   H132      1.0  0.32490  0.49030  0.06100  1.0000 0.1297001048
H   H133      1.0  0.27600  0.10130  0.54080  1.0000 0.1384827231
H   H134      1.0  0.72400  0.60130  0.95920  1.0000 0.1384827231
H   H135      1.0  0.72400  0.89870  0.45920  1.0000 0.1384827231
H   H136      1.0  0.27600  0.39870  0.04080  1.0000 0.1384827231
H   H137      1.0  0.26920  0.79020  0.56050  1.0000 0.1297001048
H   H138      1.0  0.73080  0.29020  0.93950  1.0000 0.1297001048
H   H139      1.0  0.73080  0.20980  0.43950  1.0000 0.1297001048
H   H140      1.0  0.26920  0.70980  0.06050  1.0000 0.1297001048
H   H141      1.0  0.21710  0.79880  0.58830  1.0000 0.1209592866
H   H142      1.0  0.78290  0.29880  0.91170  1.0000 0.1209592866
H   H143      1.0  0.78290  0.20120  0.41170  1.0000 0.1209592866
H   H144      1.0  0.21710  0.70120  0.08830  1.0000 0.1209592866
H   H145      1.0  0.28120  0.87400  0.60240  1.0000 0.1297001048
H   H146      1.0  0.71880  0.37400  0.89760  1.0000 0.1297001048
H   H147      1.0  0.71880  0.12600  0.39760  1.0000 0.1297001048
H   H148      1.0  0.28120  0.62600  0.10240  1.0000 0.1297001048
H   H149      1.0  0.40910  0.75820  0.62470  1.0000 0.1384827231
H   H150      1.0  0.59090  0.25820  0.87530  1.0000 0.1384827231
H   H151      1.0  0.59090  0.24180  0.37530  1.0000 0.1384827231
H   H152      1.0  0.40910  0.74180  0.12470  1.0000 0.1384827231
H   H153      1.0  0.42180  0.84290  0.66610  1.0000 0.1297001048
H   H154      1.0  0.57820  0.34290  0.83390  1.0000 0.1297001048
H   H155      1.0  0.57820  0.15710  0.33390  1.0000 0.1297001048
H   H156      1.0  0.42180  0.65710  0.16610  1.0000 0.1297001048
H   H157      1.0  0.45480  0.74730  0.69730  1.0000 0.1297001048
H   H158      1.0  0.54520  0.24730  0.80270  1.0000 0.1297001048
H   H159      1.0  0.54520  0.25270  0.30270  1.0000 0.1297001048
H   H160      1.0  0.45480  0.75270  0.19730  1.0000 0.1297001048
H   H161      1.0  0.28320  0.77680  0.70040  1.0000 0.1297001048
H   H162      1.0  0.71680  0.27680  0.79960  1.0000 0.1297001048
H   H163      1.0  0.71680  0.22320  0.29960  1.0000 0.1297001048
H   H164      1.0  0.28320  0.72320  0.20040  1.0000 0.1297001048
H   H165      1.0  0.37720  0.75880  0.74360  1.0000 0.1297001048
H   H166      1.0  0.62280  0.25880  0.75640  1.0000 0.1297001048
H   H167      1.0  0.62280  0.24120  0.25640  1.0000 0.1297001048
H   H168      1.0  0.37720  0.74120  0.24360  1.0000 0.1297001048
H   H169      1.0  0.34440  0.85420  0.71190  1.0000 0.1297001048
H   H170      1.0  0.65560  0.35420  0.78810  1.0000 0.1297001048
H   H171      1.0  0.65560  0.14580  0.28810  1.0000 0.1297001048
H   H172      1.0  0.34440  0.64580  0.21190  1.0000 0.1297001048
H   H173      1.0  0.12700  0.14380  0.52450  1.0000 0.1297001048
H   H174      1.0  0.87300  0.64380  0.97550  1.0000 0.1297001048
H   H175      1.0  0.87300  0.85620  0.47550  1.0000 0.1297001048
H   H176      1.0  0.12700  0.35620  0.02450  1.0000 0.1297001048
H   H177      1.0  0.08070  0.18450  0.55190  1.0000 0.1297001048
H   H178      1.0  0.91930  0.68450  0.94810  1.0000 0.1297001048
H   H179      1.0  0.91930  0.81550  0.44810  1.0000 0.1297001048
H   H180      1.0  0.08070  0.31550  0.05190  1.0000 0.1297001048
H   H181      1.0  0.05450  0.09010  0.51770  1.0000 0.1297001048
H   H182      1.0  0.94550  0.59010  0.98230  1.0000 0.1297001048
H   H183      1.0  0.94550  0.90990  0.48230  1.0000 0.1297001048
H   H184      1.0  0.05450  0.40990  0.01770  1.0000 0.1297001048
H   H185      1.0  0.90310  0.22800  0.41550  1.0000 0.1297001048
H   H186      1.0  0.09690  0.72800  0.08450  1.0000 0.1297001048
H   H187      1.0  0.09690  0.77200  0.58450  1.0000 0.1297001048
H   H188      1.0  0.90310  0.27200  0.91550  1.0000 0.1297001048
H   H189      1.0  0.92490  0.13710  0.45350  1.0000 0.1297001048
H   H190      1.0  0.07510  0.63710  0.04650  1.0000 0.1297001048
H   H191      1.0  0.07510  0.86290  0.54650  1.0000 0.1297001048
H   H192      1.0  0.92490  0.36290  0.95350  1.0000 0.1297001048
H   H193      1.0  0.94960  0.23090  0.48850  1.0000 0.1297001048
H   H194      1.0  0.05040  0.73090  0.01150  1.0000 0.1297001048
H   H195      1.0  0.05040  0.76910  0.51150  1.0000 0.1297001048
H   H196      1.0  0.94960  0.26910  0.98850  1.0000 0.1297001048
H   H197      1.0  0.97050  0.15950  0.37050  1.0000 0.1209592866
H   H198      1.0  0.02950  0.65950  0.12950  1.0000 0.1209592866
H   H199      1.0  0.02950  0.84050  0.62950  1.0000 0.1209592866
H   H200      1.0  0.97050  0.34050  0.87050  1.0000 0.1209592866
H   H201      1.0  0.06080  0.12670  0.41590  1.0000 0.1209592866
H   H202      1.0  0.93920  0.62670  0.08410  1.0000 0.1209592866
H   H203      1.0  0.93920  0.87330  0.58410  1.0000 0.1209592866
H   H204      1.0  0.06080  0.37330  0.91590  1.0000 0.1209592866
H   H205      1.0  0.99050  0.07520  0.41400  1.0000 0.1209592866
H   H206      1.0  0.00950  0.57520  0.08600  1.0000 0.1209592866
H   H207      1.0  0.00950  0.92480  0.58600  1.0000 0.1209592866
H   H208      1.0  0.99050  0.42480  0.91400  1.0000 0.1209592866
H   H209      1.0  0.34230  0.14020  0.37960  1.0000 0.2704734439
H   H210      1.0  0.65770  0.64020  0.12040  1.0000 0.2704734439
H   H211      1.0  0.65770  0.85980  0.62040  1.0000 0.2704734439
H   H212      1.0  0.34230  0.35980  0.87960  1.0000 0.2704734439
H   H213      1.0  0.38860  0.21280  0.42450  1.0000 0.2573462014
H   H214      1.0  0.61140  0.71280  0.07550  1.0000 0.2573462014
H   H215      1.0  0.61140  0.78720  0.57550  1.0000 0.2573462014
H   H216      1.0  0.38860  0.28720  0.92450  1.0000 0.2573462014
H   H217      1.0  0.43770  0.10560  0.36760  1.0000 0.1101886102
H   H218      1.0  0.56230  0.60560  0.13240  1.0000 0.1101886102
H   H219      1.0  0.56230  0.89440  0.63240  1.0000 0.1101886102
H   H220      1.0  0.43770  0.39440  0.86760  1.0000 0.1101886102
H   H221      1.0  0.48220  0.19790  0.39770  1.0000 0.1209592866
H   H222      1.0  0.51780  0.69790  0.10230  1.0000 0.1209592866
H   H223      1.0  0.51780  0.80210  0.60230  1.0000 0.1209592866
H   H224      1.0  0.48220  0.30210  0.89770  1.0000 0.1209592866
H   H225      1.0  0.51840  0.14590  0.49430  1.0000 0.1209592866
H   H226      1.0  0.48160  0.64590  0.00570  1.0000 0.1209592866
H   H227      1.0  0.48160  0.85410  0.50570  1.0000 0.1209592866
H   H228      1.0  0.51840  0.35410  0.99430  1.0000 0.1209592866
H   H229      1.0  0.55560  0.08680  0.46610  1.0000 0.1209592866
H   H230      1.0  0.44440  0.58680  0.03390  1.0000 0.1209592866
H   H231      1.0  0.44440  0.91320  0.53390  1.0000 0.1209592866
H   H232      1.0  0.55560  0.41320  0.96610  1.0000 0.1209592866
H   H233      1.0  0.42180  0.03990  0.46610  1.0000 0.0993336697
H   H234      1.0  0.57820  0.53990  0.03390  1.0000 0.0993336697
H   H235      1.0  0.57820  0.96010  0.53390  1.0000 0.0993336697
H   H236      1.0  0.42180  0.46010  0.96610  1.0000 0.0993336697
H   H237      1.0  0.45580  0.98130  0.43520  1.0000 0.0993336697
H   H238      1.0  0.54420  0.48130  0.06480  1.0000 0.0993336697
H   H239      1.0  0.54420  0.01870  0.56480  1.0000 0.0993336697
H   H240      1.0  0.45580  0.51870  0.93520  1.0000 0.0993336697
C   C1        1.0  0.27160  0.39480  0.42720  1.0000 0.1590196208
C   C2        1.0  0.72840  0.89480  0.07280  1.0000 0.1590196208
C   C3        1.0  0.72840  0.60520  0.57280  1.0000 0.1590196208
C   C4        1.0  0.27160  0.10520  0.92720  1.0000 0.1590196208
C   C5        1.0  0.20570  0.45090  0.39670  1.0000 -0.0383083112
C   C6        1.0  0.79430  0.95090  0.10330  1.0000 -0.0383083112
C   C7        1.0  0.79430  0.54910  0.60330  1.0000 -0.0383083112
C   C8        1.0  0.20570  0.04910  0.89670  1.0000 -0.0383083112
C   C9        1.0  0.21920  0.54250  0.39700  1.0000 -0.1891395479
C   C10       1.0  0.78080  0.04250  0.10300  1.0000 -0.1891395479
C   C11       1.0  0.78080  0.45750  0.60300  1.0000 -0.1891395479
C   C12       1.0  0.21920  0.95750  0.89700  1.0000 -0.1891395479
C   C13       1.0  0.29280  0.58150  0.42570  1.0000 0.0893647044
C   C14       1.0  0.70720  0.08150  0.07430  1.0000 0.0893647044
C   C15       1.0  0.70720  0.41850  0.57430  1.0000 0.0893647044
C   C16       1.0  0.29280  0.91850  0.92570  1.0000 0.0893647044
C   C17       1.0  0.35770  0.52370  0.45660  1.0000 -0.1785065566
C   C18       1.0  0.64230  0.02370  0.04340  1.0000 -0.1785065566
C   C19       1.0  0.64230  0.47630  0.54340  1.0000 -0.1785065566
C   C20       1.0  0.35770  0.97630  0.95660  1.0000 -0.1785065566
C   C21       1.0  0.34790  0.43220  0.45790  1.0000 -0.0113932561
C   C22       1.0  0.65210  0.93220  0.04210  1.0000 -0.0113932561
C   C23       1.0  0.65210  0.56780  0.54210  1.0000 -0.0113932561
C   C24       1.0  0.34790  0.06780  0.95790  1.0000 -0.0113932561
C   C25       1.0  0.44110  0.38680  0.60440  1.0000 0.1209592866
C   C26       1.0  0.55890  0.88680  0.89560  1.0000 0.1209592866
C   C27       1.0  0.55890  0.61320  0.39560  1.0000 0.1209592866
C   C28       1.0  0.44110  0.11320  0.10440  1.0000 0.1209592866
C   C29       1.0  0.42700  0.32740  0.55910  1.0000 -0.0113932561
C   C30       1.0  0.57300  0.82740  0.94090  1.0000 -0.0113932561
C   C31       1.0  0.57300  0.67260  0.44090  1.0000 -0.0113932561
C   C32       1.0  0.42700  0.17260  0.05910  1.0000 -0.0113932561
C   C33       1.0  0.40820  0.24000  0.56310  1.0000 -0.2119907535
C   C34       1.0  0.59180  0.74000  0.93690  1.0000 -0.2119907535
C   C35       1.0  0.59180  0.76000  0.43690  1.0000 -0.2119907535
C   C36       1.0  0.40820  0.26000  0.06310  1.0000 -0.2119907535
C   C37       1.0  0.40310  0.21010  0.61040  1.0000 0.0993336697
C   C38       1.0  0.59690  0.71010  0.88960  1.0000 0.0993336697
C   C39       1.0  0.59690  0.78990  0.38960  1.0000 0.0993336697
C   C40       1.0  0.40310  0.28990  0.11040  1.0000 0.0993336697
C   C41       1.0  0.41430  0.27220  0.65360  1.0000 -0.1891395479
C   C42       1.0  0.58570  0.77220  0.84640  1.0000 -0.1891395479
C   C43       1.0  0.58570  0.72780  0.34640  1.0000 -0.1891395479
C   C44       1.0  0.41430  0.22780  0.15360  1.0000 -0.1891395479
C   C45       1.0  0.43240  0.36020  0.65030  1.0000 -0.0207972666
C   C46       1.0  0.56760  0.86020  0.84970  1.0000 -0.0207972666
C   C47       1.0  0.56760  0.63980  0.34970  1.0000 -0.0207972666
C   C48       1.0  0.43240  0.13980  0.15030  1.0000 -0.0207972666
C   C49       1.0  0.28440  0.47180  0.63590  1.0000 0.1590196208
C   C50       1.0  0.71560  0.97180  0.86410  1.0000 0.1590196208
C   C51       1.0  0.71560  0.52820  0.36410  1.0000 0.1590196208
C   C52       1.0  0.28440  0.02820  0.13590  1.0000 0.1590196208
C   C53       1.0  0.36200  0.50490  0.66590  1.0000 -0.0207972666
C   C54       1.0  0.63800  0.00490  0.83410  1.0000 -0.0207972666
C   C55       1.0  0.63800  0.49510  0.33410  1.0000 -0.0207972666
C   C56       1.0  0.36200  0.99510  0.16590  1.0000 -0.0207972666
C   C57       1.0  0.37630  0.59580  0.66900  1.0000 -0.1891395479
C   C58       1.0  0.62370  0.09580  0.83100  1.0000 -0.1891395479
C   C59       1.0  0.62370  0.40420  0.33100  1.0000 -0.1891395479
C   C60       1.0  0.37630  0.90420  0.16900  1.0000 -0.1891395479
C   C61       1.0  0.31500  0.65740  0.64440  1.0000 0.0893647044
C   C62       1.0  0.68500  0.15740  0.85560  1.0000 0.0893647044
C   C63       1.0  0.68500  0.34260  0.35560  1.0000 0.0893647044
C   C64       1.0  0.31500  0.84260  0.14440  1.0000 0.0893647044
C   C65       1.0  0.23810  0.62450  0.61390  1.0000 -0.2190014996
C   C66       1.0  0.76190  0.12450  0.88610  1.0000 -0.2190014996
C   C67       1.0  0.76190  0.37550  0.38610  1.0000 -0.2190014996
C   C68       1.0  0.23810  0.87550  0.11390  1.0000 -0.2190014996
C   C69       1.0  0.22120  0.53300  0.60750  1.0000 -0.0303759598
C   C70       1.0  0.77880  0.03300  0.89250  1.0000 -0.0303759598
C   C71       1.0  0.77880  0.46700  0.39250  1.0000 -0.0303759598
C   C72       1.0  0.22120  0.96700  0.10750  1.0000 -0.0303759598
C   C73       1.0  0.10650  0.45970  0.46040  1.0000 0.1778885011
C   C74       1.0  0.89350  0.95970  0.03960  1.0000 0.1778885011
C   C75       1.0  0.89350  0.54030  0.53960  1.0000 0.1778885011
C   C76       1.0  0.10650  0.04030  0.96040  1.0000 0.1778885011
C   C77       1.0  0.09790  0.43280  0.50810  1.0000 -0.0383083112
C   C78       1.0  0.90210  0.93280  0.99190  1.0000 -0.0383083112
C   C79       1.0  0.90210  0.56720  0.49190  1.0000 -0.0383083112
C   C80       1.0  0.09790  0.06720  0.00810  1.0000 -0.0383083112
C   C81       1.0  0.06710  0.34880  0.50580  1.0000 -0.2119907535
C   C82       1.0  0.93290  0.84880  0.99420  1.0000 -0.2119907535
C   C83       1.0  0.93290  0.65120  0.49420  1.0000 -0.2119907535
C   C84       1.0  0.06710  0.15120  0.00580  1.0000 -0.2119907535
C   C85       1.0  0.04830  0.28770  0.45980  1.0000 0.1101886102
C   C86       1.0  0.95170  0.78770  0.04020  1.0000 0.1101886102
C   C87       1.0  0.95170  0.71230  0.54020  1.0000 0.1101886102
C   C88       1.0  0.04830  0.21230  0.95980  1.0000 0.1101886102
C   C89       1.0  0.06100  0.31340  0.41560  1.0000 -0.2190014996
C   C90       1.0  0.93900  0.81340  0.08440  1.0000 -0.2190014996
C   C91       1.0  0.93900  0.68660  0.58440  1.0000 -0.2190014996
C   C92       1.0  0.06100  0.18660  0.91560  1.0000 -0.2190014996
C   C93       1.0  0.09040  0.39650  0.41560  1.0000 -0.0383083112
C   C94       1.0  0.90960  0.89650  0.08440  1.0000 -0.0383083112
C   C95       1.0  0.90960  0.60350  0.58440  1.0000 -0.0383083112
C   C96       1.0  0.09040  0.10350  0.91560  1.0000 -0.0383083112
C   C97       1.0  0.20710  0.24610  0.39610  1.0000 -0.1785065566
C   C98       1.0  0.79290  0.74610  0.10390  1.0000 -0.1785065566
C   C99       1.0  0.79290  0.75390  0.60390  1.0000 -0.1785065566
C   C100      1.0  0.20710  0.25390  0.89610  1.0000 -0.1785065566
C   C101      1.0  0.17300  0.24980  0.32910  1.0000 0.5816491653
C   C102      1.0  0.82700  0.74980  0.17090  1.0000 0.5816491653
C   C103      1.0  0.82700  0.75020  0.67090  1.0000 0.5816491653
C   C104      1.0  0.17300  0.25020  0.82910  1.0000 0.5816491653
C   C105      1.0  0.54990  0.47810  0.64150  1.0000 -0.1891395479
C   C106      1.0  0.45010  0.97810  0.85850  1.0000 -0.1891395479
C   C107      1.0  0.45010  0.52190  0.35850  1.0000 -0.1785065566
C   C108      1.0  0.54990  0.02190  0.14150  1.0000 -0.1785065566
C   C109      1.0  0.58140  0.57140  0.65180  1.0000 0.5645748262
C   C110      1.0  0.41860  0.07140  0.84820  1.0000 0.5645748262
C   C111      1.0  0.41860  0.42860  0.34820  1.0000 0.5645748262
C   C112      1.0  0.58140  0.92860  0.15180  1.0000 0.5645748262
C   C113      1.0  0.22780  0.33550  0.64370  1.0000 -0.1785065566
C   C114      1.0  0.77220  0.83550  0.85630  1.0000 -0.1785065566
C   C115      1.0  0.77220  0.66450  0.35630  1.0000 -0.1785065566
C   C116      1.0  0.22780  0.16450  0.14370  1.0000 -0.1785065566
C   C117      1.0  0.26750  0.29210  0.70450  1.0000 0.5816491653
C   C118      1.0  0.73250  0.79210  0.79550  1.0000 0.5816491653
C   C119      1.0  0.73250  0.70790  0.29550  1.0000 0.5816491653
C   C120      1.0  0.26750  0.20790  0.20450  1.0000 0.5816491653
C   C121      1.0  0.09030  0.61760  0.45510  1.0000 -0.1785065566
C   C122      1.0  0.90970  0.11760  0.04490  1.0000 -0.1785065566
C   C123      1.0  0.90970  0.38240  0.54490  1.0000 -0.1785065566
C   C124      1.0  0.09030  0.88240  0.95510  1.0000 -0.1785065566
C   C125      1.0  0.02440  0.64720  0.39230  1.0000 0.5683198158
C   C126      1.0  0.97560  0.14720  0.10770  1.0000 0.5683198158
C   C127      1.0  0.97560  0.35280  0.60770  1.0000 0.5683198158
C   C128      1.0  0.02440  0.85280  0.89230  1.0000 0.5683198158
C   C129      1.0  0.30500  0.68220  0.42810  1.0000 0.2704734439
C   C130      1.0  0.69500  0.18220  0.07190  1.0000 0.2704734439
C   C131      1.0  0.69500  0.31780  0.57190  1.0000 0.2704734439
C   C132      1.0  0.30500  0.81780  0.92810  1.0000 0.2704734439
C   C133      1.0  0.22620  0.73260  0.38940  1.0000 -0.4514119815
C   C134      1.0  0.77380  0.23260  0.11060  1.0000 -0.4514119815
C   C135      1.0  0.77380  0.26740  0.61060  1.0000 -0.4514119815
C   C136      1.0  0.22620  0.76740  0.88940  1.0000 -0.4514119815
C   C137      1.0  0.35360  0.70730  0.40310  1.0000 -0.470704037
C   C138      1.0  0.64640  0.20730  0.09690  1.0000 -0.470704037
C   C139      1.0  0.64640  0.29270  0.59690  1.0000 -0.470704037
C   C140      1.0  0.35360  0.79270  0.90310  1.0000 -0.470704037
C   C141      1.0  0.34730  0.70960  0.49470  1.0000 -0.4906170259
C   C142      1.0  0.65270  0.20960  0.00530  1.0000 -0.4906170259
C   C143      1.0  0.65270  0.29040  0.50530  1.0000 -0.4906170259
C   C144      1.0  0.34730  0.79040  0.99470  1.0000 -0.4906170259
C   C145      1.0  0.38650  0.11200  0.61500  1.0000 0.2544105534
C   C146      1.0  0.61350  0.61200  0.88500  1.0000 0.2544105534
C   C147      1.0  0.61350  0.88800  0.38500  1.0000 0.2544105534
C   C148      1.0  0.38650  0.38800  0.11500  1.0000 0.2544105534
C   C149      1.0  0.46590  0.05840  0.64130  1.0000 -0.4607246111
C   C150      1.0  0.53410  0.55840  0.85870  1.0000 -0.4607246111
C   C151      1.0  0.53410  0.94160  0.35870  1.0000 -0.4607246111
C   C152      1.0  0.46590  0.44160  0.14130  1.0000 -0.4607246111
C   C153      1.0  0.36830  0.09600  0.66200  1.0000 -0.470704037
C   C154      1.0  0.63170  0.59600  0.83800  1.0000 -0.470704037
C   C155      1.0  0.63170  0.90400  0.33800  1.0000 -0.470704037
C   C156      1.0  0.36830  0.40400  0.16200  1.0000 -0.470704037
C   C157      1.0  0.32800  0.07410  0.55660  1.0000 -0.4775814231
C   C158      1.0  0.67200  0.57410  0.94340  1.0000 -0.4775814231
C   C159      1.0  0.67200  0.92590  0.44340  1.0000 -0.4775814231
C   C160      1.0  0.32800  0.42590  0.05660  1.0000 -0.4775814231
C   C161      1.0  0.33300  0.75880  0.65280  1.0000 0.2704734439
C   C162      1.0  0.66700  0.25880  0.84720  1.0000 0.2704734439
C   C163      1.0  0.66700  0.24120  0.34720  1.0000 0.2704734439
C   C164      1.0  0.33300  0.74120  0.15280  1.0000 0.2704734439
C   C165      1.0  0.26940  0.81010  0.59590  1.0000 -0.4775814231
C   C166      1.0  0.73060  0.31010  0.90410  1.0000 -0.4775814231
C   C167      1.0  0.73060  0.18990  0.40410  1.0000 -0.4775814231
C   C168      1.0  0.26940  0.68990  0.09590  1.0000 -0.4775814231
C   C169      1.0  0.41160  0.77860  0.66090  1.0000 -0.4906170259
C   C170      1.0  0.58840  0.27860  0.83910  1.0000 -0.4906170259
C   C171      1.0  0.58840  0.22140  0.33910  1.0000 -0.4906170259
C   C172      1.0  0.41160  0.72140  0.16090  1.0000 -0.4906170259
C   C173      1.0  0.33450  0.78980  0.70670  1.0000 -0.470704037
C   C174      1.0  0.66550  0.28980  0.79330  1.0000 -0.470704037
C   C175      1.0  0.66550  0.21020  0.29330  1.0000 -0.470704037
C   C176      1.0  0.33450  0.71020  0.20670  1.0000 -0.470704037
C   C177      1.0  0.01950  0.19440  0.46010  1.0000 0.2333131764
C   C178      1.0  0.98050  0.69440  0.03990  1.0000 0.2333131764
C   C179      1.0  0.98050  0.80560  0.53990  1.0000 0.2333131764
C   C180      1.0  0.01950  0.30560  0.96010  1.0000 0.2333131764
C   C181      1.0  0.07490  0.14950  0.51830  1.0000 -0.4607246111
C   C182      1.0  0.92510  0.64950  0.98170  1.0000 -0.4607246111
C   C183      1.0  0.92510  0.85050  0.48170  1.0000 -0.4607246111
C   C184      1.0  0.07490  0.35050  0.01830  1.0000 -0.4607246111
C   C185      1.0  0.94290  0.19790  0.45390  1.0000 -0.4607246111
C   C186      1.0  0.05710  0.69790  0.04610  1.0000 -0.4607246111
C   C187      1.0  0.05710  0.80210  0.54610  1.0000 -0.4607246111
C   C188      1.0  0.94290  0.30210  0.95390  1.0000 -0.4607246111
C   C189      1.0  0.00940  0.13360  0.41080  1.0000 -0.4421314042
C   C190      1.0  0.99060  0.63360  0.08920  1.0000 -0.4421314042
C   C191      1.0  0.99060  0.86640  0.58920  1.0000 -0.4421314042
C   C192      1.0  0.00940  0.36640  0.91080  1.0000 -0.4421314042
C   C193      1.0  0.45190  0.14890  0.40060  1.0000 -0.0303759598
C   C194      1.0  0.54810  0.64890  0.09940  1.0000 -0.0303759598
C   C195      1.0  0.54810  0.85110  0.59940  1.0000 -0.0303759598
C   C196      1.0  0.45190  0.35110  0.90060  1.0000 -0.0303759598
C   C197      1.0  0.50520  0.10320  0.46130  1.0000 -0.2190014996
C   C198      1.0  0.49480  0.60320  0.03870  1.0000 -0.2190014996
C   C199      1.0  0.49480  0.89680  0.53870  1.0000 -0.2190014996
C   C200      1.0  0.50520  0.39680  0.96130  1.0000 -0.2190014996
C   C201      1.0  0.47080  0.02350  0.46890  1.0000 -0.1610801782
C   C202      1.0  0.52920  0.52350  0.03110  1.0000 -0.1610801782
C   C203      1.0  0.52920  0.97650  0.53110  1.0000 -0.1610801782
C   C204      1.0  0.47080  0.47650  0.96890  1.0000 -0.1610801782
S   S1        1.0  0.43388  0.36311  0.49846  1.0000 -0.0303759598
S   S2        1.0  0.56612  0.86311  0.00154  1.0000 -0.0303759598
S   S3        1.0  0.56612  0.63689  0.50154  1.0000 -0.0303759598
S   S4        1.0  0.43388  0.13689  0.99846  1.0000 -0.0303759598
S   S5        1.0  0.44702  0.43452  0.70793  1.0000 0.0044548859
S   S6        1.0  0.55298  0.93452  0.79207  1.0000 0.0060110043
S   S7        1.0  0.55298  0.56548  0.29207  1.0000 0.0044548859
S   S8        1.0  0.44702  0.06548  0.20793  1.0000 0.0044548859
S   S9        1.0  0.11879  0.50374  0.56914  1.0000 -0.0207972666
S   S10       1.0  0.88121  0.00374  0.93086  1.0000 -0.0207972666
S   S11       1.0  0.88121  0.49626  0.43086  1.0000 -0.0207972666
S   S12       1.0  0.11879  0.99626  0.06914  1.0000 -0.0207972666
S   S13       1.0  0.10445  0.41861  0.35652  1.0000 0.0234795098
S   S14       1.0  0.89555  0.91861  0.14348  1.0000 0.0234795098
S   S15       1.0  0.89555  0.58139  0.64348  1.0000 0.0234795098
S   S16       1.0  0.10445  0.08139  0.85652  1.0000 0.0263191235
N   N1        1.0  0.37790  0.18580  0.38940  1.0000 -0.539815497
N   N2        1.0  0.62210  0.68580  0.11060  1.0000 -0.539815497
N   N3        1.0  0.62210  0.81420  0.61060  1.0000 -0.539815497
N   N4        1.0  0.37790  0.31420  0.88940  1.0000 -0.539815497
O   O1        1.0  0.27350  0.30310  0.43250  1.0000 -0.1785065566
O   O2        1.0  0.72650  0.80310  0.06750  1.0000 -0.1785065566
O   O3        1.0  0.72650  0.69690  0.56750  1.0000 -0.1785065566
O   O4        1.0  0.27350  0.19690  0.93250  1.0000 -0.1785065566
O   O5        1.0  0.20770  0.29020  0.31000  1.0000 -0.553618532
O   O6        1.0  0.79230  0.79020  0.19000  1.0000 -0.553618532
O   O7        1.0  0.79230  0.70980  0.69000  1.0000 -0.553618532
O   O8        1.0  0.20770  0.20980  0.81000  1.0000 -0.553618532
O   O9        1.0  0.10830  0.21060  0.29370  1.0000 -0.519645613
O   O10       1.0  0.89170  0.71060  0.20630  1.0000 -0.519645613
O   O11       1.0  0.89170  0.78940  0.70630  1.0000 -0.519645613
O   O12       1.0  0.10830  0.28940  0.79370  1.0000 -0.519645613
O   O13       1.0  0.46510  0.47420  0.60490  1.0000 -0.1785065566
O   O14       1.0  0.53490  0.97420  0.89510  1.0000 -0.1785065566
O   O15       1.0  0.53490  0.52580  0.39510  1.0000 -0.1785065566
O   O16       1.0  0.46510  0.02580  0.10490  1.0000 -0.1785065566
O   O17       1.0  0.54070  0.63600  0.62720  1.0000 -0.4906170259
O   O18       1.0  0.45930  0.13600  0.87280  1.0000 -0.4906170259
O   O19       1.0  0.45930  0.36400  0.37280  1.0000 -0.4906170259
O   O20       1.0  0.54070  0.86400  0.12720  1.0000 -0.4906170259
O   O21       1.0  0.65660  0.57450  0.68760  1.0000 -0.5252561088
O   O22       1.0  0.34340  0.07450  0.81240  1.0000 -0.5252561088
O   O23       1.0  0.34340  0.42550  0.31240  1.0000 -0.5252561088
O   O24       1.0  0.65660  0.92550  0.18760  1.0000 -0.5252561088
O   O25       1.0  0.27690  0.38070  0.63060  1.0000 -0.1664236055
O   O26       1.0  0.72310  0.88070  0.86940  1.0000 -0.1610801782
O   O27       1.0  0.72310  0.61930  0.36940  1.0000 -0.1664236055
O   O28       1.0  0.27690  0.11930  0.13060  1.0000 -0.1664236055
O   O29       1.0  0.33830  0.30390  0.74530  1.0000 -0.5033280518
O   O30       1.0  0.66170  0.80390  0.75470  1.0000 -0.5033280518
O   O31       1.0  0.66170  0.69610  0.25470  1.0000 -0.5033280518
O   O32       1.0  0.33830  0.19610  0.24530  1.0000 -0.5033280518
O   O33       1.0  0.22420  0.23940  0.71060  1.0000 -0.5702202435
O   O34       1.0  0.77580  0.73940  0.78940  1.0000 -0.5702202435
O   O35       1.0  0.77580  0.76060  0.28940  1.0000 -0.5702202435
O   O36       1.0  0.22420  0.26060  0.21060  1.0000 -0.5702202435
O   O37       1.0  0.13480  0.54100  0.45910  1.0000 -0.1480384137
O   O38       1.0  0.86520  0.04100  0.04090  1.0000 -0.1480384137
O   O39       1.0  0.86520  0.45900  0.54090  1.0000 -0.1480384137
O   O40       1.0  0.13480  0.95900  0.95910  1.0000 -0.1480384137
O   O41       1.0  0.01920  0.62500  0.34670  1.0000 -0.470704037
O   O42       1.0  0.98080  0.12500  0.15330  1.0000 -0.4775814231
O   O43       1.0  0.98080  0.37500  0.65330  1.0000 -0.4775814231
O   O44       1.0  0.01920  0.87500  0.84670  1.0000 -0.470704037
O   O45       1.0  0.97640  0.69980  0.39210  1.0000 -0.5578277822
O   O46       1.0  0.02360  0.19980  0.10790  1.0000 -0.5578277822
O   O47       1.0  0.02360  0.30020  0.60790  1.0000 -0.5578277822
O   O48       1.0  0.97640  0.80020  0.89210  1.0000 -0.5578277822
