# DDEC6 charges by PACMAN v1.1 (https://github.com/mtap-research/PACMAN-charge/)
data_2011[ZnEu][nan]3[ASR]1
_chemical_formula_sum              "Eu4 Zn4 H20 C52 N8 O32"
_cell_length_a       10.1255
_cell_length_b       9.5868
_cell_length_c       20.4418
_cell_angle_alpha    90
_cell_angle_beta     105.693
_cell_angle_gamma    90

_symmetry_space_group_name_H-M    "P 1"
_symmetry_Int_Tables_number       1

loop_
  _symmetry_equiv_pos_as_xyz
  'x, y, z'

loop_
  _atom_site_type_symbol
  _atom_site_label
  _atom_site_symmetry_multiplicity
  _atom_site_fract_x
  _atom_site_fract_y
  _atom_site_fract_z
  _atom_site_occupancy
  _atom_site_charge
Eu  Eu1       1.0  0.97040  0.42941  0.20157  1.0000 2.1115199237
Eu  Eu2       1.0  0.02960  0.92941  0.29843  1.0000 2.1115199237
Eu  Eu3       1.0  0.02960  0.57059  0.79843  1.0000 2.1115199237
Eu  Eu4       1.0  0.97040  0.07059  0.70157  1.0000 2.1115199237
Zn  Zn1       1.0  0.63927  0.86129  0.33633  1.0000 0.7871206313
Zn  Zn2       1.0  0.36073  0.36129  0.16367  1.0000 0.7871206313
Zn  Zn3       1.0  0.36073  0.13871  0.66367  1.0000 0.7871206313
Zn  Zn4       1.0  0.63927  0.63871  0.83633  1.0000 0.7871206313
H   H1        1.0  0.79060  0.00780  0.84670  1.0000 0.1053994841
H   H2        1.0  0.20940  0.50780  0.65330  1.0000 0.1053994841
H   H3        1.0  0.20940  0.99220  0.15330  1.0000 0.1053994841
H   H4        1.0  0.79060  0.49220  0.34670  1.0000 0.1053994841
H   H5        1.0  0.76550  0.90250  0.94370  1.0000 0.1187584887
H   H6        1.0  0.23450  0.40250  0.55630  1.0000 0.1187584887
H   H7        1.0  0.23450  0.09750  0.05630  1.0000 0.1187584887
H   H8        1.0  0.76550  0.59750  0.44370  1.0000 0.1187584887
H   H9        1.0  0.82500  0.01960  0.04550  1.0000 0.1187584887
H   H10       1.0  0.17500  0.51960  0.45450  1.0000 0.1187584887
H   H11       1.0  0.17500  0.98040  0.95450  1.0000 0.1187584887
H   H12       1.0  0.82500  0.48040  0.54550  1.0000 0.1187584887
H   H13       1.0  0.93660  0.35160  0.95320  1.0000 0.1376306697
H   H14       1.0  0.06340  0.85160  0.54680  1.0000 0.1376306697
H   H15       1.0  0.06340  0.64840  0.04680  1.0000 0.1376306697
H   H16       1.0  0.93660  0.14840  0.45320  1.0000 0.1376306697
H   H17       1.0  0.38180  0.62570  0.27960  1.0000 0.1187584887
H   H18       1.0  0.61820  0.12570  0.22040  1.0000 0.1187584887
H   H19       1.0  0.61820  0.37430  0.72040  1.0000 0.1187584887
H   H20       1.0  0.38180  0.87430  0.77960  1.0000 0.1187584887
C   C1        1.0  0.86410  0.19070  0.88960  1.0000 -0.0414067095
C   C2        1.0  0.13590  0.69070  0.61040  1.0000 -0.0414067095
C   C3        1.0  0.13590  0.80930  0.11040  1.0000 -0.0414067095
C   C4        1.0  0.86410  0.30930  0.38960  1.0000 -0.0414067095
C   C5        1.0  0.81430  0.05610  0.88760  1.0000 -0.098564455
C   C6        1.0  0.18570  0.55610  0.61240  1.0000 -0.098564455
C   C7        1.0  0.18570  0.94390  0.11240  1.0000 -0.098564455
C   C8        1.0  0.81430  0.44390  0.38760  1.0000 -0.098564455
C   C9        1.0  0.79950  0.99290  0.94570  1.0000 -0.098564455
C   C10       1.0  0.20050  0.49290  0.55430  1.0000 -0.098564455
C   C11       1.0  0.20050  0.00710  0.05430  1.0000 -0.098564455
C   C12       1.0  0.79950  0.50710  0.44570  1.0000 -0.098564455
C   C13       1.0  0.83480  0.06300  0.00640  1.0000 -0.0899371893
C   C14       1.0  0.16520  0.56300  0.49360  1.0000 -0.0899371893
C   C15       1.0  0.16520  0.93700  0.99360  1.0000 -0.0899371893
C   C16       1.0  0.83480  0.43700  0.50640  1.0000 -0.0899371893
C   C17       1.0  0.88500  0.19790  0.00988  1.0000 -0.0262787525
C   C18       1.0  0.11500  0.69790  0.49012  1.0000 -0.0262787525
C   C19       1.0  0.11500  0.80210  0.99012  1.0000 -0.0262787525
C   C20       1.0  0.88500  0.30210  0.50988  1.0000 -0.0262787525
C   C21       1.0  0.90110  0.26170  0.95112  1.0000 -0.0899371893
C   C22       1.0  0.09890  0.76170  0.54888  1.0000 -0.0899371893
C   C23       1.0  0.09890  0.73830  0.04888  1.0000 -0.0899371893
C   C24       1.0  0.90110  0.23830  0.45112  1.0000 -0.0899371893
C   C25       1.0  0.92130  0.27470  0.07589  1.0000 0.5670515209
C   C26       1.0  0.07870  0.77470  0.42411  1.0000 0.5670515209
C   C27       1.0  0.07870  0.72530  0.92411  1.0000 0.5670515209
C   C28       1.0  0.92130  0.22530  0.57589  1.0000 0.5670515209
C   C29       1.0  0.87940  0.25880  0.82556  1.0000 0.6522312074
C   C30       1.0  0.12060  0.75880  0.67444  1.0000 0.6522312074
C   C31       1.0  0.12060  0.74120  0.17444  1.0000 0.6522312074
C   C32       1.0  0.87940  0.24120  0.32556  1.0000 0.6522312074
C   C33       1.0  0.79630  0.70230  0.26105  1.0000 0.6020382552
C   C34       1.0  0.20370  0.20230  0.23895  1.0000 0.6020382552
C   C35       1.0  0.20370  0.29770  0.73895  1.0000 0.6020382552
C   C36       1.0  0.79630  0.79770  0.76105  1.0000 0.6020382552
C   C37       1.0  0.65920  0.63900  0.24744  1.0000 -0.0087428813
C   C38       1.0  0.34080  0.13900  0.25256  1.0000 -0.0087428813
C   C39       1.0  0.34080  0.36100  0.75256  1.0000 -0.0087428813
C   C40       1.0  0.65920  0.86100  0.74744  1.0000 -0.0087428813
C   C41       1.0  0.59120  0.53650  0.20390  1.0000 -0.0087428813
C   C42       1.0  0.40880  0.03650  0.29610  1.0000 -0.0087428813
C   C43       1.0  0.40880  0.46350  0.79610  1.0000 -0.0087428813
C   C44       1.0  0.59120  0.96350  0.70390  1.0000 -0.0087428813
C   C45       1.0  0.62530  0.44900  0.15121  1.0000 0.6020382552
C   C46       1.0  0.37470  0.94900  0.34879  1.0000 0.6020382552
C   C47       1.0  0.37470  0.55100  0.84879  1.0000 0.6020382552
C   C48       1.0  0.62530  0.05100  0.65121  1.0000 0.6020382552
C   C49       1.0  0.45770  0.61390  0.26270  1.0000 0.2001358926
C   C50       1.0  0.54230  0.11390  0.23730  1.0000 0.2001358926
C   C51       1.0  0.54230  0.38610  0.73730  1.0000 0.2001358926
C   C52       1.0  0.45770  0.88610  0.76270  1.0000 0.2001358926
N   N1        1.0  0.57360  0.68700  0.28420  1.0000 -0.3197959417
N   N2        1.0  0.42640  0.18700  0.21580  1.0000 -0.3197959417
N   N3        1.0  0.42640  0.31300  0.71580  1.0000 -0.3197959417
N   N4        1.0  0.57360  0.81300  0.78420  1.0000 -0.3197959417
N   N5        1.0  0.46280  0.52160  0.21432  1.0000 -0.3197959417
N   N6        1.0  0.53720  0.02160  0.28568  1.0000 -0.3197959417
N   N7        1.0  0.53720  0.47840  0.78568  1.0000 -0.3197959417
N   N8        1.0  0.46280  0.97840  0.71432  1.0000 -0.3197959417
O   O1        1.0  0.90020  0.21960  0.12807  1.0000 -0.6213201598
O   O2        1.0  0.09980  0.71960  0.37193  1.0000 -0.6213201598
O   O3        1.0  0.09980  0.78040  0.87193  1.0000 -0.6213201598
O   O4        1.0  0.90020  0.28040  0.62807  1.0000 -0.6213201598
O   O5        1.0  0.96980  0.39720  0.07913  1.0000 -0.6213201598
O   O6        1.0  0.03020  0.89720  0.42087  1.0000 -0.6213201598
O   O7        1.0  0.03020  0.60280  0.92087  1.0000 -0.6213201598
O   O8        1.0  0.96980  0.10280  0.57913  1.0000 -0.6213201598
O   O9        1.0  0.90740  0.38630  0.82827  1.0000 -0.6615451367
O   O10       1.0  0.09260  0.88630  0.67173  1.0000 -0.6615451367
O   O11       1.0  0.09260  0.61370  0.17173  1.0000 -0.6615451367
O   O12       1.0  0.90740  0.11370  0.32827  1.0000 -0.6615451367
O   O13       1.0  0.85950  0.18560  0.77263  1.0000 -0.6966685147
O   O14       1.0  0.14050  0.68560  0.72737  1.0000 -0.6966685147
O   O15       1.0  0.14050  0.81440  0.22737  1.0000 -0.6966685147
O   O16       1.0  0.85950  0.31440  0.27263  1.0000 -0.6966685147
O   O17       1.0  0.89070  0.65190  0.24083  1.0000 -0.6372975649
O   O18       1.0  0.10930  0.15190  0.25917  1.0000 -0.6372975649
O   O19       1.0  0.10930  0.34810  0.75917  1.0000 -0.6372975649
O   O20       1.0  0.89070  0.84810  0.74083  1.0000 -0.6372975649
O   O21       1.0  0.81140  0.81420  0.29655  1.0000 -0.6313762308
O   O22       1.0  0.18860  0.31420  0.20345  1.0000 -0.6313762308
O   O23       1.0  0.18860  0.18580  0.70345  1.0000 -0.6313762308
O   O24       1.0  0.81140  0.68580  0.79655  1.0000 -0.6313762308
O   O25       1.0  0.73880  0.46800  0.13771  1.0000 -0.6372975649
O   O26       1.0  0.26120  0.96800  0.36229  1.0000 -0.6372975649
O   O27       1.0  0.26120  0.53200  0.86229  1.0000 -0.6372975649
O   O28       1.0  0.73880  0.03200  0.63771  1.0000 -0.6372975649
O   O29       1.0  0.53730  0.36200  0.12200  1.0000 -0.5128495783
O   O30       1.0  0.46270  0.86200  0.37800  1.0000 -0.5128495783
O   O31       1.0  0.46270  0.63800  0.87800  1.0000 -0.5128495783
O   O32       1.0  0.53730  0.13800  0.62200  1.0000 -0.5128495783
