# DDEC6 charges by PACMAN v1.1 (https://github.com/mtap-research/PACMAN-charge/)
data_2011[Sc][nan]3[ASR]4
_chemical_formula_sum              "Sc4 H24 C48 O24"
_cell_length_a       8.7547
_cell_length_b       11.1697
_cell_length_c       17.7359
_cell_angle_alpha    95.2468
_cell_angle_beta     104.289
_cell_angle_gamma    68.2525

_symmetry_space_group_name_H-M    "P 1"
_symmetry_Int_Tables_number       1

loop_
  _symmetry_equiv_pos_as_xyz
  'x, y, z'

loop_
  _atom_site_type_symbol
  _atom_site_label
  _atom_site_symmetry_multiplicity
  _atom_site_fract_x
  _atom_site_fract_y
  _atom_site_fract_z
  _atom_site_occupancy
  _atom_site_charge
Sc  Sc1       1.0  0.36556  0.25000  0.73112  1.0000 1.8412422102
Sc  Sc2       1.0  0.63444  0.75000  0.26888  1.0000 1.8412422102
Sc  Sc3       1.0  0.88669  0.25000  0.77338  1.0000 1.8346376579
Sc  Sc4       1.0  0.11331  0.75000  0.22662  1.0000 1.8412422102
H   H1        1.0  0.18046  0.64039  0.74234  1.0000 0.1111477723
H   H2        1.0  0.69974  0.61605  0.75614  1.0000 0.1111477723
H   H3        1.0  0.60369  0.08690  0.90378  1.0000 0.1013177011
H   H4        1.0  0.18563  0.06413  0.98671  1.0000 0.1111477723
H   H5        1.0  0.26527  0.42888  0.51397  1.0000 0.1111477723
H   H6        1.0  0.77220  0.44160  0.60414  1.0000 0.1013177011
H   H7        1.0  0.56189  0.85961  0.74234  1.0000 0.1111477723
H   H8        1.0  0.05679  0.88364  0.75614  1.0000 0.1111477723
H   H9        1.0  0.30009  0.41310  0.90378  1.0000 0.1013177011
H   H10       1.0  0.80108  0.43587  0.98671  1.0000 0.1111477723
H   H11       1.0  0.24869  0.07112  0.51397  1.0000 0.1111477723
H   H12       1.0  0.83194  0.05840  0.60414  1.0000 0.1013177011
H   H13       1.0  0.81954  0.35961  0.25766  1.0000 0.1111477723
H   H14       1.0  0.30026  0.38395  0.24386  1.0000 0.1111477723
H   H15       1.0  0.39631  0.91310  0.09622  1.0000 0.1013177011
H   H16       1.0  0.81411  0.93637  0.01272  1.0000 0.1111477723
H   H17       1.0  0.73515  0.57088  0.48635  1.0000 0.1111477723
H   H18       1.0  0.22780  0.55840  0.39586  1.0000 0.1013177011
H   H19       1.0  0.43811  0.14039  0.25766  1.0000 0.1111477723
H   H20       1.0  0.94359  0.11605  0.24386  1.0000 0.1111477723
H   H21       1.0  0.70103  0.58640  0.09582  1.0000 0.1013177011
H   H22       1.0  0.19892  0.56413  0.01329  1.0000 0.1111477723
H   H23       1.0  0.75131  0.92888  0.48603  1.0000 0.1111477723
H   H24       1.0  0.16847  0.94182  0.39603  1.0000 0.1013177011
C   C1        1.0  0.02440  0.47652  0.75260  1.0000 0.6588787448
C   C2        1.0  0.94920  0.61631  0.75360  1.0000 -0.0633288555
C   C3        1.0  0.04500  0.68980  0.74920  1.0000 -0.0695363037
C   C4        1.0  0.77840  0.67640  0.75320  1.0000 -0.0695363037
C   C5        1.0  0.25919  0.14010  0.87058  1.0000 0.6537304681
C   C6        1.0  0.38785  0.06310  0.93370  1.0000 -0.0695363037
C   C7        1.0  0.55848  0.04310  0.94556  1.0000 -0.0695363037
C   C8        1.0  0.32750  0.03050  0.99140  1.0000 -0.0695363037
C   C9        1.0  0.54437  0.35980  0.63394  1.0000 0.6588787448
C   C10       1.0  0.51688  0.43550  0.56636  1.0000 -0.0695363037
C   C11       1.0  0.36977  0.46250  0.50794  1.0000 -0.0695363037
C   C12       1.0  0.64901  0.46950  0.55762  1.0000 -0.0695363037
C   C13       1.0  0.72820  0.02348  0.75260  1.0000 0.6588787448
C   C14       1.0  0.80440  0.88369  0.75360  1.0000 -0.0633288555
C   C15       1.0  0.70420  0.81020  0.74920  1.0000 -0.0695363037
C   C16       1.0  0.97480  0.82360  0.75320  1.0000 -0.0695363037
C   C17       1.0  0.61139  0.35990  0.87058  1.0000 0.6537304681
C   C18       1.0  0.54585  0.43690  0.93370  1.0000 -0.0695363037
C   C19       1.0  0.38708  0.45690  0.94556  1.0000 -0.0695363037
C   C20       1.0  0.66390  0.46950  0.99140  1.0000 -0.0695363037
C   C21       1.0  0.08957  0.14020  0.63394  1.0000 0.6588787448
C   C22       1.0  0.04948  0.06450  0.56636  1.0000 -0.0695363037
C   C23       1.0  0.13817  0.03750  0.50794  1.0000 -0.0695363037
C   C24       1.0  0.90861  0.03050  0.55762  1.0000 -0.0695363037
C   C25       1.0  0.97560  0.52348  0.24740  1.0000 0.6588787448
C   C26       1.0  0.05080  0.38369  0.24640  1.0000 -0.0633288555
C   C27       1.0  0.95500  0.31020  0.25080  1.0000 -0.0695363037
C   C28       1.0  0.22160  0.32360  0.24680  1.0000 -0.0695363037
C   C29       1.0  0.74081  0.85990  0.12942  1.0000 0.6537304681
C   C30       1.0  0.61215  0.93690  0.06630  1.0000 -0.0695363037
C   C31       1.0  0.44152  0.95690  0.05444  1.0000 -0.0695363037
C   C32       1.0  0.67250  0.96950  0.00860  1.0000 -0.0695363037
C   C33       1.0  0.45563  0.64020  0.36606  1.0000 0.6588787448
C   C34       1.0  0.48312  0.56450  0.43364  1.0000 -0.0695363037
C   C35       1.0  0.63023  0.53750  0.49206  1.0000 -0.0695363037
C   C36       1.0  0.35099  0.53050  0.44238  1.0000 -0.0695363037
C   C37       1.0  0.27180  0.97652  0.24740  1.0000 0.6588787448
C   C38       1.0  0.19560  0.11631  0.24640  1.0000 -0.0633288555
C   C39       1.0  0.29580  0.18980  0.25080  1.0000 -0.0695363037
C   C40       1.0  0.02520  0.17640  0.24680  1.0000 -0.0695363037
C   C41       1.0  0.38861  0.64010  0.12942  1.0000 0.6537304681
C   C42       1.0  0.45415  0.56310  0.06630  1.0000 -0.0695363037
C   C43       1.0  0.61292  0.54310  0.05444  1.0000 -0.0695363037
C   C44       1.0  0.33610  0.53050  0.00860  1.0000 -0.0695363037
C   C45       1.0  0.91043  0.85980  0.36606  1.0000 0.6588787448
C   C46       1.0  0.95052  0.93550  0.43364  1.0000 -0.0695363037
C   C47       1.0  0.86183  0.96250  0.49206  1.0000 -0.0695363037
C   C48       1.0  0.09139  0.96950  0.44238  1.0000 -0.0695363037
O   O1        1.0  0.16246  0.42230  0.73052  1.0000 -0.6474613735
O   O2        1.0  0.95000  0.41080  0.77360  1.0000 -0.6474613735
O   O3        1.0  0.30931  0.17630  0.81902  1.0000 -0.6474613735
O   O4        1.0  0.10228  0.16450  0.86136  1.0000 -0.6113764036
O   O5        1.0  0.42854  0.32380  0.64348  1.0000 -0.6271455575
O   O6        1.0  0.67787  0.34370  0.68694  1.0000 -0.6577801545
O   O7        1.0  0.56806  0.07770  0.73052  1.0000 -0.6474613735
O   O8        1.0  0.82360  0.08920  0.77360  1.0000 -0.6474613735
O   O9        1.0  0.50971  0.32370  0.81902  1.0000 -0.6474613735
O   O10       1.0  0.75908  0.33550  0.86136  1.0000 -0.6113764036
O   O11       1.0  0.21494  0.17620  0.64348  1.0000 -0.6271455575
O   O12       1.0  0.00907  0.15630  0.68694  1.0000 -0.6577801545
O   O13       1.0  0.83754  0.57770  0.26948  1.0000 -0.6474613735
O   O14       1.0  0.05000  0.58920  0.22640  1.0000 -0.6474613735
O   O15       1.0  0.69069  0.82370  0.18098  1.0000 -0.6474613735
O   O16       1.0  0.89772  0.83550  0.13864  1.0000 -0.6113764036
O   O17       1.0  0.57146  0.67620  0.35652  1.0000 -0.6271455575
O   O18       1.0  0.32213  0.65630  0.31306  1.0000 -0.6577801545
O   O19       1.0  0.43194  0.92230  0.26948  1.0000 -0.6474613735
O   O20       1.0  0.17640  0.91080  0.22640  1.0000 -0.6474613735
O   O21       1.0  0.49029  0.67630  0.18098  1.0000 -0.6474613735
O   O22       1.0  0.24092  0.66450  0.13864  1.0000 -0.6113764036
O   O23       1.0  0.78506  0.82380  0.35652  1.0000 -0.6271455575
O   O24       1.0  0.99093  0.84370  0.31306  1.0000 -0.6577801545
