# DDEC6 charges by PACMAN v1.1 (https://github.com/mtap-research/PACMAN-charge/)
data_2011[Dy][mog]3[ASR]1
_chemical_formula_sum              "Dy2 H4 C14 N4 O12"
_cell_length_a       6.0535
_cell_length_b       9.9159
_cell_length_c       13.2903
_cell_angle_alpha    68.832
_cell_angle_beta     81.273
_cell_angle_gamma    76.875

_symmetry_space_group_name_H-M    "P 1"
_symmetry_Int_Tables_number       1

loop_
  _symmetry_equiv_pos_as_xyz
  'x, y, z'

loop_
  _atom_site_type_symbol
  _atom_site_label
  _atom_site_symmetry_multiplicity
  _atom_site_fract_x
  _atom_site_fract_y
  _atom_site_fract_z
  _atom_site_occupancy
  _atom_site_charge
Dy  Dy1       1.0  0.16536  0.38618  0.80489  1.0000 1.9019117231
Dy  Dy2       1.0  0.83464  0.61382  0.19511  1.0000 1.9019117231
H   H1        1.0  0.67340  0.95240  0.97080  1.0000 0.1331903264
H   H2        1.0  0.32660  0.04760  0.02920  1.0000 0.1331903264
H   H3        1.0  0.29450  0.67860  0.37140  1.0000 0.1331903264
H   H4        1.0  0.70550  0.32140  0.62860  1.0000 0.1358021374
C   C1        1.0  0.71060  0.23530  0.85830  1.0000 0.5990515823
C   C2        1.0  0.28940  0.76470  0.14170  1.0000 0.5990515823
C   C3        1.0  0.86340  0.10710  0.93040  1.0000 0.039914007
C   C4        1.0  0.13660  0.89290  0.06960  1.0000 0.039914007
C   C5        1.0  0.80840  0.97040  0.98420  1.0000 0.0796014207
C   C6        1.0  0.19160  0.02960  0.01580  1.0000 0.0796014207
C   C7        1.0  0.04920  0.61830  0.56130  1.0000 0.570503431
C   C8        1.0  0.95080  0.38170  0.43870  1.0000 0.570503431
C   C9        1.0  0.28920  0.55520  0.52810  1.0000 0.0796014207
C   C10       1.0  0.71080  0.44480  0.47190  1.0000 0.0796014207
C   C11       1.0  0.38180  0.60400  0.42310  1.0000 0.070219482
C   C12       1.0  0.61820  0.39600  0.57690  1.0000 0.070219482
C   C13       1.0  0.91080  0.56100  0.96570  1.0000 0.5146035428
C   C14       1.0  0.08920  0.43900  0.03430  1.0000 0.5151756878
N   N1        1.0  0.06110  0.13610  0.94610  1.0000 -0.2881633615
N   N2        1.0  0.93890  0.86390  0.05390  1.0000 -0.2881633615
N   N3        1.0  0.40700  0.45210  0.60700  1.0000 -0.305817393
N   N4        1.0  0.59300  0.54790  0.39300  1.0000 -0.305817393
O   O1        1.0  0.78380  0.35310  0.81600  1.0000 -0.6098483727
O   O2        1.0  0.21620  0.64690  0.18400  1.0000 -0.6043866997
O   O3        1.0  0.51660  0.21890  0.84750  1.0000 -0.6405711298
O   O4        1.0  0.48340  0.78110  0.15250  1.0000 -0.6405711298
O   O5        1.0  0.98440  0.56750  0.65940  1.0000 -0.6098483727
O   O6        1.0  0.01560  0.43250  0.34060  1.0000 -0.6098483727
O   O7        1.0  0.92820  0.71060  0.49070  1.0000 -0.5090434675
O   O8        1.0  0.07180  0.28940  0.50930  1.0000 -0.5090434675
O   O9        1.0  0.91570  0.57070  0.86920  1.0000 -0.5584312802
O   O10       1.0  0.08430  0.42930  0.13080  1.0000 -0.5584312802
O   O11       1.0  0.77430  0.63880  0.01320  1.0000 -0.6043866997
O   O12       1.0  0.22570  0.36120  0.98680  1.0000 -0.6043866997
