# DDEC6 charges by PACMAN v1.1 (https://github.com/mtap-research/PACMAN-charge/)
data_2011[Nd][flu]3[ASR]2
_chemical_formula_sum              "Nd2 H16 C30 N2 O14"
_cell_length_a       9.5211
_cell_length_b       9.9835
_cell_length_c       11.4843
_cell_angle_alpha    96.342
_cell_angle_beta     97.063
_cell_angle_gamma    111.763

_symmetry_space_group_name_H-M    "P 1"
_symmetry_Int_Tables_number       1

loop_
  _symmetry_equiv_pos_as_xyz
  'x, y, z'

loop_
  _atom_site_type_symbol
  _atom_site_label
  _atom_site_symmetry_multiplicity
  _atom_site_fract_x
  _atom_site_fract_y
  _atom_site_fract_z
  _atom_site_occupancy
  _atom_site_charge
Nd  Nd1       1.0  0.28629  0.04512  0.99079  1.0000 2.0937848262
Nd  Nd2       1.0  0.71371  0.95488  0.00921  1.0000 2.0937848262
H   H1        1.0  0.68090  0.50390  0.97130  1.0000 0.1395360998
H   H2        1.0  0.31910  0.49610  0.02870  1.0000 0.1395360998
H   H3        1.0  0.80570  0.20670  0.78660  1.0000 0.1395360998
H   H4        1.0  0.19430  0.79330  0.21340  1.0000 0.1395360998
H   H5        1.0  0.07960  0.63780  0.84290  1.0000 0.1395360998
H   H6        1.0  0.92040  0.36220  0.15710  1.0000 0.1395360998
H   H7        1.0  0.82880  0.40870  0.58050  1.0000 0.1274810344
H   H8        1.0  0.17120  0.59130  0.41950  1.0000 0.1274810344
H   H9        1.0  0.74310  0.29310  0.38140  1.0000 0.1191022567
H   H10       1.0  0.25690  0.70690  0.61860  1.0000 0.1191022567
H   H11       1.0  0.05330  0.10510  0.41380  1.0000 0.1274810344
H   H12       1.0  0.94670  0.89490  0.58620  1.0000 0.1274810344
H   H13       1.0  0.16780  0.15270  0.68150  1.0000 0.302455949
H   H14       1.0  0.83220  0.84730  0.31850  1.0000 0.302455949
H   H15       1.0  0.26210  0.30380  0.68460  1.0000 0.302455949
H   H16       1.0  0.73790  0.69620  0.31540  1.0000 0.302455949
C   C1        1.0  0.92240  0.74760  0.97470  1.0000 0.6491558723
C   C2        1.0  0.07760  0.25240  0.02530  1.0000 0.6491558723
C   C3        1.0  0.88830  0.59280  0.91830  1.0000 -0.0152411667
C   C4        1.0  0.11170  0.40720  0.08170  1.0000 -0.013635398
C   C5        1.0  0.75240  0.48160  0.93020  1.0000 -0.1291647271
C   C6        1.0  0.24760  0.51840  0.06980  1.0000 -0.1291647271
C   C7        1.0  0.72180  0.33700  0.88150  1.0000 0.0028379679
C   C8        1.0  0.27820  0.66300  0.11850  1.0000 0.0028379679
C   C9        1.0  0.57760  0.21730  0.89880  1.0000 0.6170202665
C   C10       1.0  0.42240  0.78270  0.10120  1.0000 0.6170202665
C   C11       1.0  0.82380  0.30500  0.81760  1.0000 -0.2180530929
C   C12       1.0  0.17620  0.69500  0.18240  1.0000 -0.2180530929
C   C13       1.0  0.95160  0.41900  0.80010  1.0000 0.2371604018
C   C14       1.0  0.04840  0.58100  0.19990  1.0000 0.2371604018
C   C15       1.0  0.98760  0.56180  0.85230  1.0000 -0.188297657
C   C16       1.0  0.01240  0.43820  0.14770  1.0000 -0.188297657
C   C17       1.0  0.99260  0.32410  0.61450  1.0000 0.1564717166
C   C18       1.0  0.00740  0.67590  0.38550  1.0000 0.1564717166
C   C19       1.0  0.87410  0.34700  0.54660  1.0000 -0.2270307966
C   C20       1.0  0.12590  0.65300  0.45340  1.0000 -0.2270307966
C   C21       1.0  0.82350  0.27800  0.42860  1.0000 -0.099605912
C   C22       1.0  0.17650  0.72200  0.57140  1.0000 -0.099605912
C   C23       1.0  0.88890  0.18730  0.37890  1.0000 -0.0402601712
C   C24       1.0  0.11110  0.81270  0.62110  1.0000 -0.0402601712
C   C25       1.0  0.82820  0.10580  0.25540  1.0000 0.5574060849
C   C26       1.0  0.17180  0.89420  0.74460  1.0000 0.5574060849
C   C27       1.0  0.00820  0.16680  0.44780  1.0000 -0.1964196616
C   C28       1.0  0.99180  0.83320  0.55220  1.0000 -0.1964196616
C   C29       1.0  0.06170  0.23580  0.56570  1.0000 0.1656332783
C   C30       1.0  0.93830  0.76420  0.43430  1.0000 0.1656332783
N   N1        1.0  0.18830  0.22400  0.63530  1.0000 -0.5841718443
N   N2        1.0  0.81170  0.77600  0.36470  1.0000 -0.5841718443
O   O1        1.0  0.45540  0.23910  0.88960  1.0000 -0.6069673427
O   O2        1.0  0.54460  0.76090  0.11040  1.0000 -0.6069673427
O   O3        1.0  0.88040  0.01270  0.21500  1.0000 -0.6330595442
O   O4        1.0  0.11960  0.98730  0.78500  1.0000 -0.6330595442
O   O5        1.0  0.81480  0.77230  0.01230  1.0000 -0.6689339706
O   O6        1.0  0.18520  0.22770  0.98770  1.0000 -0.6689339706
O   O7        1.0  0.05440  0.84120  0.98120  1.0000 -0.6689339706
O   O8        1.0  0.94560  0.15880  0.01880  1.0000 -0.6689339706
O   O9        1.0  0.58350  0.09770  0.92320  1.0000 -0.7445747681
O   O10       1.0  0.41650  0.90230  0.07680  1.0000 -0.7445747681
O   O11       1.0  0.05330  0.39030  0.73210  1.0000 -0.2180530929
O   O12       1.0  0.94670  0.60970  0.26790  1.0000 -0.2180530929
O   O13       1.0  0.72260  0.12630  0.19030  1.0000 -0.6390901037
O   O14       1.0  0.27740  0.87370  0.80970  1.0000 -0.6390901037
