# DDEC6 charges by PACMAN v1.1 (https://github.com/mtap-research/PACMAN-charge/)
data_2012[Co][pcu]3[ASR]10
_chemical_formula_sum              "Co4 H52 C60 N8 O16"
_cell_length_a       8.3852
_cell_length_b       14.711
_cell_length_c       15.771
_cell_angle_alpha    90
_cell_angle_beta     102.485
_cell_angle_gamma    90

_symmetry_space_group_name_H-M    "P 1"
_symmetry_Int_Tables_number       1

loop_
  _symmetry_equiv_pos_as_xyz
  'x, y, z'

loop_
  _atom_site_type_symbol
  _atom_site_label
  _atom_site_symmetry_multiplicity
  _atom_site_fract_x
  _atom_site_fract_y
  _atom_site_fract_z
  _atom_site_occupancy
  _atom_site_charge
Co  Co1       1.0  0.16833  0.91724  0.61030  1.0000 0.8515712176
Co  Co2       1.0  0.33167  0.41724  0.38970  1.0000 0.8515712176
Co  Co3       1.0  0.83167  0.08276  0.38970  1.0000 0.8515712176
Co  Co4       1.0  0.66833  0.58276  0.61030  1.0000 0.8515712176
H   H1        1.0  0.39830  0.69880  0.35630  1.0000 0.1214763582
H   H2        1.0  0.10170  0.19880  0.64370  1.0000 0.1214763582
H   H3        1.0  0.60170  0.30120  0.64370  1.0000 0.1214763582
H   H4        1.0  0.89830  0.80120  0.35630  1.0000 0.1214763582
H   H5        1.0  0.28390  0.94420  0.43120  1.0000 0.1258997772
H   H6        1.0  0.21610  0.44420  0.56880  1.0000 0.1258997772
H   H7        1.0  0.71610  0.05580  0.56880  1.0000 0.1258997772
H   H8        1.0  0.78390  0.55580  0.43120  1.0000 0.1258997772
H   H9        1.0  0.34720  0.93220  0.29370  1.0000 0.1034348425
H   H10       1.0  0.15280  0.43220  0.70630  1.0000 0.1034348425
H   H11       1.0  0.65280  0.06780  0.70630  1.0000 0.1034348425
H   H12       1.0  0.84720  0.56780  0.29370  1.0000 0.1034348425
H   H13       1.0  0.51750  0.88470  0.32000  1.0000 0.1094490152
H   H14       1.0  0.98250  0.38470  0.68000  1.0000 0.1094490152
H   H15       1.0  0.48250  0.11530  0.68000  1.0000 0.1094490152
H   H16       1.0  0.01750  0.61530  0.32000  1.0000 0.1094490152
H   H17       1.0  0.43370  0.76930  0.22790  1.0000 0.1094490152
H   H18       1.0  0.06630  0.26930  0.77210  1.0000 0.1094490152
H   H19       1.0  0.56630  0.23070  0.77210  1.0000 0.1094490152
H   H20       1.0  0.93370  0.73070  0.22790  1.0000 0.1094490152
H   H21       1.0  0.38980  0.86030  0.17640  1.0000 0.1094490152
H   H22       1.0  0.11020  0.36030  0.82360  1.0000 0.1094490152
H   H23       1.0  0.61020  0.13970  0.82360  1.0000 0.1094490152
H   H24       1.0  0.88980  0.63970  0.17640  1.0000 0.1094490152
H   H25       1.0  0.25350  0.80530  0.20820  1.0000 0.1094490152
H   H26       1.0  0.24650  0.30530  0.79180  1.0000 0.1094490152
H   H27       1.0  0.74650  0.19470  0.79180  1.0000 0.1094490152
H   H28       1.0  0.75350  0.69470  0.20820  1.0000 0.1094490152
H   H29       1.0  0.89200  0.89810  0.70480  1.0000 0.1214763582
H   H30       1.0  0.60800  0.39810  0.29520  1.0000 0.1214763582
H   H31       1.0  0.10800  0.10190  0.29520  1.0000 0.1214763582
H   H32       1.0  0.39200  0.60190  0.70480  1.0000 0.1214763582
H   H33       1.0  0.81610  0.93470  0.83110  1.0000 0.1404500757
H   H34       1.0  0.68390  0.43470  0.16890  1.0000 0.1404500757
H   H35       1.0  0.18390  0.06530  0.16890  1.0000 0.1404500757
H   H36       1.0  0.31610  0.56530  0.83110  1.0000 0.1404500757
H   H37       1.0  0.21150  0.08930  0.89420  1.0000 0.1404500757
H   H38       1.0  0.28850  0.58930  0.10580  1.0000 0.1404500757
H   H39       1.0  0.78850  0.91070  0.10580  1.0000 0.1404500757
H   H40       1.0  0.71150  0.41070  0.89420  1.0000 0.1404500757
H   H41       1.0  0.28080  0.04640  0.76760  1.0000 0.1094490152
H   H42       1.0  0.21920  0.54640  0.23240  1.0000 0.1094490152
H   H43       1.0  0.71920  0.95360  0.23240  1.0000 0.1094490152
H   H44       1.0  0.78080  0.45360  0.76760  1.0000 0.1094490152
H   H45       1.0  0.84700  0.03540  0.95810  1.0000 0.1214763582
H   H46       1.0  0.65300  0.53540  0.04190  1.0000 0.1214763582
H   H47       1.0  0.15300  0.96460  0.04190  1.0000 0.1214763582
H   H48       1.0  0.34700  0.46460  0.95810  1.0000 0.1214763582
H   H49       1.0  0.00590  0.09430  0.98500  1.0000 0.1214763582
H   H50       1.0  0.49410  0.59430  0.01500  1.0000 0.1214763582
H   H51       1.0  0.99410  0.90570  0.01500  1.0000 0.1214763582
H   H52       1.0  0.50590  0.40570  0.98500  1.0000 0.1214763582
C   C1        1.0  0.24580  0.75524  0.51901  1.0000 0.0705631547
C   C2        1.0  0.25420  0.25524  0.48099  1.0000 0.0705631547
C   C3        1.0  0.75420  0.24476  0.48099  1.0000 0.0705631547
C   C4        1.0  0.74580  0.74476  0.51901  1.0000 0.0705631547
C   C5        1.0  0.31000  0.69779  0.46483  1.0000 -0.0565426196
C   C6        1.0  0.19000  0.19779  0.53517  1.0000 -0.0565426196
C   C7        1.0  0.69000  0.30221  0.53517  1.0000 -0.0565426196
C   C8        1.0  0.81000  0.80221  0.46483  1.0000 -0.0565426196
C   C9        1.0  0.35840  0.73612  0.39454  1.0000 -0.137899905
C   C10       1.0  0.14160  0.23612  0.60546  1.0000 -0.137899905
C   C11       1.0  0.64160  0.26388  0.60546  1.0000 -0.137899905
C   C12       1.0  0.85840  0.76388  0.39454  1.0000 -0.137899905
C   C13       1.0  0.34870  0.82889  0.37958  1.0000 0.0911355805
C   C14       1.0  0.15130  0.32889  0.62042  1.0000 0.0911355805
C   C15       1.0  0.65130  0.17111  0.62042  1.0000 0.0911355805
C   C16       1.0  0.84870  0.67111  0.37958  1.0000 0.0911355805
C   C17       1.0  0.28920  0.88147  0.43891  1.0000 0.0420974981
C   C18       1.0  0.21080  0.38147  0.56109  1.0000 0.0420974981
C   C19       1.0  0.71080  0.11853  0.56109  1.0000 0.0420974981
C   C20       1.0  0.78920  0.61853  0.43891  1.0000 0.0420974981
C   C21       1.0  0.16880  0.72203  0.59166  1.0000 0.5294953887
C   C22       1.0  0.33120  0.22203  0.40834  1.0000 0.5294953887
C   C23       1.0  0.83120  0.27797  0.40834  1.0000 0.5294953887
C   C24       1.0  0.66880  0.77797  0.59166  1.0000 0.5294953887
C   C25       1.0  0.33620  0.59681  0.47953  1.0000 0.5991890733
C   C26       1.0  0.16380  0.09681  0.52047  1.0000 0.5991890733
C   C27       1.0  0.66380  0.40319  0.52047  1.0000 0.5991890733
C   C28       1.0  0.83620  0.90319  0.47953  1.0000 0.5991890733
C   C29       1.0  0.40090  0.87350  0.30383  1.0000 -0.1740721311
C   C30       1.0  0.09910  0.37350  0.69617  1.0000 -0.1740721311
C   C31       1.0  0.59910  0.12650  0.69617  1.0000 -0.1740721311
C   C32       1.0  0.90090  0.62650  0.30383  1.0000 -0.1740721311
C   C33       1.0  0.36650  0.82270  0.22210  1.0000 -0.3761671256
C   C34       1.0  0.13350  0.32270  0.77790  1.0000 -0.3761671256
C   C35       1.0  0.63350  0.17730  0.77790  1.0000 -0.3761671256
C   C36       1.0  0.86650  0.67730  0.22210  1.0000 -0.3761671256
C   C37       1.0  0.95950  0.93600  0.74420  1.0000 0.1034348425
C   C38       1.0  0.54050  0.43600  0.25580  1.0000 0.1034348425
C   C39       1.0  0.04050  0.06400  0.25580  1.0000 0.1034348425
C   C40       1.0  0.45950  0.56400  0.74420  1.0000 0.1034348425
C   C41       1.0  0.91300  0.95800  0.82020  1.0000 -0.2012376334
C   C42       1.0  0.58700  0.45800  0.17980  1.0000 -0.2012376334
C   C43       1.0  0.08700  0.04200  0.17980  1.0000 -0.2012376334
C   C44       1.0  0.41300  0.54200  0.82020  1.0000 -0.2012376334
C   C45       1.0  0.00800  0.01370  0.87994  1.0000 0.151538134
C   C46       1.0  0.49200  0.51370  0.12006  1.0000 0.151538134
C   C47       1.0  0.99200  0.98630  0.12006  1.0000 0.151538134
C   C48       1.0  0.50800  0.48630  0.87994  1.0000 0.151538134
C   C49       1.0  0.14550  0.04840  0.85740  1.0000 -0.2208635878
C   C50       1.0  0.35450  0.54840  0.14260  1.0000 -0.2208635878
C   C51       1.0  0.85450  0.95160  0.14260  1.0000 -0.2208635878
C   C52       1.0  0.64550  0.45160  0.85740  1.0000 -0.2208635878
C   C53       1.0  0.18600  0.02280  0.78060  1.0000 0.0705631547
C   C54       1.0  0.31400  0.52280  0.21940  1.0000 0.0705631547
C   C55       1.0  0.81400  0.97720  0.21940  1.0000 0.0705631547
C   C56       1.0  0.68600  0.47720  0.78060  1.0000 0.0705631547
C   C57       1.0  0.96490  0.03440  0.96570  1.0000 -0.2327346917
C   C58       1.0  0.53510  0.53440  0.03430  1.0000 -0.2352538701
C   C59       1.0  0.03510  0.96560  0.03430  1.0000 -0.2352538701
C   C60       1.0  0.46490  0.46560  0.96570  1.0000 -0.2352538701
N   N1        1.0  0.23900  0.84578  0.50680  1.0000 -0.2557410594
N   N2        1.0  0.26100  0.34578  0.49320  1.0000 -0.2557410594
N   N3        1.0  0.76100  0.15422  0.49320  1.0000 -0.2557410594
N   N4        1.0  0.73900  0.65422  0.50680  1.0000 -0.2557410594
N   N5        1.0  0.09670  0.96638  0.72459  1.0000 -0.2327346917
N   N6        1.0  0.40330  0.46638  0.27541  1.0000 -0.2327346917
N   N7        1.0  0.90330  0.03362  0.27541  1.0000 -0.2327346917
N   N8        1.0  0.59670  0.53362  0.72459  1.0000 -0.2327346917
O   O1        1.0  0.14260  0.78217  0.64524  1.0000 -0.5599422153
O   O2        1.0  0.35740  0.28217  0.35476  1.0000 -0.5599422153
O   O3        1.0  0.85740  0.21783  0.35476  1.0000 -0.5599422153
O   O4        1.0  0.64260  0.71783  0.64524  1.0000 -0.5599422153
O   O5        1.0  0.13430  0.64056  0.59393  1.0000 -0.4965239163
O   O6        1.0  0.36570  0.14056  0.40607  1.0000 -0.4965239163
O   O7        1.0  0.86570  0.35944  0.40607  1.0000 -0.4965239163
O   O8        1.0  0.63430  0.85944  0.59393  1.0000 -0.4965239163
O   O9        1.0  0.42740  0.56984  0.54811  1.0000 -0.5466821487
O   O10       1.0  0.07260  0.06984  0.45189  1.0000 -0.5466821487
O   O11       1.0  0.57260  0.43016  0.45189  1.0000 -0.5466821487
O   O12       1.0  0.92740  0.93016  0.54811  1.0000 -0.5466821487
O   O13       1.0  0.26800  0.54697  0.41739  1.0000 -0.5599422153
O   O14       1.0  0.23200  0.04697  0.58261  1.0000 -0.5599422153
O   O15       1.0  0.73200  0.45303  0.58261  1.0000 -0.5599422153
O   O16       1.0  0.76800  0.95303  0.41739  1.0000 -0.5599422153
