# DDEC6 charges by PACMAN v1.1 (https://github.com/mtap-research/PACMAN-charge/)
data_2012[InMg][nan]3[ASR]1
_chemical_formula_sum              "Mg12 In12 H240 C432 O108"
_cell_length_a       35.9941
_cell_length_b       35.9941
_cell_length_c       35.9941
_cell_angle_alpha    53.1787
_cell_angle_beta     53.1787
_cell_angle_gamma    53.1787

_symmetry_space_group_name_H-M    "P 1"
_symmetry_Int_Tables_number       1

loop_
  _symmetry_equiv_pos_as_xyz
  'x, y, z'

loop_
  _atom_site_type_symbol
  _atom_site_label
  _atom_site_symmetry_multiplicity
  _atom_site_fract_x
  _atom_site_fract_y
  _atom_site_fract_z
  _atom_site_occupancy
  _atom_site_charge
Mg  Mg1       1.0  0.08577  0.66293  0.54218  1.0000 1.4458965479
Mg  Mg2       1.0  0.66293  0.54218  0.08577  1.0000 1.4458965479
Mg  Mg3       1.0  0.54218  0.08577  0.66293  1.0000 1.4458965479
Mg  Mg4       1.0  0.41423  0.95782  0.83707  1.0000 1.4458965479
Mg  Mg5       1.0  0.83707  0.41423  0.95782  1.0000 1.4458965479
Mg  Mg6       1.0  0.95782  0.83707  0.41423  1.0000 1.4458965479
Mg  Mg7       1.0  0.91423  0.33707  0.45782  1.0000 1.4458965479
Mg  Mg8       1.0  0.33707  0.45782  0.91423  1.0000 1.4458965479
Mg  Mg9       1.0  0.45782  0.91423  0.33707  1.0000 1.4458965479
Mg  Mg10      1.0  0.58577  0.04218  0.16293  1.0000 1.4458965479
Mg  Mg11      1.0  0.16293  0.58577  0.04218  1.0000 1.4435029771
Mg  Mg12      1.0  0.04218  0.16293  0.58577  1.0000 1.4458965479
In  In1       1.0  0.05317  0.70723  0.44076  1.0000 1.4903593307
In  In2       1.0  0.70723  0.44076  0.05317  1.0000 1.4903593307
In  In3       1.0  0.44076  0.05317  0.70723  1.0000 1.4903593307
In  In4       1.0  0.44683  0.05924  0.79277  1.0000 1.4903593307
In  In5       1.0  0.79277  0.44683  0.05924  1.0000 1.4903593307
In  In6       1.0  0.05924  0.79277  0.44683  1.0000 1.4903593307
In  In7       1.0  0.94683  0.29277  0.55924  1.0000 1.4903593307
In  In8       1.0  0.29277  0.55924  0.94683  1.0000 1.4903593307
In  In9       1.0  0.55924  0.94683  0.29277  1.0000 1.4903593307
In  In10      1.0  0.55317  0.94076  0.20723  1.0000 1.4903593307
In  In11      1.0  0.20723  0.55317  0.94076  1.0000 1.4903593307
In  In12      1.0  0.94076  0.20723  0.55317  1.0000 1.4903593307
H   H1        1.0  0.74670  0.78800  0.64950  1.0000 0.1191813872
H   H2        1.0  0.78800  0.64950  0.74670  1.0000 0.1191813872
H   H3        1.0  0.64950  0.74670  0.78800  1.0000 0.1191813872
H   H4        1.0  0.75330  0.85050  0.71200  1.0000 0.1191813872
H   H5        1.0  0.71200  0.75330  0.85050  1.0000 0.1191813872
H   H6        1.0  0.85050  0.71200  0.75330  1.0000 0.1191813872
H   H7        1.0  0.25330  0.21200  0.35050  1.0000 0.1191813872
H   H8        1.0  0.21200  0.35050  0.25330  1.0000 0.1191813872
H   H9        1.0  0.35050  0.25330  0.21200  1.0000 0.1191813872
H   H10       1.0  0.24670  0.14950  0.28800  1.0000 0.1191813872
H   H11       1.0  0.28800  0.24670  0.14950  1.0000 0.1191813872
H   H12       1.0  0.14950  0.28800  0.24670  1.0000 0.1191813872
H   H13       1.0  0.86030  0.66330  0.70740  1.0000 0.1125165904
H   H14       1.0  0.66330  0.70740  0.86030  1.0000 0.1125165904
H   H15       1.0  0.70740  0.86030  0.66330  1.0000 0.1125165904
H   H16       1.0  0.63970  0.79260  0.83670  1.0000 0.1125165904
H   H17       1.0  0.83670  0.63970  0.79260  1.0000 0.1125165904
H   H18       1.0  0.79260  0.83670  0.63970  1.0000 0.1125165904
H   H19       1.0  0.13970  0.33670  0.29260  1.0000 0.1125165904
H   H20       1.0  0.33670  0.29260  0.13970  1.0000 0.1125165904
H   H21       1.0  0.29260  0.13970  0.33670  1.0000 0.1125165904
H   H22       1.0  0.36030  0.20740  0.16330  1.0000 0.1125165904
H   H23       1.0  0.16330  0.36030  0.20740  1.0000 0.1125165904
H   H24       1.0  0.20740  0.16330  0.36030  1.0000 0.1125165904
H   H25       1.0  0.81640  0.74260  0.59280  1.0000 0.1191813872
H   H26       1.0  0.74260  0.59280  0.81640  1.0000 0.1191813872
H   H27       1.0  0.59280  0.81640  0.74260  1.0000 0.1191813872
H   H28       1.0  0.68360  0.90720  0.75740  1.0000 0.1191813872
H   H29       1.0  0.75740  0.68360  0.90720  1.0000 0.1191813872
H   H30       1.0  0.90720  0.75740  0.68360  1.0000 0.1191813872
H   H31       1.0  0.18360  0.25740  0.40720  1.0000 0.1191813872
H   H32       1.0  0.25740  0.40720  0.18360  1.0000 0.1191813872
H   H33       1.0  0.40720  0.18360  0.25740  1.0000 0.1191813872
H   H34       1.0  0.31640  0.09280  0.24260  1.0000 0.1191813872
H   H35       1.0  0.24260  0.31640  0.09280  1.0000 0.1191813872
H   H36       1.0  0.09280  0.24260  0.31640  1.0000 0.1191813872
H   H37       1.0  0.94260  0.65430  0.65210  1.0000 0.1191813872
H   H38       1.0  0.65430  0.65210  0.94260  1.0000 0.1191813872
H   H39       1.0  0.65210  0.94260  0.65430  1.0000 0.1191813872
H   H40       1.0  0.55740  0.84790  0.84570  1.0000 0.1191813872
H   H41       1.0  0.84570  0.55740  0.84790  1.0000 0.1191813872
H   H42       1.0  0.84790  0.84570  0.55740  1.0000 0.1191813872
H   H43       1.0  0.05740  0.34570  0.34790  1.0000 0.1191813872
H   H44       1.0  0.34570  0.34790  0.05740  1.0000 0.1191813872
H   H45       1.0  0.34790  0.05740  0.34570  1.0000 0.1191813872
H   H46       1.0  0.44260  0.15210  0.15430  1.0000 0.1191813872
H   H47       1.0  0.15430  0.44260  0.15210  1.0000 0.1191813872
H   H48       1.0  0.15210  0.15430  0.44260  1.0000 0.1191813872
H   H49       1.0  0.89840  0.73200  0.53820  1.0000 0.1290187329
H   H50       1.0  0.73200  0.53820  0.89840  1.0000 0.1290187329
H   H51       1.0  0.53820  0.89840  0.73200  1.0000 0.1290187329
H   H52       1.0  0.60160  0.96180  0.76800  1.0000 0.1290187329
H   H53       1.0  0.76800  0.60160  0.96180  1.0000 0.1290187329
H   H54       1.0  0.96180  0.76800  0.60160  1.0000 0.1290187329
H   H55       1.0  0.10160  0.26800  0.46180  1.0000 0.1290187329
H   H56       1.0  0.26800  0.46180  0.10160  1.0000 0.1290187329
H   H57       1.0  0.46180  0.10160  0.26800  1.0000 0.1290187329
H   H58       1.0  0.39840  0.03820  0.23200  1.0000 0.1290187329
H   H59       1.0  0.23200  0.39840  0.03820  1.0000 0.1290187329
H   H60       1.0  0.03820  0.23200  0.39840  1.0000 0.1290187329
H   H61       1.0  0.70780  0.84640  0.30450  1.0000 0.1290187329
H   H62       1.0  0.84640  0.30450  0.70780  1.0000 0.1290187329
H   H63       1.0  0.30450  0.70780  0.84640  1.0000 0.1290187329
H   H64       1.0  0.79220  0.19550  0.65360  1.0000 0.1290187329
H   H65       1.0  0.65360  0.79220  0.19550  1.0000 0.1290187329
H   H66       1.0  0.19550  0.65360  0.79220  1.0000 0.1290187329
H   H67       1.0  0.29220  0.15360  0.69550  1.0000 0.1290187329
H   H68       1.0  0.15360  0.69550  0.29220  1.0000 0.1290187329
H   H69       1.0  0.69550  0.29220  0.15360  1.0000 0.1290187329
H   H70       1.0  0.20780  0.80450  0.34640  1.0000 0.1290187329
H   H71       1.0  0.34640  0.20780  0.80450  1.0000 0.1290187329
H   H72       1.0  0.80450  0.34640  0.20780  1.0000 0.1290187329
H   H73       1.0  0.63930  0.75090  0.39290  1.0000 0.1290187329
H   H74       1.0  0.75090  0.39290  0.63930  1.0000 0.1290187329
H   H75       1.0  0.39290  0.63930  0.75090  1.0000 0.1290187329
H   H76       1.0  0.86070  0.10710  0.74910  1.0000 0.1191813872
H   H77       1.0  0.74910  0.86070  0.10710  1.0000 0.1191813872
H   H78       1.0  0.10710  0.74910  0.86070  1.0000 0.1290187329
H   H79       1.0  0.36070  0.24910  0.60710  1.0000 0.1290187329
H   H80       1.0  0.24910  0.60710  0.36070  1.0000 0.1191813872
H   H81       1.0  0.60710  0.36070  0.24910  1.0000 0.1290187329
H   H82       1.0  0.13930  0.89290  0.25090  1.0000 0.1290187329
H   H83       1.0  0.25090  0.13930  0.89290  1.0000 0.1290187329
H   H84       1.0  0.89290  0.25090  0.13930  1.0000 0.1290187329
H   H85       1.0  0.76650  0.78990  0.34130  1.0000 0.1125165904
H   H86       1.0  0.78990  0.34130  0.76650  1.0000 0.1125165904
H   H87       1.0  0.34130  0.76650  0.78990  1.0000 0.1125165904
H   H88       1.0  0.73350  0.15870  0.71010  1.0000 0.1125165904
H   H89       1.0  0.71010  0.73350  0.15870  1.0000 0.1125165904
H   H90       1.0  0.15870  0.71010  0.73350  1.0000 0.1125165904
H   H91       1.0  0.23350  0.21010  0.65870  1.0000 0.1125165904
H   H92       1.0  0.21010  0.65870  0.23350  1.0000 0.1125165904
H   H93       1.0  0.65870  0.23350  0.21010  1.0000 0.1125165904
H   H94       1.0  0.26650  0.84130  0.28990  1.0000 0.1125165904
H   H95       1.0  0.28990  0.26650  0.84130  1.0000 0.1125165904
H   H96       1.0  0.84130  0.28990  0.26650  1.0000 0.1125165904
H   H97       1.0  0.69630  0.69550  0.43090  1.0000 0.1125165904
H   H98       1.0  0.69550  0.43090  0.69630  1.0000 0.1125165904
H   H99       1.0  0.43090  0.69630  0.69550  1.0000 0.1125165904
H   H100      1.0  0.80370  0.06910  0.80450  1.0000 0.1125165904
H   H101      1.0  0.80450  0.80370  0.06910  1.0000 0.1125165904
H   H102      1.0  0.06910  0.80450  0.80370  1.0000 0.1125165904
H   H103      1.0  0.30370  0.30450  0.56910  1.0000 0.1125165904
H   H104      1.0  0.30450  0.56910  0.30370  1.0000 0.1125165904
H   H105      1.0  0.56910  0.30370  0.30450  1.0000 0.1125165904
H   H106      1.0  0.19630  0.93090  0.19550  1.0000 0.1125165904
H   H107      1.0  0.19550  0.19630  0.93090  1.0000 0.1125165904
H   H108      1.0  0.93090  0.19550  0.19630  1.0000 0.1125165904
H   H109      1.0  0.85210  0.48080  0.43940  1.0000 0.1290187329
H   H110      1.0  0.48080  0.43940  0.85210  1.0000 0.1191813872
H   H111      1.0  0.43940  0.85210  0.48080  1.0000 0.1290187329
H   H112      1.0  0.64790  0.06060  0.01920  1.0000 0.1191813872
H   H113      1.0  0.01920  0.64790  0.06060  1.0000 0.1290187329
H   H114      1.0  0.06060  0.01920  0.64790  1.0000 0.1191813872
H   H115      1.0  0.14790  0.51920  0.56060  1.0000 0.1290187329
H   H116      1.0  0.51920  0.56060  0.14790  1.0000 0.1290187329
H   H117      1.0  0.56060  0.14790  0.51920  1.0000 0.1290187329
H   H118      1.0  0.35210  0.93940  0.98080  1.0000 0.1290187329
H   H119      1.0  0.98080  0.35210  0.93940  1.0000 0.1290187329
H   H120      1.0  0.93940  0.98080  0.35210  1.0000 0.1290187329
H   H121      1.0  0.88940  0.45030  0.54180  1.0000 0.1378624926
H   H122      1.0  0.45030  0.54180  0.88940  1.0000 0.1378624926
H   H123      1.0  0.54180  0.88940  0.45030  1.0000 0.1378624926
H   H124      1.0  0.61060  0.95820  0.04970  1.0000 0.1378624926
H   H125      1.0  0.04970  0.61060  0.95820  1.0000 0.1378624926
H   H126      1.0  0.95820  0.04970  0.61060  1.0000 0.1378624926
H   H127      1.0  0.11060  0.54970  0.45820  1.0000 0.1378624926
H   H128      1.0  0.54970  0.45820  0.11060  1.0000 0.1378624926
H   H129      1.0  0.45820  0.11060  0.54970  1.0000 0.1378624926
H   H130      1.0  0.38940  0.04180  0.95030  1.0000 0.1378624926
H   H131      1.0  0.95030  0.38940  0.04180  1.0000 0.1378624926
H   H132      1.0  0.04180  0.95030  0.38940  1.0000 0.1378624926
H   H133      1.0  0.77160  0.63890  0.42900  1.0000 0.1125165904
H   H134      1.0  0.63890  0.42900  0.77160  1.0000 0.1125165904
H   H135      1.0  0.42900  0.77160  0.63890  1.0000 0.1125165904
H   H136      1.0  0.72840  0.07100  0.86110  1.0000 0.1125165904
H   H137      1.0  0.86110  0.72840  0.07100  1.0000 0.1125165904
H   H138      1.0  0.07100  0.86110  0.72840  1.0000 0.1125165904
H   H139      1.0  0.22840  0.36110  0.57100  1.0000 0.1125165904
H   H140      1.0  0.36110  0.57100  0.22840  1.0000 0.1125165904
H   H141      1.0  0.57100  0.22840  0.36110  1.0000 0.1125165904
H   H142      1.0  0.27160  0.92900  0.13890  1.0000 0.1125165904
H   H143      1.0  0.13890  0.27160  0.92900  1.0000 0.1125165904
H   H144      1.0  0.92900  0.13890  0.27160  1.0000 0.1125165904
H   H145      1.0  0.82300  0.56610  0.41890  1.0000 0.1191813872
H   H146      1.0  0.56610  0.41890  0.82300  1.0000 0.1191813872
H   H147      1.0  0.41890  0.82300  0.56610  1.0000 0.1191813872
H   H148      1.0  0.67700  0.08110  0.93390  1.0000 0.1191813872
H   H149      1.0  0.93390  0.67700  0.08110  1.0000 0.1191813872
H   H150      1.0  0.08110  0.93390  0.67700  1.0000 0.1191813872
H   H151      1.0  0.17700  0.43390  0.58110  1.0000 0.1191813872
H   H152      1.0  0.43390  0.58110  0.17700  1.0000 0.1191813872
H   H153      1.0  0.58110  0.17700  0.43390  1.0000 0.1191813872
H   H154      1.0  0.32300  0.91890  0.06610  1.0000 0.1191813872
H   H155      1.0  0.06610  0.32300  0.91890  1.0000 0.1191813872
H   H156      1.0  0.91890  0.06610  0.32300  1.0000 0.1191813872
H   H157      1.0  0.86300  0.53440  0.52010  1.0000 0.1125165904
H   H158      1.0  0.53440  0.52010  0.86300  1.0000 0.1125165904
H   H159      1.0  0.52010  0.86300  0.53440  1.0000 0.1125165904
H   H160      1.0  0.63700  0.97990  0.96560  1.0000 0.1125165904
H   H161      1.0  0.96560  0.63700  0.97990  1.0000 0.1125165904
H   H162      1.0  0.97990  0.96560  0.63700  1.0000 0.1125165904
H   H163      1.0  0.13700  0.46560  0.47990  1.0000 0.1125165904
H   H164      1.0  0.46560  0.47990  0.13700  1.0000 0.1125165904
H   H165      1.0  0.47990  0.13700  0.46560  1.0000 0.1125165904
H   H166      1.0  0.36300  0.02010  0.03440  1.0000 0.1125165904
H   H167      1.0  0.03440  0.36300  0.02010  1.0000 0.1125165904
H   H168      1.0  0.02010  0.03440  0.36300  1.0000 0.1125165904
H   H169      1.0  0.93820  0.64060  0.41460  1.0000 0.1191813872
H   H170      1.0  0.64060  0.41460  0.93820  1.0000 0.1191813872
H   H171      1.0  0.41460  0.93820  0.64060  1.0000 0.1191813872
H   H172      1.0  0.56180  0.08540  0.85940  1.0000 0.1191813872
H   H173      1.0  0.85940  0.56180  0.08540  1.0000 0.1191813872
H   H174      1.0  0.08540  0.85940  0.56180  1.0000 0.1191813872
H   H175      1.0  0.06180  0.35940  0.58540  1.0000 0.1191813872
H   H176      1.0  0.35940  0.58540  0.06180  1.0000 0.1191813872
H   H177      1.0  0.58540  0.06180  0.35940  1.0000 0.1191813872
H   H178      1.0  0.43820  0.91460  0.14060  1.0000 0.1191813872
H   H179      1.0  0.14060  0.43820  0.91460  1.0000 0.1191813872
H   H180      1.0  0.91460  0.14060  0.43820  1.0000 0.1191813872
H   H181      1.0  0.87610  0.60640  0.46560  1.0000 0.1125165904
H   H182      1.0  0.60640  0.46560  0.87610  1.0000 0.1125165904
H   H183      1.0  0.46560  0.87610  0.60640  1.0000 0.1125165904
H   H184      1.0  0.62390  0.03440  0.89360  1.0000 0.1125165904
H   H185      1.0  0.89360  0.62390  0.03440  1.0000 0.1125165904
H   H186      1.0  0.03440  0.89360  0.62390  1.0000 0.1125165904
H   H187      1.0  0.12390  0.39360  0.53440  1.0000 0.1125165904
H   H188      1.0  0.39360  0.53440  0.12390  1.0000 0.1125165904
H   H189      1.0  0.53440  0.12390  0.39360  1.0000 0.1125165904
H   H190      1.0  0.37610  0.96560  0.10640  1.0000 0.1125165904
H   H191      1.0  0.10640  0.37610  0.96560  1.0000 0.1125165904
H   H192      1.0  0.96560  0.10640  0.37610  1.0000 0.1125165904
H   H193      1.0  0.79520  0.74890  0.40220  1.0000 0.1125165904
H   H194      1.0  0.74890  0.40220  0.79520  1.0000 0.1125165904
H   H195      1.0  0.40220  0.79520  0.74890  1.0000 0.1125165904
H   H196      1.0  0.70480  0.09780  0.75110  1.0000 0.1125165904
H   H197      1.0  0.75110  0.70480  0.09780  1.0000 0.1125165904
H   H198      1.0  0.09780  0.75110  0.70480  1.0000 0.1125165904
H   H199      1.0  0.20480  0.25110  0.59780  1.0000 0.1125165904
H   H200      1.0  0.25110  0.59780  0.20480  1.0000 0.1125165904
H   H201      1.0  0.59780  0.20480  0.25110  1.0000 0.1125165904
H   H202      1.0  0.29520  0.90220  0.24890  1.0000 0.1125165904
H   H203      1.0  0.24890  0.29520  0.90220  1.0000 0.1125165904
H   H204      1.0  0.90220  0.24890  0.29520  1.0000 0.1125165904
H   H205      1.0  0.81930  0.76080  0.43970  1.0000 0.1191813872
H   H206      1.0  0.76080  0.43970  0.81930  1.0000 0.1191813872
H   H207      1.0  0.43970  0.81930  0.76080  1.0000 0.1191813872
H   H208      1.0  0.68070  0.06030  0.73920  1.0000 0.1191813872
H   H209      1.0  0.73920  0.68070  0.06030  1.0000 0.1191813872
H   H210      1.0  0.06030  0.73920  0.68070  1.0000 0.1191813872
H   H211      1.0  0.18070  0.23920  0.56030  1.0000 0.1191813872
H   H212      1.0  0.23920  0.56030  0.18070  1.0000 0.1191813872
H   H213      1.0  0.56030  0.18070  0.23920  1.0000 0.1191813872
H   H214      1.0  0.31930  0.93970  0.26080  1.0000 0.1191813872
H   H215      1.0  0.26080  0.31930  0.93970  1.0000 0.1191813872
H   H216      1.0  0.93970  0.26080  0.31930  1.0000 0.1191813872
H   H217      1.0  0.86700  0.78460  0.43870  1.0000 0.1290187329
H   H218      1.0  0.78460  0.43870  0.86700  1.0000 0.1290187329
H   H219      1.0  0.43870  0.86700  0.78460  1.0000 0.1290187329
H   H220      1.0  0.63300  0.06130  0.71540  1.0000 0.1290187329
H   H221      1.0  0.71540  0.63300  0.06130  1.0000 0.1290187329
H   H222      1.0  0.06130  0.71540  0.63300  1.0000 0.1290187329
H   H223      1.0  0.13300  0.21540  0.56130  1.0000 0.1290187329
H   H224      1.0  0.21540  0.56130  0.13300  1.0000 0.1290187329
H   H225      1.0  0.56130  0.13300  0.21540  1.0000 0.1290187329
H   H226      1.0  0.36700  0.93870  0.28460  1.0000 0.1290187329
H   H227      1.0  0.28460  0.36700  0.93870  1.0000 0.1290187329
H   H228      1.0  0.93870  0.28460  0.36700  1.0000 0.1290187329
H   H229      1.0  0.98660  0.66400  0.41210  1.0000 0.1378624926
H   H230      1.0  0.66400  0.41210  0.98660  1.0000 0.1378624926
H   H231      1.0  0.41210  0.98660  0.66400  1.0000 0.1378624926
H   H232      1.0  0.51340  0.08790  0.83600  1.0000 0.1378624926
H   H233      1.0  0.83600  0.51340  0.08790  1.0000 0.1378624926
H   H234      1.0  0.08790  0.83600  0.51340  1.0000 0.1378624926
H   H235      1.0  0.01340  0.33600  0.58790  1.0000 0.1378624926
H   H236      1.0  0.33600  0.58790  0.01340  1.0000 0.1378624926
H   H237      1.0  0.58790  0.01340  0.33600  1.0000 0.1378624926
H   H238      1.0  0.48660  0.91210  0.16400  1.0000 0.1378624926
H   H239      1.0  0.16400  0.48660  0.91210  1.0000 0.1378624926
H   H240      1.0  0.91210  0.16400  0.48660  1.0000 0.1378624926
C   C1        1.0  0.77677  0.71529  0.69283  1.0000 0.0878296701
C   C2        1.0  0.71529  0.69283  0.77677  1.0000 0.0878296701
C   C3        1.0  0.69283  0.77677  0.71529  1.0000 0.0878296701
C   C4        1.0  0.72323  0.80717  0.78471  1.0000 0.0878296701
C   C5        1.0  0.78471  0.72323  0.80717  1.0000 0.0878296701
C   C6        1.0  0.80717  0.78471  0.72323  1.0000 0.0878296701
C   C7        1.0  0.22323  0.28471  0.30717  1.0000 0.0878296701
C   C8        1.0  0.28471  0.30717  0.22323  1.0000 0.0878296701
C   C9        1.0  0.30717  0.22323  0.28471  1.0000 0.0878296701
C   C10       1.0  0.27677  0.19283  0.21529  1.0000 0.0878296701
C   C11       1.0  0.21529  0.27677  0.19283  1.0000 0.0878296701
C   C12       1.0  0.19283  0.21529  0.27677  1.0000 0.0878296701
C   C13       1.0  0.73876  0.76411  0.68172  1.0000 -0.2013799797
C   C14       1.0  0.76411  0.68172  0.73876  1.0000 -0.2013799797
C   C15       1.0  0.68172  0.73876  0.76411  1.0000 -0.2013799797
C   C16       1.0  0.76124  0.81828  0.73589  1.0000 -0.2013799797
C   C17       1.0  0.73589  0.76124  0.81828  1.0000 -0.2013799797
C   C18       1.0  0.81828  0.73589  0.76124  1.0000 -0.2013799797
C   C19       1.0  0.26124  0.23589  0.31828  1.0000 -0.2013799797
C   C20       1.0  0.23589  0.31828  0.26124  1.0000 -0.2013799797
C   C21       1.0  0.31828  0.26124  0.23589  1.0000 -0.2013799797
C   C22       1.0  0.23876  0.18172  0.26411  1.0000 -0.2013799797
C   C23       1.0  0.26411  0.23876  0.18172  1.0000 -0.2013799797
C   C24       1.0  0.18172  0.26411  0.23876  1.0000 -0.2013799797
C   C25       1.0  0.86767  0.67783  0.67311  1.0000 -0.1570403479
C   C26       1.0  0.67783  0.67311  0.86767  1.0000 -0.1570403479
C   C27       1.0  0.67311  0.86767  0.67783  1.0000 -0.1570403479
C   C28       1.0  0.63233  0.82689  0.82217  1.0000 -0.1570403479
C   C29       1.0  0.82217  0.63233  0.82689  1.0000 -0.1570403479
C   C30       1.0  0.82689  0.82217  0.63233  1.0000 -0.1570403479
C   C31       1.0  0.13233  0.32217  0.32689  1.0000 -0.1570403479
C   C32       1.0  0.32217  0.32689  0.13233  1.0000 -0.1570403479
C   C33       1.0  0.32689  0.13233  0.32217  1.0000 -0.1570403479
C   C34       1.0  0.36767  0.17311  0.17783  1.0000 -0.1570403479
C   C35       1.0  0.17783  0.36767  0.17311  1.0000 -0.1570403479
C   C36       1.0  0.17311  0.17783  0.36767  1.0000 -0.1570403479
C   C37       1.0  0.84133  0.72482  0.60521  1.0000 -0.150887296
C   C38       1.0  0.72482  0.60521  0.84133  1.0000 -0.150887296
C   C39       1.0  0.60521  0.84133  0.72482  1.0000 -0.150887296
C   C40       1.0  0.65867  0.89479  0.77518  1.0000 -0.150887296
C   C41       1.0  0.77518  0.65867  0.89479  1.0000 -0.150887296
C   C42       1.0  0.89479  0.77518  0.65867  1.0000 -0.150887296
C   C43       1.0  0.15867  0.27518  0.39479  1.0000 -0.150887296
C   C44       1.0  0.27518  0.39479  0.15867  1.0000 -0.150887296
C   C45       1.0  0.39479  0.15867  0.27518  1.0000 -0.150887296
C   C46       1.0  0.34133  0.10521  0.22482  1.0000 -0.150887296
C   C47       1.0  0.22482  0.34133  0.10521  1.0000 -0.150887296
C   C48       1.0  0.10521  0.22482  0.34133  1.0000 -0.150887296
C   C49       1.0  0.92846  0.69353  0.58900  1.0000 -0.0302475623
C   C50       1.0  0.69353  0.58900  0.92846  1.0000 -0.0302475623
C   C51       1.0  0.58900  0.92846  0.69353  1.0000 -0.0302475623
C   C52       1.0  0.57154  0.91100  0.80647  1.0000 -0.0302475623
C   C53       1.0  0.80647  0.57154  0.91100  1.0000 -0.0302475623
C   C54       1.0  0.91100  0.80647  0.57154  1.0000 -0.0302475623
C   C55       1.0  0.07154  0.30647  0.41100  1.0000 -0.0302475623
C   C56       1.0  0.30647  0.41100  0.07154  1.0000 -0.0302475623
C   C57       1.0  0.41100  0.07154  0.30647  1.0000 -0.0302475623
C   C58       1.0  0.42846  0.08900  0.19353  1.0000 -0.0302475623
C   C59       1.0  0.19353  0.42846  0.08900  1.0000 -0.0302475623
C   C60       1.0  0.08900  0.19353  0.42846  1.0000 -0.0302475623
C   C61       1.0  0.91731  0.67217  0.63996  1.0000 -0.0894533676
C   C62       1.0  0.67217  0.63996  0.91731  1.0000 -0.0894533676
C   C63       1.0  0.63996  0.91731  0.67217  1.0000 -0.0894533676
C   C64       1.0  0.58269  0.86004  0.82783  1.0000 -0.0894533676
C   C65       1.0  0.82783  0.58269  0.86004  1.0000 -0.0894533676
C   C66       1.0  0.86004  0.82783  0.58269  1.0000 -0.0894533676
C   C67       1.0  0.08269  0.32783  0.36004  1.0000 -0.0894533676
C   C68       1.0  0.32783  0.36004  0.08269  1.0000 -0.0894533676
C   C69       1.0  0.36004  0.08269  0.32783  1.0000 -0.0894533676
C   C70       1.0  0.41731  0.13996  0.17217  1.0000 -0.0894533676
C   C71       1.0  0.17217  0.41731  0.13996  1.0000 -0.0894533676
C   C72       1.0  0.13996  0.17217  0.41731  1.0000 -0.0894533676
C   C73       1.0  0.98081  0.69051  0.55260  1.0000 0.6089331492
C   C74       1.0  0.69051  0.55260  0.98081  1.0000 0.6089331492
C   C75       1.0  0.55260  0.98081  0.69051  1.0000 0.6089331492
C   C76       1.0  0.51919  0.94740  0.80949  1.0000 0.6089331492
C   C77       1.0  0.80949  0.51919  0.94740  1.0000 0.6089331492
C   C78       1.0  0.94740  0.80949  0.51919  1.0000 0.6089331492
C   C79       1.0  0.01919  0.30949  0.44740  1.0000 0.6089331492
C   C80       1.0  0.30949  0.44740  0.01919  1.0000 0.6089331492
C   C81       1.0  0.44740  0.01919  0.30949  1.0000 0.6089331492
C   C82       1.0  0.48081  0.05260  0.19051  1.0000 0.6089331492
C   C83       1.0  0.19051  0.48081  0.05260  1.0000 0.6089331492
C   C84       1.0  0.05260  0.19051  0.48081  1.0000 0.6089331492
C   C85       1.0  0.89065  0.71870  0.57233  1.0000 -0.0894533676
C   C86       1.0  0.71870  0.57233  0.89065  1.0000 -0.0894533676
C   C87       1.0  0.57233  0.89065  0.71870  1.0000 -0.0894533676
C   C88       1.0  0.60935  0.92767  0.78130  1.0000 -0.0894533676
C   C89       1.0  0.78130  0.60935  0.92767  1.0000 -0.0894533676
C   C90       1.0  0.92767  0.78130  0.60935  1.0000 -0.0894533676
C   C91       1.0  0.10935  0.28130  0.42767  1.0000 -0.0894533676
C   C92       1.0  0.28130  0.42767  0.10935  1.0000 -0.0894533676
C   C93       1.0  0.42767  0.10935  0.28130  1.0000 -0.0894533676
C   C94       1.0  0.39065  0.07233  0.21870  1.0000 -0.0894533676
C   C95       1.0  0.21870  0.39065  0.07233  1.0000 -0.0894533676
C   C96       1.0  0.07233  0.21870  0.39065  1.0000 -0.0894533676
C   C97       1.0  0.82924  0.70479  0.65587  1.0000 0.0695475388
C   C98       1.0  0.70479  0.65587  0.82924  1.0000 0.0695475388
C   C99       1.0  0.65587  0.82924  0.70479  1.0000 0.0695475388
C   C100      1.0  0.67076  0.84413  0.79521  1.0000 0.0695475388
C   C101      1.0  0.79521  0.67076  0.84413  1.0000 0.0695475388
C   C102      1.0  0.84413  0.79521  0.67076  1.0000 0.0695475388
C   C103      1.0  0.17076  0.29521  0.34413  1.0000 0.0695475388
C   C104      1.0  0.29521  0.34413  0.17076  1.0000 0.0695475388
C   C105      1.0  0.34413  0.17076  0.29521  1.0000 0.0695475388
C   C106      1.0  0.32924  0.15587  0.20479  1.0000 0.0695475388
C   C107      1.0  0.20479  0.32924  0.15587  1.0000 0.0695475388
C   C108      1.0  0.15587  0.20479  0.32924  1.0000 0.0695475388
C   C109      1.0  0.70555  0.81573  0.32944  1.0000 -0.0802641552
C   C110      1.0  0.81573  0.32944  0.70555  1.0000 -0.0802641552
C   C111      1.0  0.32944  0.70555  0.81573  1.0000 -0.0802641552
C   C112      1.0  0.79445  0.17056  0.68427  1.0000 -0.0802641552
C   C113      1.0  0.68427  0.79445  0.17056  1.0000 -0.0802641552
C   C114      1.0  0.17056  0.68427  0.79445  1.0000 -0.0802641552
C   C115      1.0  0.29445  0.18427  0.67056  1.0000 -0.0802641552
C   C116      1.0  0.18427  0.67056  0.29445  1.0000 -0.0802641552
C   C117      1.0  0.67056  0.29445  0.18427  1.0000 -0.0802641552
C   C118      1.0  0.20555  0.82944  0.31573  1.0000 -0.0802641552
C   C119      1.0  0.31573  0.20555  0.82944  1.0000 -0.0802641552
C   C120      1.0  0.82944  0.31573  0.20555  1.0000 -0.0802641552
C   C121      1.0  0.62833  0.84051  0.32227  1.0000 0.5489720847
C   C122      1.0  0.84051  0.32227  0.62833  1.0000 0.5489720847
C   C123      1.0  0.32227  0.62833  0.84051  1.0000 0.5489720847
C   C124      1.0  0.87167  0.17773  0.65949  1.0000 0.5489720847
C   C125      1.0  0.65949  0.87167  0.17773  1.0000 0.5489720847
C   C126      1.0  0.17773  0.65949  0.87167  1.0000 0.5489720847
C   C127      1.0  0.37167  0.15949  0.67773  1.0000 0.5489720847
C   C128      1.0  0.15949  0.67773  0.37167  1.0000 0.5489720847
C   C129      1.0  0.67773  0.37167  0.15949  1.0000 0.5489720847
C   C130      1.0  0.12833  0.82227  0.34051  1.0000 0.5489720847
C   C131      1.0  0.34051  0.12833  0.82227  1.0000 0.5489720847
C   C132      1.0  0.82227  0.34051  0.12833  1.0000 0.5489720847
C   C133      1.0  0.66804  0.80432  0.34428  1.0000 -0.0234681775
C   C134      1.0  0.80432  0.34428  0.66804  1.0000 -0.0234681775
C   C135      1.0  0.34428  0.66804  0.80432  1.0000 -0.0234681775
C   C136      1.0  0.83196  0.15572  0.69568  1.0000 -0.0234681775
C   C137      1.0  0.69568  0.83196  0.15572  1.0000 -0.0234681775
C   C138      1.0  0.15572  0.69568  0.83196  1.0000 -0.0234681775
C   C139      1.0  0.33196  0.19568  0.65572  1.0000 -0.0234681775
C   C140      1.0  0.19568  0.65572  0.33196  1.0000 -0.0234681775
C   C141      1.0  0.65572  0.33196  0.19568  1.0000 -0.0234681775
C   C142      1.0  0.16804  0.84428  0.30432  1.0000 -0.0234681775
C   C143      1.0  0.30432  0.16804  0.84428  1.0000 -0.0234681775
C   C144      1.0  0.84428  0.30432  0.16804  1.0000 -0.0234681775
C   C145      1.0  0.66528  0.75900  0.38219  1.0000 -0.0894533676
C   C146      1.0  0.75900  0.38219  0.66528  1.0000 -0.0894533676
C   C147      1.0  0.38219  0.66528  0.75900  1.0000 -0.0894533676
C   C148      1.0  0.83472  0.11781  0.74100  1.0000 -0.0894533676
C   C149      1.0  0.74100  0.83472  0.11781  1.0000 -0.0894533676
C   C150      1.0  0.11781  0.74100  0.83472  1.0000 -0.0894533676
C   C151      1.0  0.33472  0.24100  0.61781  1.0000 -0.0894533676
C   C152      1.0  0.24100  0.61781  0.33472  1.0000 -0.0894533676
C   C153      1.0  0.61781  0.33472  0.24100  1.0000 -0.0894533676
C   C154      1.0  0.16528  0.88219  0.25900  1.0000 -0.0894533676
C   C155      1.0  0.25900  0.16528  0.88219  1.0000 -0.0894533676
C   C156      1.0  0.88219  0.25900  0.16528  1.0000 -0.0894533676
C   C157      1.0  0.74102  0.78128  0.35185  1.0000 -0.150887296
C   C158      1.0  0.78128  0.35185  0.74102  1.0000 -0.150887296
C   C159      1.0  0.35185  0.74102  0.78128  1.0000 -0.150887296
C   C160      1.0  0.75898  0.14815  0.71872  1.0000 -0.150887296
C   C161      1.0  0.71872  0.75898  0.14815  1.0000 -0.150887296
C   C162      1.0  0.14815  0.71872  0.75898  1.0000 -0.150887296
C   C163      1.0  0.25898  0.21872  0.64815  1.0000 -0.150887296
C   C164      1.0  0.21872  0.64815  0.25898  1.0000 -0.150887296
C   C165      1.0  0.64815  0.25898  0.21872  1.0000 -0.150887296
C   C166      1.0  0.24102  0.85185  0.28128  1.0000 -0.150887296
C   C167      1.0  0.28128  0.24102  0.85185  1.0000 -0.150887296
C   C168      1.0  0.85185  0.28128  0.24102  1.0000 -0.150887296
C   C169      1.0  0.77803  0.69997  0.41100  1.0000 0.0788002784
C   C170      1.0  0.69997  0.41100  0.77803  1.0000 0.0788002784
C   C171      1.0  0.41100  0.77803  0.69997  1.0000 0.0788002784
C   C172      1.0  0.72197  0.08900  0.80003  1.0000 0.0788002784
C   C173      1.0  0.80003  0.72197  0.08900  1.0000 0.0788002784
C   C174      1.0  0.08900  0.80003  0.72197  1.0000 0.0788002784
C   C175      1.0  0.22197  0.30003  0.58900  1.0000 0.0788002784
C   C176      1.0  0.30003  0.58900  0.22197  1.0000 0.0788002784
C   C177      1.0  0.58900  0.22197  0.30003  1.0000 0.0788002784
C   C178      1.0  0.27803  0.91100  0.19997  1.0000 0.0788002784
C   C179      1.0  0.19997  0.27803  0.91100  1.0000 0.0788002784
C   C180      1.0  0.91100  0.19997  0.27803  1.0000 0.0788002784
C   C181      1.0  0.73978  0.73650  0.38779  1.0000 0.0695475388
C   C182      1.0  0.73650  0.38779  0.73978  1.0000 0.0695475388
C   C183      1.0  0.38779  0.73978  0.73650  1.0000 0.0695475388
C   C184      1.0  0.76022  0.11221  0.76350  1.0000 0.0695475388
C   C185      1.0  0.76350  0.76022  0.11221  1.0000 0.0695475388
C   C186      1.0  0.11221  0.76350  0.76022  1.0000 0.0695475388
C   C187      1.0  0.26022  0.26350  0.61221  1.0000 0.0695475388
C   C188      1.0  0.26350  0.61221  0.26022  1.0000 0.0695475388
C   C189      1.0  0.61221  0.26022  0.26350  1.0000 0.0695475388
C   C190      1.0  0.23978  0.88779  0.23650  1.0000 0.0695475388
C   C191      1.0  0.23650  0.23978  0.88779  1.0000 0.0695475388
C   C192      1.0  0.88779  0.23650  0.23978  1.0000 0.0695475388
C   C193      1.0  0.69966  0.72538  0.40462  1.0000 -0.150887296
C   C194      1.0  0.72538  0.40462  0.69966  1.0000 -0.150887296
C   C195      1.0  0.40462  0.69966  0.72538  1.0000 -0.1570403479
C   C196      1.0  0.80034  0.09538  0.77462  1.0000 -0.150887296
C   C197      1.0  0.77462  0.80034  0.09538  1.0000 -0.150887296
C   C198      1.0  0.09538  0.77462  0.80034  1.0000 -0.150887296
C   C199      1.0  0.30034  0.27462  0.59538  1.0000 -0.150887296
C   C200      1.0  0.27462  0.59538  0.30034  1.0000 -0.150887296
C   C201      1.0  0.59538  0.30034  0.27462  1.0000 -0.150887296
C   C202      1.0  0.19966  0.90462  0.22538  1.0000 -0.1570403479
C   C203      1.0  0.22538  0.19966  0.90462  1.0000 -0.150887296
C   C204      1.0  0.90462  0.22538  0.19966  1.0000 -0.150887296
C   C205      1.0  0.87570  0.45750  0.49034  1.0000 -0.0302475623
C   C206      1.0  0.45750  0.49034  0.87570  1.0000 -0.0302475623
C   C207      1.0  0.49034  0.87570  0.45750  1.0000 -0.0302475623
C   C208      1.0  0.62430  0.00966  0.04250  1.0000 -0.0302475623
C   C209      1.0  0.04250  0.62430  0.00966  1.0000 -0.0302475623
C   C210      1.0  0.00966  0.04250  0.62430  1.0000 -0.0302475623
C   C211      1.0  0.12430  0.54250  0.50966  1.0000 -0.0302475623
C   C212      1.0  0.54250  0.50966  0.12430  1.0000 -0.0302475623
C   C213      1.0  0.50966  0.12430  0.54250  1.0000 -0.0302475623
C   C214      1.0  0.37570  0.99034  0.95750  1.0000 -0.0302475623
C   C215      1.0  0.95750  0.37570  0.99034  1.0000 -0.0302475623
C   C216      1.0  0.99034  0.95750  0.37570  1.0000 -0.0302475623
C   C217      1.0  0.85491  0.49151  0.45516  1.0000 -0.0894533676
C   C218      1.0  0.49151  0.45516  0.85491  1.0000 -0.0894533676
C   C219      1.0  0.45516  0.85491  0.49151  1.0000 -0.0894533676
C   C220      1.0  0.64509  0.04484  0.00849  1.0000 -0.0894533676
C   C221      1.0  0.00849  0.64509  0.04484  1.0000 -0.0894533676
C   C222      1.0  0.04484  0.00849  0.64509  1.0000 -0.0894533676
C   C223      1.0  0.14509  0.50849  0.54484  1.0000 -0.0894533676
C   C224      1.0  0.50849  0.54484  0.14509  1.0000 -0.0894533676
C   C225      1.0  0.54484  0.14509  0.50849  1.0000 -0.0894533676
C   C226      1.0  0.35491  0.95516  0.99151  1.0000 -0.0894533676
C   C227      1.0  0.99151  0.35491  0.95516  1.0000 -0.0894533676
C   C228      1.0  0.95516  0.99151  0.35491  1.0000 -0.0894533676
C   C229      1.0  0.87727  0.47361  0.51604  1.0000 -0.0894533676
C   C230      1.0  0.47361  0.51604  0.87727  1.0000 -0.0894533676
C   C231      1.0  0.51604  0.87727  0.47361  1.0000 -0.0894533676
C   C232      1.0  0.62273  0.98396  0.02639  1.0000 -0.0894533676
C   C233      1.0  0.02639  0.62273  0.98396  1.0000 -0.0894533676
C   C234      1.0  0.98396  0.02639  0.62273  1.0000 -0.0894533676
C   C235      1.0  0.12273  0.52639  0.48396  1.0000 -0.0894533676
C   C236      1.0  0.52639  0.48396  0.12273  1.0000 -0.0894533676
C   C237      1.0  0.48396  0.12273  0.52639  1.0000 -0.0894533676
C   C238      1.0  0.37727  0.01604  0.97361  1.0000 -0.0894533676
C   C239      1.0  0.97361  0.37727  0.01604  1.0000 -0.0894533676
C   C240      1.0  0.01604  0.97361  0.37727  1.0000 -0.0894533676
C   C241      1.0  0.89659  0.40268  0.50084  1.0000 0.6153481151
C   C242      1.0  0.40268  0.50084  0.89659  1.0000 0.6153481151
C   C243      1.0  0.50084  0.89659  0.40268  1.0000 0.6153481151
C   C244      1.0  0.60341  0.99916  0.09732  1.0000 0.6089331492
C   C245      1.0  0.09732  0.60341  0.99916  1.0000 0.6153481151
C   C246      1.0  0.99916  0.09732  0.60341  1.0000 0.6153481151
C   C247      1.0  0.10341  0.59732  0.49916  1.0000 0.6153481151
C   C248      1.0  0.59732  0.49916  0.10341  1.0000 0.6153481151
C   C249      1.0  0.49916  0.10341  0.59732  1.0000 0.6153481151
C   C250      1.0  0.39659  0.00084  0.90268  1.0000 0.6153481151
C   C251      1.0  0.90268  0.39659  0.00084  1.0000 0.6089331492
C   C252      1.0  0.00084  0.90268  0.39659  1.0000 0.6153481151
C   C253      1.0  0.78917  0.64937  0.42967  1.0000 -0.2057068054
C   C254      1.0  0.64937  0.42967  0.78917  1.0000 -0.2013799797
C   C255      1.0  0.42967  0.78917  0.64937  1.0000 -0.2013799797
C   C256      1.0  0.71083  0.07033  0.85063  1.0000 -0.2057068054
C   C257      1.0  0.85063  0.71083  0.07033  1.0000 -0.2057068054
C   C258      1.0  0.07033  0.85063  0.71083  1.0000 -0.2013799797
C   C259      1.0  0.21083  0.35063  0.57033  1.0000 -0.2013799797
C   C260      1.0  0.35063  0.57033  0.21083  1.0000 -0.2013799797
C   C261      1.0  0.57033  0.21083  0.35063  1.0000 -0.2013799797
C   C262      1.0  0.28917  0.92967  0.14937  1.0000 -0.2057068054
C   C263      1.0  0.14937  0.28917  0.92967  1.0000 -0.2057068054
C   C264      1.0  0.92967  0.14937  0.28917  1.0000 -0.2013799797
C   C265      1.0  0.83757  0.54283  0.44275  1.0000 -0.1570403479
C   C266      1.0  0.54283  0.44275  0.83757  1.0000 -0.1570403479
C   C267      1.0  0.44275  0.83757  0.54283  1.0000 -0.1570403479
C   C268      1.0  0.66243  0.05725  0.95717  1.0000 -0.1570403479
C   C269      1.0  0.95717  0.66243  0.05725  1.0000 -0.1570403479
C   C270      1.0  0.05725  0.95717  0.66243  1.0000 -0.1570403479
C   C271      1.0  0.16243  0.45717  0.55725  1.0000 -0.1570403479
C   C272      1.0  0.45717  0.55725  0.16243  1.0000 -0.1570403479
C   C273      1.0  0.55725  0.16243  0.45717  1.0000 -0.1570403479
C   C274      1.0  0.33757  0.94275  0.04283  1.0000 -0.1570403479
C   C275      1.0  0.04283  0.33757  0.94275  1.0000 -0.1570403479
C   C276      1.0  0.94275  0.04283  0.33757  1.0000 -0.1570403479
C   C277      1.0  0.82694  0.61324  0.44999  1.0000 0.0788002784
C   C278      1.0  0.61324  0.44999  0.82694  1.0000 0.0788002784
C   C279      1.0  0.44999  0.82694  0.61324  1.0000 0.0788002784
C   C280      1.0  0.67306  0.05001  0.88676  1.0000 0.0788002784
C   C281      1.0  0.88676  0.67306  0.05001  1.0000 0.0788002784
C   C282      1.0  0.05001  0.88676  0.67306  1.0000 0.0788002784
C   C283      1.0  0.17306  0.38676  0.55001  1.0000 0.0788002784
C   C284      1.0  0.38676  0.55001  0.17306  1.0000 0.0788002784
C   C285      1.0  0.55001  0.17306  0.38676  1.0000 0.0788002784
C   C286      1.0  0.32694  0.94999  0.11324  1.0000 0.0788002784
C   C287      1.0  0.11324  0.32694  0.94999  1.0000 0.0788002784
C   C288      1.0  0.94999  0.11324  0.32694  1.0000 0.0788002784
C   C289      1.0  0.84216  0.55900  0.46573  1.0000 0.0695475388
C   C290      1.0  0.55900  0.46573  0.84216  1.0000 0.0695475388
C   C291      1.0  0.46573  0.84216  0.55900  1.0000 0.0695475388
C   C292      1.0  0.65784  0.03427  0.94100  1.0000 0.0695475388
C   C293      1.0  0.94100  0.65784  0.03427  1.0000 0.0695475388
C   C294      1.0  0.03427  0.94100  0.65784  1.0000 0.0695475388
C   C295      1.0  0.15784  0.44100  0.53427  1.0000 0.0695475388
C   C296      1.0  0.44100  0.53427  0.15784  1.0000 0.0695475388
C   C297      1.0  0.53427  0.15784  0.44100  1.0000 0.0695475388
C   C298      1.0  0.34216  0.96573  0.05900  1.0000 0.0695475388
C   C299      1.0  0.05900  0.34216  0.96573  1.0000 0.0695475388
C   C300      1.0  0.96573  0.05900  0.34216  1.0000 0.0695475388
C   C301      1.0  0.86117  0.52393  0.50330  1.0000 -0.150887296
C   C302      1.0  0.52393  0.50330  0.86117  1.0000 -0.150887296
C   C303      1.0  0.50330  0.86117  0.52393  1.0000 -0.150887296
C   C304      1.0  0.63883  0.99670  0.97607  1.0000 -0.150887296
C   C305      1.0  0.97607  0.63883  0.99670  1.0000 -0.150887296
C   C306      1.0  0.99670  0.97607  0.63883  1.0000 -0.150887296
C   C307      1.0  0.13883  0.47607  0.49670  1.0000 -0.150887296
C   C308      1.0  0.47607  0.49670  0.13883  1.0000 -0.150887296
C   C309      1.0  0.49670  0.13883  0.47607  1.0000 -0.150887296
C   C310      1.0  0.36117  0.00330  0.02393  1.0000 -0.150887296
C   C311      1.0  0.02393  0.36117  0.00330  1.0000 -0.150887296
C   C312      1.0  0.00330  0.02393  0.36117  1.0000 -0.150887296
C   C313      1.0  0.92354  0.66994  0.41939  1.0000 -0.1570403479
C   C314      1.0  0.66994  0.41939  0.92354  1.0000 -0.1570403479
C   C315      1.0  0.41939  0.92354  0.66994  1.0000 -0.1570403479
C   C316      1.0  0.57646  0.08061  0.83006  1.0000 -0.1570403479
C   C317      1.0  0.83006  0.57646  0.08061  1.0000 -0.1570403479
C   C318      1.0  0.08061  0.83006  0.57646  1.0000 -0.1570403479
C   C319      1.0  0.07646  0.33006  0.58061  1.0000 -0.1570403479
C   C320      1.0  0.33006  0.58061  0.07646  1.0000 -0.1570403479
C   C321      1.0  0.58061  0.07646  0.33006  1.0000 -0.1570403479
C   C322      1.0  0.42354  0.91939  0.16994  1.0000 -0.1570403479
C   C323      1.0  0.16994  0.42354  0.91939  1.0000 -0.1570403479
C   C324      1.0  0.91939  0.16994  0.42354  1.0000 -0.1570403479
C   C325      1.0  0.84178  0.68148  0.43123  1.0000 0.0788002784
C   C326      1.0  0.68148  0.43123  0.84178  1.0000 0.0788002784
C   C327      1.0  0.43123  0.84178  0.68148  1.0000 0.0788002784
C   C328      1.0  0.65822  0.06877  0.81852  1.0000 0.0788002784
C   C329      1.0  0.81852  0.65822  0.06877  1.0000 0.0788002784
C   C330      1.0  0.06877  0.81852  0.65822  1.0000 0.0788002784
C   C331      1.0  0.15822  0.31852  0.56877  1.0000 0.0788002784
C   C332      1.0  0.31852  0.56877  0.15822  1.0000 0.0788002784
C   C333      1.0  0.56877  0.15822  0.31852  1.0000 0.0788002784
C   C334      1.0  0.34178  0.93123  0.18148  1.0000 0.0788002784
C   C335      1.0  0.18148  0.34178  0.93123  1.0000 0.0788002784
C   C336      1.0  0.93123  0.18148  0.34178  1.0000 0.0788002784
C   C337      1.0  0.85206  0.62960  0.45138  1.0000 -0.2013799797
C   C338      1.0  0.62960  0.45138  0.85206  1.0000 -0.2013799797
C   C339      1.0  0.45138  0.85206  0.62960  1.0000 -0.2013799797
C   C340      1.0  0.64794  0.04862  0.87040  1.0000 -0.2013799797
C   C341      1.0  0.87040  0.64794  0.04862  1.0000 -0.2013799797
C   C342      1.0  0.04862  0.87040  0.64794  1.0000 -0.2013799797
C   C343      1.0  0.14794  0.37040  0.54862  1.0000 -0.2013799797
C   C344      1.0  0.37040  0.54862  0.14794  1.0000 -0.2013799797
C   C345      1.0  0.54862  0.14794  0.37040  1.0000 -0.2013799797
C   C346      1.0  0.35206  0.95138  0.12960  1.0000 -0.2013799797
C   C347      1.0  0.12960  0.35206  0.95138  1.0000 -0.2013799797
C   C348      1.0  0.95138  0.12960  0.35206  1.0000 -0.2013799797
C   C349      1.0  0.96324  0.74361  0.42233  1.0000 0.6089331492
C   C350      1.0  0.74361  0.42233  0.96324  1.0000 0.6089331492
C   C351      1.0  0.42233  0.96324  0.74361  1.0000 0.6089331492
C   C352      1.0  0.53676  0.07767  0.75639  1.0000 0.6089331492
C   C353      1.0  0.75639  0.53676  0.07767  1.0000 0.6089331492
C   C354      1.0  0.07767  0.75639  0.53676  1.0000 0.6089331492
C   C355      1.0  0.03676  0.25639  0.57767  1.0000 0.6089331492
C   C356      1.0  0.25639  0.57767  0.03676  1.0000 0.6089331492
C   C357      1.0  0.57767  0.03676  0.25639  1.0000 0.6089331492
C   C358      1.0  0.46324  0.92233  0.24361  1.0000 0.6089331492
C   C359      1.0  0.24361  0.46324  0.92233  1.0000 0.6089331492
C   C360      1.0  0.92233  0.24361  0.46324  1.0000 0.6089331492
C   C361      1.0  0.80383  0.71479  0.41331  1.0000 -0.1904051395
C   C362      1.0  0.71479  0.41331  0.80383  1.0000 -0.1904051395
C   C363      1.0  0.41331  0.80383  0.71479  1.0000 -0.1904051395
C   C364      1.0  0.69617  0.08669  0.78521  1.0000 -0.1904051395
C   C365      1.0  0.78521  0.69617  0.08669  1.0000 -0.1904051395
C   C366      1.0  0.08669  0.78521  0.69617  1.0000 -0.1904051395
C   C367      1.0  0.19617  0.28521  0.58669  1.0000 -0.1904051395
C   C368      1.0  0.28521  0.58669  0.19617  1.0000 -0.1904051395
C   C369      1.0  0.58669  0.19617  0.28521  1.0000 -0.1904051395
C   C370      1.0  0.30383  0.91331  0.21479  1.0000 -0.1904051395
C   C371      1.0  0.21479  0.30383  0.91331  1.0000 -0.1904051395
C   C372      1.0  0.91331  0.21479  0.30383  1.0000 -0.1904051395
C   C373      1.0  0.87370  0.69746  0.42803  1.0000 0.0695475388
C   C374      1.0  0.69746  0.42803  0.87370  1.0000 0.0695475388
C   C375      1.0  0.42803  0.87370  0.69746  1.0000 0.0695475388
C   C376      1.0  0.62630  0.07197  0.80254  1.0000 0.0695475388
C   C377      1.0  0.80254  0.62630  0.07197  1.0000 0.0695475388
C   C378      1.0  0.07197  0.80254  0.62630  1.0000 0.0695475388
C   C379      1.0  0.12630  0.30254  0.57197  1.0000 0.0695475388
C   C380      1.0  0.30254  0.57197  0.12630  1.0000 0.0695475388
C   C381      1.0  0.57197  0.12630  0.30254  1.0000 0.0695475388
C   C382      1.0  0.37370  0.92803  0.19746  1.0000 0.0695475388
C   C383      1.0  0.19746  0.37370  0.92803  1.0000 0.0695475388
C   C384      1.0  0.92803  0.19746  0.37370  1.0000 0.0695475388
C   C385      1.0  0.85295  0.74099  0.43447  1.0000 -0.1570403479
C   C386      1.0  0.74099  0.43447  0.85295  1.0000 -0.1570403479
C   C387      1.0  0.43447  0.85295  0.74099  1.0000 -0.1570403479
C   C388      1.0  0.64705  0.06553  0.75901  1.0000 -0.1570403479
C   C389      1.0  0.75901  0.64705  0.06553  1.0000 -0.1570403479
C   C390      1.0  0.06553  0.75901  0.64705  1.0000 -0.1570403479
C   C391      1.0  0.14705  0.25901  0.56553  1.0000 -0.1570403479
C   C392      1.0  0.25901  0.56553  0.14705  1.0000 -0.1570403479
C   C393      1.0  0.56553  0.14705  0.25901  1.0000 -0.1570403479
C   C394      1.0  0.35295  0.93447  0.24099  1.0000 -0.1570403479
C   C395      1.0  0.24099  0.35295  0.93447  1.0000 -0.1570403479
C   C396      1.0  0.93447  0.24099  0.35295  1.0000 -0.1570403479
C   C397      1.0  0.88170  0.75569  0.43326  1.0000 -0.0894533676
C   C398      1.0  0.75569  0.43326  0.88170  1.0000 -0.0894533676
C   C399      1.0  0.43326  0.88170  0.75569  1.0000 -0.0894533676
C   C400      1.0  0.61830  0.06674  0.74431  1.0000 -0.0894533676
C   C401      1.0  0.74431  0.61830  0.06674  1.0000 -0.0894533676
C   C402      1.0  0.06674  0.74431  0.61830  1.0000 -0.0894533676
C   C403      1.0  0.11830  0.24431  0.56674  1.0000 -0.0894533676
C   C404      1.0  0.24431  0.56674  0.11830  1.0000 -0.0894533676
C   C405      1.0  0.56674  0.11830  0.24431  1.0000 -0.0894533676
C   C406      1.0  0.38170  0.93326  0.25569  1.0000 -0.0894533676
C   C407      1.0  0.25569  0.38170  0.93326  1.0000 -0.0894533676
C   C408      1.0  0.93326  0.25569  0.38170  1.0000 -0.0894533676
C   C409      1.0  0.93194  0.72739  0.42398  1.0000 -0.0363984001
C   C410      1.0  0.72739  0.42398  0.93194  1.0000 -0.0363984001
C   C411      1.0  0.42398  0.93194  0.72739  1.0000 -0.0363984001
C   C412      1.0  0.56806  0.07602  0.77261  1.0000 -0.0363984001
C   C413      1.0  0.77261  0.56806  0.07602  1.0000 -0.0363984001
C   C414      1.0  0.07602  0.77261  0.56806  1.0000 -0.0363984001
C   C415      1.0  0.06806  0.27261  0.57602  1.0000 -0.0363984001
C   C416      1.0  0.27261  0.57602  0.06806  1.0000 -0.0363984001
C   C417      1.0  0.57602  0.06806  0.27261  1.0000 -0.0363984001
C   C418      1.0  0.43194  0.92398  0.22739  1.0000 -0.0363984001
C   C419      1.0  0.22739  0.43194  0.92398  1.0000 -0.0363984001
C   C420      1.0  0.92398  0.22739  0.43194  1.0000 -0.0363984001
C   C421      1.0  0.95290  0.68384  0.41762  1.0000 -0.0894533676
C   C422      1.0  0.68384  0.41762  0.95290  1.0000 -0.0894533676
C   C423      1.0  0.41762  0.95290  0.68384  1.0000 -0.0894533676
C   C424      1.0  0.54710  0.08238  0.81616  1.0000 -0.0894533676
C   C425      1.0  0.81616  0.54710  0.08238  1.0000 -0.0894533676
C   C426      1.0  0.08238  0.81616  0.54710  1.0000 -0.0894533676
C   C427      1.0  0.04710  0.31616  0.58238  1.0000 -0.0894533676
C   C428      1.0  0.31616  0.58238  0.04710  1.0000 -0.0894533676
C   C429      1.0  0.58238  0.04710  0.31616  1.0000 -0.0894533676
C   C430      1.0  0.45290  0.91762  0.18384  1.0000 -0.0894533676
C   C431      1.0  0.18384  0.45290  0.91762  1.0000 -0.0894533676
C   C432      1.0  0.91762  0.18384  0.45290  1.0000 -0.0894533676
O   O1        1.0  0.98883  0.70415  0.50742  1.0000 -0.5567722275
O   O2        1.0  0.70415  0.50742  0.98883  1.0000 -0.5567722275
O   O3        1.0  0.50742  0.98883  0.70415  1.0000 -0.5567722275
O   O4        1.0  0.51117  0.99258  0.79585  1.0000 -0.5567722275
O   O5        1.0  0.79585  0.51117  0.99258  1.0000 -0.5567722275
O   O6        1.0  0.99258  0.79585  0.51117  1.0000 -0.5567722275
O   O7        1.0  0.01117  0.29585  0.49258  1.0000 -0.5567722275
O   O8        1.0  0.29585  0.49258  0.01117  1.0000 -0.5567722275
O   O9        1.0  0.49258  0.01117  0.29585  1.0000 -0.5567722275
O   O10       1.0  0.48883  0.00742  0.20415  1.0000 -0.5567722275
O   O11       1.0  0.20415  0.48883  0.00742  1.0000 -0.5567722275
O   O12       1.0  0.00742  0.20415  0.48883  1.0000 -0.5567722275
O   O13       1.0  0.01184  0.67611  0.56846  1.0000 -0.619191046
O   O14       1.0  0.67611  0.56846  0.01184  1.0000 -0.619191046
O   O15       1.0  0.56846  0.01184  0.67611  1.0000 -0.619191046
O   O16       1.0  0.48816  0.93154  0.82389  1.0000 -0.619191046
O   O17       1.0  0.82389  0.48816  0.93154  1.0000 -0.619191046
O   O18       1.0  0.93154  0.82389  0.48816  1.0000 -0.619191046
O   O19       1.0  0.98816  0.32389  0.43154  1.0000 -0.619191046
O   O20       1.0  0.32389  0.43154  0.98816  1.0000 -0.619191046
O   O21       1.0  0.43154  0.98816  0.32389  1.0000 -0.619191046
O   O22       1.0  0.51184  0.06846  0.17611  1.0000 -0.619191046
O   O23       1.0  0.17611  0.51184  0.06846  1.0000 -0.619191046
O   O24       1.0  0.06846  0.17611  0.51184  1.0000 -0.619191046
O   O25       1.0  0.59879  0.82668  0.33078  1.0000 -0.4458202277
O   O26       1.0  0.82668  0.33078  0.59879  1.0000 -0.4441636192
O   O27       1.0  0.33078  0.59879  0.82668  1.0000 -0.4441636192
O   O28       1.0  0.90121  0.16922  0.67332  1.0000 -0.4458202277
O   O29       1.0  0.67332  0.90121  0.16922  1.0000 -0.4458202277
O   O30       1.0  0.16922  0.67332  0.90121  1.0000 -0.4441636192
O   O31       1.0  0.40121  0.17332  0.66922  1.0000 -0.4441636192
O   O32       1.0  0.17332  0.66922  0.40121  1.0000 -0.4441636192
O   O33       1.0  0.66922  0.40121  0.17332  1.0000 -0.4441636192
O   O34       1.0  0.09879  0.83078  0.32668  1.0000 -0.4441636192
O   O35       1.0  0.32668  0.09879  0.83078  1.0000 -0.4441636192
O   O36       1.0  0.83078  0.32668  0.09879  1.0000 -0.4441636192
O   O37       1.0  0.62832  0.88567  0.29536  1.0000 -0.5284475192
O   O38       1.0  0.88567  0.29536  0.62832  1.0000 -0.5284475192
O   O39       1.0  0.29536  0.62832  0.88567  1.0000 -0.5284475192
O   O40       1.0  0.87168  0.20464  0.61433  1.0000 -0.5284475192
O   O41       1.0  0.61433  0.87168  0.20464  1.0000 -0.5284475192
O   O42       1.0  0.20464  0.61433  0.87168  1.0000 -0.5284475192
O   O43       1.0  0.37168  0.11433  0.70464  1.0000 -0.5284475192
O   O44       1.0  0.11433  0.70464  0.37168  1.0000 -0.5284475192
O   O45       1.0  0.70464  0.37168  0.11433  1.0000 -0.5284475192
O   O46       1.0  0.12832  0.79536  0.38567  1.0000 -0.5284475192
O   O47       1.0  0.38567  0.12832  0.79536  1.0000 -0.5284475192
O   O48       1.0  0.79536  0.38567  0.12832  1.0000 -0.5284475192
O   O49       1.0  0.89358  0.39112  0.47728  1.0000 -0.606876339
O   O50       1.0  0.39112  0.47728  0.89358  1.0000 -0.606876339
O   O51       1.0  0.47728  0.89358  0.39112  1.0000 -0.606876339
O   O52       1.0  0.60642  0.02272  0.10888  1.0000 -0.606876339
O   O53       1.0  0.10888  0.60642  0.02272  1.0000 -0.606876339
O   O54       1.0  0.02272  0.10888  0.60642  1.0000 -0.606876339
O   O55       1.0  0.10642  0.60888  0.52272  1.0000 -0.606876339
O   O56       1.0  0.60888  0.52272  0.10642  1.0000 -0.606876339
O   O57       1.0  0.52272  0.10642  0.60888  1.0000 -0.606876339
O   O58       1.0  0.39358  0.97728  0.89112  1.0000 -0.606876339
O   O59       1.0  0.89112  0.39358  0.97728  1.0000 -0.606876339
O   O60       1.0  0.97728  0.89112  0.39358  1.0000 -0.606876339
O   O61       1.0  0.91605  0.37267  0.53449  1.0000 -0.5677951628
O   O62       1.0  0.37267  0.53449  0.91605  1.0000 -0.5677951628
O   O63       1.0  0.53449  0.91605  0.37267  1.0000 -0.5677951628
O   O64       1.0  0.58395  0.96551  0.12733  1.0000 -0.5677951628
O   O65       1.0  0.12733  0.58395  0.96551  1.0000 -0.5677951628
O   O66       1.0  0.96551  0.12733  0.58395  1.0000 -0.5677951628
O   O67       1.0  0.08395  0.62733  0.46551  1.0000 -0.5677951628
O   O68       1.0  0.62733  0.46551  0.08395  1.0000 -0.5677951628
O   O69       1.0  0.46551  0.08395  0.62733  1.0000 -0.5677951628
O   O70       1.0  0.41605  0.03449  0.87267  1.0000 -0.5677951628
O   O71       1.0  0.87267  0.41605  0.03449  1.0000 -0.5677951628
O   O72       1.0  0.03449  0.87267  0.41605  1.0000 -0.5677951628
O   O73       1.0  0.00954  0.71466  0.41362  1.0000 -0.5429659391
O   O74       1.0  0.71466  0.41362  0.00954  1.0000 -0.5429659391
O   O75       1.0  0.41362  0.00954  0.71466  1.0000 -0.5429659391
O   O76       1.0  0.49046  0.08638  0.78534  1.0000 -0.5429659391
O   O77       1.0  0.78534  0.49046  0.08638  1.0000 -0.5429659391
O   O78       1.0  0.08638  0.78534  0.49046  1.0000 -0.5429659391
O   O79       1.0  0.99046  0.28534  0.58638  1.0000 -0.5429659391
O   O80       1.0  0.28534  0.58638  0.99046  1.0000 -0.5429659391
O   O81       1.0  0.58638  0.99046  0.28534  1.0000 -0.5429659391
O   O82       1.0  0.50954  0.91362  0.21466  1.0000 -0.5429659391
O   O83       1.0  0.21466  0.50954  0.91362  1.0000 -0.5429659391
O   O84       1.0  0.91362  0.21466  0.50954  1.0000 -0.5429659391
O   O85       1.0  0.94221  0.78234  0.43007  1.0000 -0.6364014252
O   O86       1.0  0.78234  0.43007  0.94221  1.0000 -0.6364014252
O   O87       1.0  0.43007  0.94221  0.78234  1.0000 -0.6364014252
O   O88       1.0  0.55779  0.06993  0.71766  1.0000 -0.6364014252
O   O89       1.0  0.71766  0.55779  0.06993  1.0000 -0.6364014252
O   O90       1.0  0.06993  0.71766  0.55779  1.0000 -0.6364014252
O   O91       1.0  0.05779  0.21766  0.56993  1.0000 -0.6364014252
O   O92       1.0  0.21766  0.56993  0.05779  1.0000 -0.6364014252
O   O93       1.0  0.56993  0.05779  0.21766  1.0000 -0.6364014252
O   O94       1.0  0.44221  0.93007  0.28234  1.0000 -0.6364014252
O   O95       1.0  0.28234  0.44221  0.93007  1.0000 -0.6364014252
O   O96       1.0  0.93007  0.28234  0.44221  1.0000 -0.6364014252
O   O97       1.0  0.03125  0.78800  0.41079  1.0000 -0.9792879774
O   O98       1.0  0.78800  0.41079  0.03125  1.0000 -0.9792879774
O   O99       1.0  0.41079  0.03125  0.78800  1.0000 -0.9792879774
O   O100      1.0  0.46875  0.08921  0.71200  1.0000 -0.9792879774
O   O101      1.0  0.71200  0.46875  0.08921  1.0000 -0.9792879774
O   O102      1.0  0.08921  0.71200  0.46875  1.0000 -0.9792879774
O   O103      1.0  0.96875  0.21200  0.58921  1.0000 -0.9792879774
O   O104      1.0  0.21200  0.58921  0.96875  1.0000 -0.9792879774
O   O105      1.0  0.58921  0.96875  0.21200  1.0000 -0.9792879774
O   O106      1.0  0.53125  0.91079  0.28800  1.0000 -0.9792879774
O   O107      1.0  0.28800  0.53125  0.91079  1.0000 -0.9792879774
O   O108      1.0  0.91079  0.28800  0.53125  1.0000 -0.9792879774
