# DDEC6 charges by PACMAN v1.1 (https://github.com/mtap-research/PACMAN-charge/)
data_2012[Co][nan]3[ASR]2
_chemical_formula_sum              "Co24 P16 H192 C336 O112"
_cell_length_a       19.536
_cell_length_b       24.875
_cell_length_c       24.9627
_cell_angle_alpha    90
_cell_angle_beta     90
_cell_angle_gamma    90

_symmetry_space_group_name_H-M    "P 1"
_symmetry_Int_Tables_number       1

loop_
  _symmetry_equiv_pos_as_xyz
  'x, y, z'

loop_
  _atom_site_type_symbol
  _atom_site_label
  _atom_site_symmetry_multiplicity
  _atom_site_fract_x
  _atom_site_fract_y
  _atom_site_fract_z
  _atom_site_occupancy
  _atom_site_charge
Co  Co1       1.0  0.91720  0.90656  0.07798  1.0000 1.0317776924
Co  Co2       1.0  0.41720  0.09344  0.42202  1.0000 1.0317776924
Co  Co3       1.0  0.08280  0.59344  0.57798  1.0000 1.0317776924
Co  Co4       1.0  0.58280  0.40656  0.92202  1.0000 1.0317776924
Co  Co5       1.0  0.08280  0.09344  0.92202  1.0000 1.0317776924
Co  Co6       1.0  0.58280  0.90656  0.57798  1.0000 1.0317776924
Co  Co7       1.0  0.91720  0.40656  0.42202  1.0000 1.0317776924
Co  Co8       1.0  0.41720  0.59344  0.07798  1.0000 1.0317776924
Co  Co9       1.0  0.75052  0.94039  0.12444  1.0000 1.116649968
Co  Co10      1.0  0.25052  0.05961  0.37556  1.0000 1.116649968
Co  Co11      1.0  0.24948  0.55961  0.62444  1.0000 1.116649968
Co  Co12      1.0  0.74948  0.44039  0.87556  1.0000 1.116649968
Co  Co13      1.0  0.24948  0.05961  0.87556  1.0000 1.116649968
Co  Co14      1.0  0.74948  0.94039  0.62444  1.0000 1.116649968
Co  Co15      1.0  0.75052  0.44039  0.37556  1.0000 1.116649968
Co  Co16      1.0  0.25052  0.55961  0.12444  1.0000 1.116649968
Co  Co17      1.0  0.08054  0.52719  0.08235  1.0000 1.010045213
Co  Co18      1.0  0.58054  0.47281  0.41765  1.0000 1.010045213
Co  Co19      1.0  0.91946  0.97281  0.58235  1.0000 1.010045213
Co  Co20      1.0  0.41946  0.02719  0.91765  1.0000 1.010045213
Co  Co21      1.0  0.91946  0.47281  0.91765  1.0000 1.010045213
Co  Co22      1.0  0.41946  0.52719  0.58235  1.0000 1.010045213
Co  Co23      1.0  0.08054  0.02719  0.41765  1.0000 1.010045213
Co  Co24      1.0  0.58054  0.97281  0.08235  1.0000 1.010045213
P   P1        1.0  0.91677  0.76267  0.40296  1.0000 0.8363544767
P   P2        1.0  0.41677  0.23733  0.09704  1.0000 0.8363544767
P   P3        1.0  0.08323  0.73733  0.90296  1.0000 0.8363544767
P   P4        1.0  0.58323  0.26267  0.59704  1.0000 0.8363544767
P   P5        1.0  0.08323  0.23733  0.59704  1.0000 0.8363544767
P   P6        1.0  0.58323  0.76267  0.90296  1.0000 0.8363544767
P   P7        1.0  0.91677  0.26267  0.09704  1.0000 0.8363544767
P   P8        1.0  0.41677  0.73733  0.40296  1.0000 0.8363544767
P   P9        1.0  0.08934  0.88186  0.09590  1.0000 0.871448723
P   P10       1.0  0.58934  0.11814  0.40410  1.0000 0.871448723
P   P11       1.0  0.91066  0.61814  0.59590  1.0000 0.871448723
P   P12       1.0  0.41066  0.38186  0.90410  1.0000 0.871448723
P   P13       1.0  0.91066  0.11814  0.90410  1.0000 0.871448723
P   P14       1.0  0.41066  0.88186  0.59590  1.0000 0.871448723
P   P15       1.0  0.08934  0.38186  0.40410  1.0000 0.871448723
P   P16       1.0  0.58934  0.61814  0.09590  1.0000 0.871448723
H   H1        1.0  0.99560  0.78910  0.31100  1.0000 0.1281885384
H   H2        1.0  0.49560  0.21090  0.18900  1.0000 0.1281885384
H   H3        1.0  0.00440  0.71090  0.81100  1.0000 0.1281885384
H   H4        1.0  0.50440  0.28910  0.68900  1.0000 0.1281885384
H   H5        1.0  0.00440  0.21090  0.68900  1.0000 0.1281885384
H   H6        1.0  0.50440  0.78910  0.81100  1.0000 0.1281885384
H   H7        1.0  0.99560  0.28910  0.18900  1.0000 0.1281885384
H   H8        1.0  0.49560  0.71090  0.31100  1.0000 0.1281885384
H   H9        1.0  0.97550  0.83080  0.22770  1.0000 0.1217481726
H   H10       1.0  0.47550  0.16920  0.27230  1.0000 0.1217481726
H   H11       1.0  0.02450  0.66920  0.72770  1.0000 0.1217481726
H   H12       1.0  0.52450  0.33080  0.77230  1.0000 0.1217481726
H   H13       1.0  0.02450  0.16920  0.77230  1.0000 0.1217481726
H   H14       1.0  0.52450  0.83080  0.72770  1.0000 0.1217481726
H   H15       1.0  0.97550  0.33080  0.27230  1.0000 0.1217481726
H   H16       1.0  0.47550  0.66920  0.22770  1.0000 0.1217481726
H   H17       1.0  0.77490  0.84500  0.26450  1.0000 0.1281885384
H   H18       1.0  0.27490  0.15500  0.23550  1.0000 0.1281885384
H   H19       1.0  0.22510  0.65500  0.76450  1.0000 0.1281885384
H   H20       1.0  0.72510  0.34500  0.73550  1.0000 0.1281885384
H   H21       1.0  0.22510  0.15500  0.73550  1.0000 0.1281885384
H   H22       1.0  0.72510  0.84500  0.76450  1.0000 0.1281885384
H   H23       1.0  0.77490  0.34500  0.23550  1.0000 0.1281885384
H   H24       1.0  0.27490  0.65500  0.26450  1.0000 0.1281885384
H   H25       1.0  0.79520  0.80080  0.34610  1.0000 0.1096692613
H   H26       1.0  0.29520  0.19920  0.15390  1.0000 0.1096692613
H   H27       1.0  0.20480  0.69920  0.84610  1.0000 0.1096692613
H   H28       1.0  0.70480  0.30080  0.65390  1.0000 0.1096692613
H   H29       1.0  0.20480  0.19920  0.65390  1.0000 0.1096692613
H   H30       1.0  0.70480  0.80080  0.84610  1.0000 0.1096692613
H   H31       1.0  0.79520  0.30080  0.15390  1.0000 0.1096692613
H   H32       1.0  0.29520  0.69920  0.34610  1.0000 0.1096692613
H   H33       1.0  0.97840  0.67300  0.45320  1.0000 0.1281885384
H   H34       1.0  0.47840  0.32700  0.04680  1.0000 0.1281885384
H   H35       1.0  0.02160  0.82700  0.95320  1.0000 0.1281885384
H   H36       1.0  0.52160  0.17300  0.54680  1.0000 0.1281885384
H   H37       1.0  0.02160  0.32700  0.54680  1.0000 0.1281885384
H   H38       1.0  0.52160  0.67300  0.95320  1.0000 0.1281885384
H   H39       1.0  0.97840  0.17300  0.04680  1.0000 0.1281885384
H   H40       1.0  0.47840  0.82700  0.45320  1.0000 0.1281885384
H   H41       1.0  0.96280  0.57900  0.45280  1.0000 0.1281885384
H   H42       1.0  0.46280  0.42100  0.04720  1.0000 0.1281885384
H   H43       1.0  0.03720  0.92100  0.95280  1.0000 0.1281885384
H   H44       1.0  0.53720  0.07900  0.54720  1.0000 0.1281885384
H   H45       1.0  0.03720  0.42100  0.54720  1.0000 0.1281885384
H   H46       1.0  0.53720  0.57900  0.95280  1.0000 0.1281885384
H   H47       1.0  0.96280  0.07900  0.04720  1.0000 0.1281885384
H   H48       1.0  0.46280  0.92100  0.45280  1.0000 0.1281885384
H   H49       1.0  0.81590  0.59600  0.33840  1.0000 0.1281885384
H   H50       1.0  0.31590  0.40400  0.16160  1.0000 0.1281885384
H   H51       1.0  0.18410  0.90400  0.83840  1.0000 0.1281885384
H   H52       1.0  0.68410  0.09600  0.66160  1.0000 0.1281885384
H   H53       1.0  0.18410  0.40400  0.66160  1.0000 0.1281885384
H   H54       1.0  0.68410  0.59600  0.83840  1.0000 0.1281885384
H   H55       1.0  0.81590  0.09600  0.16160  1.0000 0.1281885384
H   H56       1.0  0.31590  0.90400  0.33840  1.0000 0.1281885384
H   H57       1.0  0.83240  0.68920  0.33950  1.0000 0.1096692613
H   H58       1.0  0.33240  0.31080  0.16050  1.0000 0.1096692613
H   H59       1.0  0.16760  0.81080  0.83950  1.0000 0.1096692613
H   H60       1.0  0.66760  0.18920  0.66050  1.0000 0.1096692613
H   H61       1.0  0.16760  0.31080  0.66050  1.0000 0.1096692613
H   H62       1.0  0.66760  0.68920  0.83950  1.0000 0.1096692613
H   H63       1.0  0.83240  0.18920  0.16050  1.0000 0.1096692613
H   H64       1.0  0.33240  0.81080  0.33950  1.0000 0.1096692613
H   H65       1.0  0.89250  0.85940  0.45770  1.0000 0.1281885384
H   H66       1.0  0.39250  0.14060  0.04230  1.0000 0.1281885384
H   H67       1.0  0.10750  0.64060  0.95770  1.0000 0.1281885384
H   H68       1.0  0.60750  0.35940  0.54230  1.0000 0.1281885384
H   H69       1.0  0.10750  0.14060  0.54230  1.0000 0.1281885384
H   H70       1.0  0.60750  0.85940  0.95770  1.0000 0.1281885384
H   H71       1.0  0.89250  0.35940  0.04230  1.0000 0.1281885384
H   H72       1.0  0.39250  0.64060  0.45770  1.0000 0.1281885384
H   H73       1.0  0.80290  0.89790  0.50800  1.0000 0.1217481726
H   H74       1.0  0.30290  0.10210  0.99200  1.0000 0.1217481726
H   H75       1.0  0.19710  0.60210  0.00800  1.0000 0.1217481726
H   H76       1.0  0.69710  0.39790  0.49200  1.0000 0.1217481726
H   H77       1.0  0.19710  0.10210  0.49200  1.0000 0.1217481726
H   H78       1.0  0.69710  0.89790  0.00800  1.0000 0.1217481726
H   H79       1.0  0.80290  0.39790  0.99200  1.0000 0.1217481726
H   H80       1.0  0.30290  0.60210  0.50800  1.0000 0.1217481726
H   H81       1.0  0.69810  0.75710  0.49750  1.0000 0.1217481726
H   H82       1.0  0.19810  0.24290  0.00250  1.0000 0.1217481726
H   H83       1.0  0.30190  0.74290  0.99750  1.0000 0.1217481726
H   H84       1.0  0.80190  0.25710  0.50250  1.0000 0.1217481726
H   H85       1.0  0.30190  0.24290  0.50250  1.0000 0.1217481726
H   H86       1.0  0.80190  0.75710  0.99750  1.0000 0.1217481726
H   H87       1.0  0.69810  0.25710  0.00250  1.0000 0.1217481726
H   H88       1.0  0.19810  0.74290  0.49750  1.0000 0.1217481726
H   H89       1.0  0.78420  0.72030  0.44560  1.0000 0.1096692613
H   H90       1.0  0.28420  0.27970  0.05440  1.0000 0.1096692613
H   H91       1.0  0.21580  0.77970  0.94560  1.0000 0.1096692613
H   H92       1.0  0.71580  0.22030  0.55440  1.0000 0.1096692613
H   H93       1.0  0.21580  0.27970  0.55440  1.0000 0.1096692613
H   H94       1.0  0.71580  0.72030  0.94560  1.0000 0.1096692613
H   H95       1.0  0.78420  0.22030  0.05440  1.0000 0.1096692613
H   H96       1.0  0.28420  0.77970  0.44560  1.0000 0.1096692613
H   H97       1.0  0.18100  0.80960  0.15410  1.0000 0.1096692613
H   H98       1.0  0.68100  0.19040  0.34590  1.0000 0.1096692613
H   H99       1.0  0.81900  0.69040  0.65410  1.0000 0.1096692613
H   H100      1.0  0.31900  0.30960  0.84590  1.0000 0.1096692613
H   H101      1.0  0.81900  0.19040  0.84590  1.0000 0.1096692613
H   H102      1.0  0.31900  0.80960  0.65410  1.0000 0.1096692613
H   H103      1.0  0.18100  0.30960  0.34590  1.0000 0.1096692613
H   H104      1.0  0.68100  0.69040  0.15410  1.0000 0.1096692613
H   H105      1.0  0.19500  0.71660  0.15700  1.0000 0.1281885384
H   H106      1.0  0.69500  0.28340  0.34300  1.0000 0.1281885384
H   H107      1.0  0.80500  0.78340  0.65700  1.0000 0.1281885384
H   H108      1.0  0.30500  0.21660  0.84300  1.0000 0.1281885384
H   H109      1.0  0.80500  0.28340  0.84300  1.0000 0.1281885384
H   H110      1.0  0.30500  0.71660  0.65700  1.0000 0.1281885384
H   H111      1.0  0.19500  0.21660  0.34300  1.0000 0.1281885384
H   H112      1.0  0.69500  0.78340  0.15700  1.0000 0.1281885384
H   H113      1.0  0.02690  0.69730  0.06280  1.0000 0.1281885384
H   H114      1.0  0.52690  0.30270  0.43720  1.0000 0.1281885384
H   H115      1.0  0.97310  0.80270  0.56280  1.0000 0.1281885384
H   H116      1.0  0.47310  0.19730  0.93720  1.0000 0.1281885384
H   H117      1.0  0.97310  0.30270  0.93720  1.0000 0.1281885384
H   H118      1.0  0.47310  0.69730  0.56280  1.0000 0.1281885384
H   H119      1.0  0.02690  0.19730  0.43720  1.0000 0.1281885384
H   H120      1.0  0.52690  0.80270  0.06280  1.0000 0.1281885384
H   H121      1.0  0.01590  0.79090  0.05600  1.0000 0.1281885384
H   H122      1.0  0.51590  0.20910  0.44400  1.0000 0.1281885384
H   H123      1.0  0.98410  0.70910  0.55600  1.0000 0.1281885384
H   H124      1.0  0.48410  0.29090  0.94400  1.0000 0.1281885384
H   H125      1.0  0.98410  0.20910  0.94400  1.0000 0.1281885384
H   H126      1.0  0.48410  0.79090  0.55600  1.0000 0.1281885384
H   H127      1.0  0.01590  0.29090  0.44400  1.0000 0.1281885384
H   H128      1.0  0.51590  0.70910  0.05600  1.0000 0.1281885384
H   H129      1.0  0.21080  0.90970  0.15680  1.0000 0.1096692613
H   H130      1.0  0.71080  0.09030  0.34320  1.0000 0.1096692613
H   H131      1.0  0.78920  0.59030  0.65680  1.0000 0.1096692613
H   H132      1.0  0.28920  0.40970  0.84320  1.0000 0.1096692613
H   H133      1.0  0.78920  0.09030  0.84320  1.0000 0.1096692613
H   H134      1.0  0.28920  0.90970  0.65680  1.0000 0.1096692613
H   H135      1.0  0.21080  0.40970  0.34320  1.0000 0.1096692613
H   H136      1.0  0.71080  0.59030  0.15680  1.0000 0.1096692613
H   H137      1.0  0.23030  0.95340  0.23890  1.0000 0.1281885384
H   H138      1.0  0.73030  0.04660  0.26110  1.0000 0.1281885384
H   H139      1.0  0.76970  0.54660  0.73890  1.0000 0.1281885384
H   H140      1.0  0.26970  0.45340  0.76110  1.0000 0.1281885384
H   H141      1.0  0.76970  0.04660  0.76110  1.0000 0.1281885384
H   H142      1.0  0.26970  0.95340  0.73890  1.0000 0.1281885384
H   H143      1.0  0.23030  0.45340  0.26110  1.0000 0.1281885384
H   H144      1.0  0.73030  0.54660  0.23890  1.0000 0.1281885384
H   H145      1.0  0.02610  0.96870  0.26090  1.0000 0.1281885384
H   H146      1.0  0.52610  0.03130  0.23910  1.0000 0.1281885384
H   H147      1.0  0.97390  0.53130  0.76090  1.0000 0.1281885384
H   H148      1.0  0.47390  0.46870  0.73910  1.0000 0.1281885384
H   H149      1.0  0.97390  0.03130  0.73910  1.0000 0.1281885384
H   H150      1.0  0.47390  0.96870  0.76090  1.0000 0.1281885384
H   H151      1.0  0.02610  0.46870  0.23910  1.0000 0.1281885384
H   H152      1.0  0.52610  0.53130  0.26090  1.0000 0.1281885384
H   H153      1.0  0.00660  0.92460  0.17930  1.0000 0.1217481726
H   H154      1.0  0.50660  0.07540  0.32070  1.0000 0.1217481726
H   H155      1.0  0.99340  0.57540  0.67930  1.0000 0.1217481726
H   H156      1.0  0.49340  0.42460  0.82070  1.0000 0.1217481726
H   H157      1.0  0.99340  0.07540  0.82070  1.0000 0.1217481726
H   H158      1.0  0.49340  0.92460  0.67930  1.0000 0.1217481726
H   H159      1.0  0.00660  0.42460  0.32070  1.0000 0.1217481726
H   H160      1.0  0.50660  0.57540  0.17930  1.0000 0.1217481726
H   H161      1.0  0.21110  0.83520  0.04130  1.0000 0.1096692613
H   H162      1.0  0.71110  0.16480  0.45870  1.0000 0.1096692613
H   H163      1.0  0.78890  0.66480  0.54130  1.0000 0.1096692613
H   H164      1.0  0.28890  0.33520  0.95870  1.0000 0.1096692613
H   H165      1.0  0.78890  0.16480  0.95870  1.0000 0.1096692613
H   H166      1.0  0.28890  0.83520  0.54130  1.0000 0.1096692613
H   H167      1.0  0.21110  0.33520  0.45870  1.0000 0.1096692613
H   H168      1.0  0.71110  0.66480  0.04130  1.0000 0.1096692613
H   H169      1.0  0.29880  0.87260  0.98990  1.0000 0.1217481726
H   H170      1.0  0.79880  0.12740  0.51010  1.0000 0.1217481726
H   H171      1.0  0.70120  0.62740  0.48990  1.0000 0.1217481726
H   H172      1.0  0.20120  0.37260  0.01010  1.0000 0.1217481726
H   H173      1.0  0.70120  0.12740  0.01010  1.0000 0.1217481726
H   H174      1.0  0.20120  0.87260  0.48990  1.0000 0.1217481726
H   H175      1.0  0.29880  0.37260  0.51010  1.0000 0.1217481726
H   H176      1.0  0.79880  0.62740  0.98990  1.0000 0.1217481726
H   H177      1.0  0.20970  0.01860  0.99920  1.0000 0.1281885384
H   H178      1.0  0.70970  0.98140  0.50080  1.0000 0.1281885384
H   H179      1.0  0.79030  0.48140  0.49920  1.0000 0.1281885384
H   H180      1.0  0.29030  0.51860  0.00080  1.0000 0.1281885384
H   H181      1.0  0.79030  0.98140  0.00080  1.0000 0.1281885384
H   H182      1.0  0.29030  0.01860  0.49920  1.0000 0.1281885384
H   H183      1.0  0.20970  0.51860  0.50080  1.0000 0.1281885384
H   H184      1.0  0.70970  0.48140  0.99920  1.0000 0.1281885384
H   H185      1.0  0.12250  0.98230  0.05140  1.0000 0.1281885384
H   H186      1.0  0.62250  0.01770  0.44860  1.0000 0.1281885384
H   H187      1.0  0.87750  0.51770  0.55140  1.0000 0.1281885384
H   H188      1.0  0.37750  0.48230  0.94860  1.0000 0.1281885384
H   H189      1.0  0.87750  0.01770  0.94860  1.0000 0.1281885384
H   H190      1.0  0.37750  0.98230  0.55140  1.0000 0.1281885384
H   H191      1.0  0.12250  0.48230  0.44860  1.0000 0.1281885384
H   H192      1.0  0.62250  0.51770  0.05140  1.0000 0.1281885384
C   C1        1.0  0.89780  0.79240  0.33720  1.0000 -0.1391176159
C   C2        1.0  0.39780  0.20760  0.16280  1.0000 -0.1391176159
C   C3        1.0  0.10220  0.70760  0.83720  1.0000 -0.1391176159
C   C4        1.0  0.60220  0.29240  0.66280  1.0000 -0.1391176159
C   C5        1.0  0.10220  0.20760  0.66280  1.0000 -0.1391176159
C   C6        1.0  0.60220  0.79240  0.83720  1.0000 -0.1391176159
C   C7        1.0  0.89780  0.29240  0.16280  1.0000 -0.1391176159
C   C8        1.0  0.39780  0.70760  0.33720  1.0000 -0.1391176159
C   C9        1.0  0.95070  0.80050  0.30190  1.0000 -0.0899702449
C   C10       1.0  0.45070  0.19950  0.19810  1.0000 -0.0899702449
C   C11       1.0  0.04930  0.69950  0.80190  1.0000 -0.0899702449
C   C12       1.0  0.54930  0.30050  0.69810  1.0000 -0.0899702449
C   C13       1.0  0.04930  0.19950  0.69810  1.0000 -0.0899702449
C   C14       1.0  0.54930  0.80050  0.80190  1.0000 -0.0899702449
C   C15       1.0  0.95070  0.30050  0.19810  1.0000 -0.0899702449
C   C16       1.0  0.45070  0.69950  0.30190  1.0000 -0.0899702449
C   C17       1.0  0.93870  0.82600  0.25210  1.0000 -0.0899702449
C   C18       1.0  0.43870  0.17400  0.24790  1.0000 -0.0899702449
C   C19       1.0  0.06130  0.67400  0.75210  1.0000 -0.0899702449
C   C20       1.0  0.56130  0.32600  0.74790  1.0000 -0.0899702449
C   C21       1.0  0.06130  0.17400  0.74790  1.0000 -0.0899702449
C   C22       1.0  0.56130  0.82600  0.75210  1.0000 -0.0899702449
C   C23       1.0  0.93870  0.32600  0.24790  1.0000 -0.0899702449
C   C24       1.0  0.43870  0.67400  0.25210  1.0000 -0.0899702449
C   C25       1.0  0.87390  0.84376  0.23860  1.0000 -0.0169235604
C   C26       1.0  0.37390  0.15624  0.26140  1.0000 -0.0169235604
C   C27       1.0  0.12610  0.65624  0.73860  1.0000 -0.0169235604
C   C28       1.0  0.62610  0.34376  0.76140  1.0000 -0.0169235604
C   C29       1.0  0.12610  0.15624  0.76140  1.0000 -0.0169235604
C   C30       1.0  0.62610  0.84376  0.73860  1.0000 -0.0169235604
C   C31       1.0  0.87390  0.34376  0.26140  1.0000 -0.0169235604
C   C32       1.0  0.37390  0.65624  0.23860  1.0000 -0.0169235604
C   C33       1.0  0.86100  0.87400  0.18700  1.0000 0.6027298127
C   C34       1.0  0.36100  0.12600  0.31300  1.0000 0.6027298127
C   C35       1.0  0.13900  0.62600  0.68700  1.0000 0.6027298127
C   C36       1.0  0.63900  0.37400  0.81300  1.0000 0.6027298127
C   C37       1.0  0.13900  0.12600  0.81300  1.0000 0.6027298127
C   C38       1.0  0.63900  0.87400  0.68700  1.0000 0.6027298127
C   C39       1.0  0.86100  0.37400  0.31300  1.0000 0.6027298127
C   C40       1.0  0.36100  0.62600  0.18700  1.0000 0.6027298127
C   C41       1.0  0.82000  0.83400  0.27370  1.0000 -0.0899702449
C   C42       1.0  0.32000  0.16600  0.22630  1.0000 -0.0899702449
C   C43       1.0  0.18000  0.66600  0.77370  1.0000 -0.0899702449
C   C44       1.0  0.68000  0.33400  0.72630  1.0000 -0.0899702449
C   C45       1.0  0.18000  0.16600  0.72630  1.0000 -0.0899702449
C   C46       1.0  0.68000  0.83400  0.77370  1.0000 -0.0899702449
C   C47       1.0  0.82000  0.33400  0.22630  1.0000 -0.0899702449
C   C48       1.0  0.32000  0.66600  0.27370  1.0000 -0.0899702449
C   C49       1.0  0.83240  0.80790  0.32260  1.0000 -0.0980903772
C   C50       1.0  0.33240  0.19210  0.17740  1.0000 -0.0980903772
C   C51       1.0  0.16760  0.69210  0.82260  1.0000 -0.0980903772
C   C52       1.0  0.66760  0.30790  0.67740  1.0000 -0.0980903772
C   C53       1.0  0.16760  0.19210  0.67740  1.0000 -0.0980903772
C   C54       1.0  0.66760  0.80790  0.82260  1.0000 -0.0980903772
C   C55       1.0  0.83240  0.30790  0.17740  1.0000 -0.0980903772
C   C56       1.0  0.33240  0.69210  0.32260  1.0000 -0.0980903772
C   C57       1.0  0.90690  0.69032  0.39750  1.0000 -0.1526707802
C   C58       1.0  0.40690  0.30968  0.10250  1.0000 -0.1526707802
C   C59       1.0  0.09310  0.80968  0.89750  1.0000 -0.1526707802
C   C60       1.0  0.59310  0.19032  0.60250  1.0000 -0.1526707802
C   C61       1.0  0.09310  0.30968  0.60250  1.0000 -0.1526707802
C   C62       1.0  0.59310  0.69032  0.89750  1.0000 -0.1526707802
C   C63       1.0  0.90690  0.19032  0.10250  1.0000 -0.1526707802
C   C64       1.0  0.40690  0.80968  0.39750  1.0000 -0.1526707802
C   C65       1.0  0.94520  0.65750  0.43000  1.0000 -0.0787675464
C   C66       1.0  0.44520  0.34250  0.07000  1.0000 -0.0787675464
C   C67       1.0  0.05480  0.84250  0.93000  1.0000 -0.0787675464
C   C68       1.0  0.55480  0.15750  0.57000  1.0000 -0.0787675464
C   C69       1.0  0.05480  0.34250  0.57000  1.0000 -0.0787675464
C   C70       1.0  0.55480  0.65750  0.93000  1.0000 -0.0787675464
C   C71       1.0  0.94520  0.15750  0.07000  1.0000 -0.0787675464
C   C72       1.0  0.44520  0.84250  0.43000  1.0000 -0.0787675464
C   C73       1.0  0.93630  0.60110  0.42960  1.0000 -0.0899702449
C   C74       1.0  0.43630  0.39890  0.07040  1.0000 -0.0899702449
C   C75       1.0  0.06370  0.89890  0.92960  1.0000 -0.0899702449
C   C76       1.0  0.56370  0.10110  0.57040  1.0000 -0.0899702449
C   C77       1.0  0.06370  0.39890  0.57040  1.0000 -0.0899702449
C   C78       1.0  0.56370  0.60110  0.92960  1.0000 -0.0899702449
C   C79       1.0  0.93630  0.10110  0.07040  1.0000 -0.0899702449
C   C80       1.0  0.43630  0.89890  0.42960  1.0000 -0.0899702449
C   C81       1.0  0.88820  0.57782  0.39490  1.0000 -0.0109847462
C   C82       1.0  0.38820  0.42218  0.10510  1.0000 -0.0109847462
C   C83       1.0  0.11180  0.92218  0.89490  1.0000 -0.0109847462
C   C84       1.0  0.61180  0.07782  0.60510  1.0000 -0.0109847462
C   C85       1.0  0.11180  0.42218  0.60510  1.0000 -0.0109847462
C   C86       1.0  0.61180  0.57782  0.89490  1.0000 -0.0109847462
C   C87       1.0  0.88820  0.07782  0.10510  1.0000 -0.0109847462
C   C88       1.0  0.38820  0.92218  0.39490  1.0000 -0.0109847462
C   C89       1.0  0.87550  0.51810  0.39490  1.0000 0.594958139
C   C90       1.0  0.37550  0.48190  0.10510  1.0000 0.594958139
C   C91       1.0  0.12450  0.98190  0.89490  1.0000 0.6027298127
C   C92       1.0  0.62450  0.01810  0.60510  1.0000 0.6027298127
C   C93       1.0  0.12450  0.48190  0.60510  1.0000 0.6027298127
C   C94       1.0  0.62450  0.51810  0.89490  1.0000 0.6027298127
C   C95       1.0  0.87550  0.01810  0.10510  1.0000 0.594958139
C   C96       1.0  0.37550  0.98190  0.39490  1.0000 0.594958139
C   C97       1.0  0.84910  0.61130  0.36170  1.0000 -0.0980903772
C   C98       1.0  0.34910  0.38870  0.13830  1.0000 -0.0980903772
C   C99       1.0  0.15090  0.88870  0.86170  1.0000 -0.0980903772
C   C100      1.0  0.65090  0.11130  0.63830  1.0000 -0.0980903772
C   C101      1.0  0.15090  0.38870  0.63830  1.0000 -0.0980903772
C   C102      1.0  0.65090  0.61130  0.86170  1.0000 -0.0980903772
C   C103      1.0  0.84910  0.11130  0.13830  1.0000 -0.0980903772
C   C104      1.0  0.34910  0.88870  0.36170  1.0000 -0.0980903772
C   C105      1.0  0.85870  0.66690  0.36260  1.0000 -0.0980903772
C   C106      1.0  0.35870  0.33310  0.13740  1.0000 -0.0980903772
C   C107      1.0  0.14130  0.83310  0.86260  1.0000 -0.0980903772
C   C108      1.0  0.64130  0.16690  0.63740  1.0000 -0.0980903772
C   C109      1.0  0.14130  0.33310  0.63740  1.0000 -0.0980903772
C   C110      1.0  0.64130  0.66690  0.86260  1.0000 -0.0980903772
C   C111      1.0  0.85870  0.16690  0.13740  1.0000 -0.0980903772
C   C112      1.0  0.35870  0.83310  0.36260  1.0000 -0.0980903772
C   C113      1.0  0.84770  0.78580  0.44590  1.0000 -0.1526707802
C   C114      1.0  0.34770  0.21420  0.05410  1.0000 -0.1526707802
C   C115      1.0  0.15230  0.71420  0.94590  1.0000 -0.1526707802
C   C116      1.0  0.65230  0.28580  0.55410  1.0000 -0.1526707802
C   C117      1.0  0.15230  0.21420  0.55410  1.0000 -0.1526707802
C   C118      1.0  0.65230  0.78580  0.94590  1.0000 -0.1526707802
C   C119      1.0  0.84770  0.28580  0.05410  1.0000 -0.1526707802
C   C120      1.0  0.34770  0.71420  0.44590  1.0000 -0.1526707802
C   C121      1.0  0.85270  0.83880  0.46530  1.0000 -0.0787675464
C   C122      1.0  0.35270  0.16120  0.03470  1.0000 -0.0787675464
C   C123      1.0  0.14730  0.66120  0.96530  1.0000 -0.0787675464
C   C124      1.0  0.64730  0.33880  0.53470  1.0000 -0.0787675464
C   C125      1.0  0.14730  0.16120  0.53470  1.0000 -0.0787675464
C   C126      1.0  0.64730  0.83880  0.96530  1.0000 -0.0787675464
C   C127      1.0  0.85270  0.33880  0.03470  1.0000 -0.0787675464
C   C128      1.0  0.35270  0.66120  0.46530  1.0000 -0.0787675464
C   C129      1.0  0.79950  0.86185  0.49570  1.0000 -0.0980903772
C   C130      1.0  0.29950  0.13815  0.00430  1.0000 -0.0980903772
C   C131      1.0  0.20050  0.63815  0.99570  1.0000 -0.0980903772
C   C132      1.0  0.70050  0.36185  0.50430  1.0000 -0.0980903772
C   C133      1.0  0.20050  0.13815  0.50430  1.0000 -0.0980903772
C   C134      1.0  0.70050  0.86185  0.99570  1.0000 -0.0980903772
C   C135      1.0  0.79950  0.36185  0.00430  1.0000 -0.0980903772
C   C136      1.0  0.29950  0.63815  0.49570  1.0000 -0.0980903772
C   C137      1.0  0.74150  0.83100  0.50770  1.0000 0.001354913
C   C138      1.0  0.24150  0.16900  0.99230  1.0000 0.001354913
C   C139      1.0  0.25850  0.66900  0.00770  1.0000 0.001354913
C   C140      1.0  0.75850  0.33100  0.49230  1.0000 0.001354913
C   C141      1.0  0.25850  0.16900  0.49230  1.0000 0.001354913
C   C142      1.0  0.75850  0.83100  0.00770  1.0000 0.001354913
C   C143      1.0  0.74150  0.33100  0.99230  1.0000 0.001354913
C   C144      1.0  0.24150  0.66900  0.50770  1.0000 0.001354913
C   C145      1.0  0.68330  0.85630  0.53710  1.0000 0.5722107714
C   C146      1.0  0.18330  0.14370  0.96290  1.0000 0.5722107714
C   C147      1.0  0.31670  0.64370  0.03710  1.0000 0.5722107714
C   C148      1.0  0.81670  0.35630  0.46290  1.0000 0.5722107714
C   C149      1.0  0.31670  0.14370  0.46290  1.0000 0.5722107714
C   C150      1.0  0.81670  0.85630  0.03710  1.0000 0.5722107714
C   C151      1.0  0.68330  0.35630  0.96290  1.0000 0.5722107714
C   C152      1.0  0.18330  0.64370  0.53710  1.0000 0.5722107714
C   C153      1.0  0.73720  0.77810  0.48900  1.0000 -0.0980903772
C   C154      1.0  0.23720  0.22190  0.01100  1.0000 -0.0980903772
C   C155      1.0  0.26280  0.72190  0.98900  1.0000 -0.0980903772
C   C156      1.0  0.76280  0.27810  0.51100  1.0000 -0.0980903772
C   C157      1.0  0.26280  0.22190  0.51100  1.0000 -0.0980903772
C   C158      1.0  0.76280  0.77810  0.98900  1.0000 -0.0980903772
C   C159      1.0  0.73720  0.27810  0.01100  1.0000 -0.0980903772
C   C160      1.0  0.23720  0.72190  0.48900  1.0000 -0.0980903772
C   C161      1.0  0.78860  0.75610  0.45850  1.0000 -0.0980903772
C   C162      1.0  0.28860  0.24390  0.04150  1.0000 -0.0980903772
C   C163      1.0  0.21140  0.74390  0.95850  1.0000 -0.0980903772
C   C164      1.0  0.71140  0.25610  0.54150  1.0000 -0.0980903772
C   C165      1.0  0.21140  0.24390  0.54150  1.0000 -0.0980903772
C   C166      1.0  0.71140  0.75610  0.95850  1.0000 -0.0980903772
C   C167      1.0  0.78860  0.25610  0.04150  1.0000 -0.0980903772
C   C168      1.0  0.28860  0.74390  0.45850  1.0000 -0.0980903772
C   C169      1.0  0.09780  0.81018  0.10448  1.0000 -0.1600605106
C   C170      1.0  0.59780  0.18982  0.39552  1.0000 -0.1600605106
C   C171      1.0  0.90220  0.68982  0.60448  1.0000 -0.1600605106
C   C172      1.0  0.40220  0.31018  0.89552  1.0000 -0.1600605106
C   C173      1.0  0.90220  0.18982  0.89552  1.0000 -0.1600605106
C   C174      1.0  0.40220  0.81018  0.60448  1.0000 -0.1600605106
C   C175      1.0  0.09780  0.31018  0.39552  1.0000 -0.1600605106
C   C176      1.0  0.59780  0.68982  0.10448  1.0000 -0.1600605106
C   C177      1.0  0.15040  0.78712  0.13480  1.0000 -0.0980903772
C   C178      1.0  0.65040  0.21288  0.36520  1.0000 -0.0980903772
C   C179      1.0  0.84960  0.71288  0.63480  1.0000 -0.0980903772
C   C180      1.0  0.34960  0.28712  0.86520  1.0000 -0.0980903772
C   C181      1.0  0.84960  0.21288  0.86520  1.0000 -0.0980903772
C   C182      1.0  0.34960  0.78712  0.63480  1.0000 -0.0980903772
C   C183      1.0  0.15040  0.28712  0.36520  1.0000 -0.0980903772
C   C184      1.0  0.65040  0.71288  0.13480  1.0000 -0.0980903772
C   C185      1.0  0.15850  0.73170  0.13700  1.0000 -0.0980903772
C   C186      1.0  0.65850  0.26830  0.36300  1.0000 -0.0980903772
C   C187      1.0  0.84150  0.76830  0.63700  1.0000 -0.0980903772
C   C188      1.0  0.34150  0.23170  0.86300  1.0000 -0.0980903772
C   C189      1.0  0.84150  0.26830  0.86300  1.0000 -0.0980903772
C   C190      1.0  0.34150  0.73170  0.63700  1.0000 -0.0980903772
C   C191      1.0  0.15850  0.23170  0.36300  1.0000 -0.0980903772
C   C192      1.0  0.65850  0.76830  0.13700  1.0000 -0.0980903772
C   C193      1.0  0.11220  0.69767  0.10930  1.0000 -0.0025711093
C   C194      1.0  0.61220  0.30233  0.39070  1.0000 -0.0025711093
C   C195      1.0  0.88780  0.80233  0.60930  1.0000 -0.0025711093
C   C196      1.0  0.38780  0.19767  0.89070  1.0000 -0.0025711093
C   C197      1.0  0.88780  0.30233  0.89070  1.0000 -0.0025711093
C   C198      1.0  0.38780  0.69767  0.60930  1.0000 -0.0025711093
C   C199      1.0  0.11220  0.19767  0.39070  1.0000 -0.0025711093
C   C200      1.0  0.61220  0.80233  0.10930  1.0000 -0.0025711093
C   C201      1.0  0.12260  0.63730  0.11090  1.0000 0.6027298127
C   C202      1.0  0.62260  0.36270  0.38910  1.0000 0.6027298127
C   C203      1.0  0.87740  0.86270  0.61090  1.0000 0.6027298127
C   C204      1.0  0.37740  0.13730  0.88910  1.0000 0.6027298127
C   C205      1.0  0.87740  0.36270  0.88910  1.0000 0.6027298127
C   C206      1.0  0.37740  0.63730  0.61090  1.0000 0.6027298127
C   C207      1.0  0.12260  0.13730  0.38910  1.0000 0.6027298127
C   C208      1.0  0.62260  0.86270  0.11090  1.0000 0.6027298127
C   C209      1.0  0.05890  0.72007  0.08040  1.0000 -0.0899702449
C   C210      1.0  0.55890  0.27993  0.41960  1.0000 -0.0899702449
C   C211      1.0  0.94110  0.77993  0.58040  1.0000 -0.0899702449
C   C212      1.0  0.44110  0.22007  0.91960  1.0000 -0.0899702449
C   C213      1.0  0.94110  0.27993  0.91960  1.0000 -0.0899702449
C   C214      1.0  0.44110  0.72007  0.58040  1.0000 -0.0899702449
C   C215      1.0  0.05890  0.22007  0.41960  1.0000 -0.0899702449
C   C216      1.0  0.55890  0.77993  0.08040  1.0000 -0.0899702449
C   C217      1.0  0.05170  0.77591  0.07690  1.0000 -0.0694957652
C   C218      1.0  0.55170  0.22409  0.42310  1.0000 -0.0694957652
C   C219      1.0  0.94830  0.72409  0.57690  1.0000 -0.0694957652
C   C220      1.0  0.44830  0.27591  0.92310  1.0000 -0.0694957652
C   C221      1.0  0.94830  0.22409  0.92310  1.0000 -0.0694957652
C   C222      1.0  0.44830  0.77591  0.57690  1.0000 -0.0694957652
C   C223      1.0  0.05170  0.27591  0.42310  1.0000 -0.0694957652
C   C224      1.0  0.55170  0.72409  0.07690  1.0000 -0.0694957652
C   C225      1.0  0.10620  0.91401  0.15921  1.0000 -0.1526707802
C   C226      1.0  0.60620  0.08599  0.34079  1.0000 -0.1526707802
C   C227      1.0  0.89380  0.58599  0.65921  1.0000 -0.1526707802
C   C228      1.0  0.39380  0.41401  0.84079  1.0000 -0.1526707802
C   C229      1.0  0.89380  0.08599  0.84079  1.0000 -0.1526707802
C   C230      1.0  0.39380  0.91401  0.65921  1.0000 -0.1526707802
C   C231      1.0  0.10620  0.41401  0.34079  1.0000 -0.1526707802
C   C232      1.0  0.60620  0.58599  0.15921  1.0000 -0.1526707802
C   C233      1.0  0.17310  0.92190  0.17760  1.0000 -0.0980903772
C   C234      1.0  0.67310  0.07810  0.32240  1.0000 -0.0980903772
C   C235      1.0  0.82690  0.57810  0.67760  1.0000 -0.0980903772
C   C236      1.0  0.32690  0.42190  0.82240  1.0000 -0.0980903772
C   C237      1.0  0.82690  0.07810  0.82240  1.0000 -0.0980903772
C   C238      1.0  0.32690  0.92190  0.67760  1.0000 -0.0980903772
C   C239      1.0  0.17310  0.42190  0.32240  1.0000 -0.0980903772
C   C240      1.0  0.67310  0.57810  0.17760  1.0000 -0.0980903772
C   C241      1.0  0.18470  0.94800  0.22680  1.0000 -0.0980903772
C   C242      1.0  0.68470  0.05200  0.27320  1.0000 -0.0980903772
C   C243      1.0  0.81530  0.55200  0.72680  1.0000 -0.0980903772
C   C244      1.0  0.31530  0.44800  0.77320  1.0000 -0.0980903772
C   C245      1.0  0.81530  0.05200  0.77320  1.0000 -0.0980903772
C   C246      1.0  0.31530  0.94800  0.72680  1.0000 -0.0980903772
C   C247      1.0  0.18470  0.44800  0.27320  1.0000 -0.0980903772
C   C248      1.0  0.68470  0.55200  0.22680  1.0000 -0.0980903772
C   C249      1.0  0.13030  0.96580  0.25780  1.0000 -0.0109847462
C   C250      1.0  0.63030  0.03420  0.24220  1.0000 -0.0109847462
C   C251      1.0  0.86970  0.53420  0.75780  1.0000 -0.0109847462
C   C252      1.0  0.36970  0.46580  0.74220  1.0000 -0.0109847462
C   C253      1.0  0.86970  0.03420  0.74220  1.0000 -0.0109847462
C   C254      1.0  0.36970  0.96580  0.75780  1.0000 -0.0109847462
C   C255      1.0  0.13030  0.46580  0.24220  1.0000 -0.0109847462
C   C256      1.0  0.63030  0.53420  0.25780  1.0000 -0.0109847462
C   C257      1.0  0.14360  0.99570  0.30980  1.0000 0.605743361
C   C258      1.0  0.64360  0.00430  0.19020  1.0000 0.605743361
C   C259      1.0  0.85640  0.50430  0.80980  1.0000 0.605743361
C   C260      1.0  0.35640  0.49570  0.69020  1.0000 0.605743361
C   C261      1.0  0.85640  0.00430  0.69020  1.0000 0.605743361
C   C262      1.0  0.35640  0.99570  0.80980  1.0000 0.605743361
C   C263      1.0  0.14360  0.49570  0.19020  1.0000 0.6027298127
C   C264      1.0  0.64360  0.50430  0.30980  1.0000 0.605743361
C   C265      1.0  0.06380  0.95700  0.23990  1.0000 -0.0899702449
C   C266      1.0  0.56380  0.04300  0.26010  1.0000 -0.0899702449
C   C267      1.0  0.93620  0.54300  0.73990  1.0000 -0.0899702449
C   C268      1.0  0.43620  0.45700  0.76010  1.0000 -0.0899702449
C   C269      1.0  0.93620  0.04300  0.76010  1.0000 -0.0899702449
C   C270      1.0  0.43620  0.95700  0.73990  1.0000 -0.0899702449
C   C271      1.0  0.06380  0.45700  0.26010  1.0000 -0.0899702449
C   C272      1.0  0.56380  0.54300  0.23990  1.0000 -0.0899702449
C   C273      1.0  0.05230  0.93080  0.19090  1.0000 -0.0694957652
C   C274      1.0  0.55230  0.06920  0.30910  1.0000 -0.0694957652
C   C275      1.0  0.94770  0.56920  0.69090  1.0000 -0.0694957652
C   C276      1.0  0.44770  0.43080  0.80910  1.0000 -0.0694957652
C   C277      1.0  0.94770  0.06920  0.80910  1.0000 -0.0694957652
C   C278      1.0  0.44770  0.93080  0.69090  1.0000 -0.0694957652
C   C279      1.0  0.05230  0.43080  0.30910  1.0000 -0.0694957652
C   C280      1.0  0.55230  0.56920  0.19090  1.0000 -0.0694957652
C   C281      1.0  0.15760  0.90477  0.05292  1.0000 -0.1600605106
C   C282      1.0  0.65760  0.09523  0.44708  1.0000 -0.1600605106
C   C283      1.0  0.84240  0.59523  0.55292  1.0000 -0.1600605106
C   C284      1.0  0.34240  0.40477  0.94708  1.0000 -0.1600605106
C   C285      1.0  0.84240  0.09523  0.94708  1.0000 -0.1600605106
C   C286      1.0  0.34240  0.90477  0.55292  1.0000 -0.1600605106
C   C287      1.0  0.15760  0.40477  0.44708  1.0000 -0.1600605106
C   C288      1.0  0.65760  0.59523  0.05292  1.0000 -0.1600605106
C   C289      1.0  0.21050  0.87260  0.03340  1.0000 -0.0980903772
C   C290      1.0  0.71050  0.12740  0.46660  1.0000 -0.0980903772
C   C291      1.0  0.78950  0.62740  0.53340  1.0000 -0.0899702449
C   C292      1.0  0.28950  0.37260  0.96660  1.0000 -0.0899702449
C   C293      1.0  0.78950  0.12740  0.96660  1.0000 -0.0899702449
C   C294      1.0  0.28950  0.87260  0.53340  1.0000 -0.0899702449
C   C295      1.0  0.21050  0.37260  0.46660  1.0000 -0.0980903772
C   C296      1.0  0.71050  0.62740  0.03340  1.0000 -0.0980903772
C   C297      1.0  0.26260  0.89490  0.00220  1.0000 -0.0980903772
C   C298      1.0  0.76260  0.10510  0.49780  1.0000 -0.0980903772
C   C299      1.0  0.73740  0.60510  0.50220  1.0000 -0.0980903772
C   C300      1.0  0.23740  0.39490  0.99780  1.0000 -0.0980903772
C   C301      1.0  0.73740  0.10510  0.99780  1.0000 -0.0980903772
C   C302      1.0  0.23740  0.89490  0.50220  1.0000 -0.0980903772
C   C303      1.0  0.26260  0.39490  0.49780  1.0000 -0.0980903772
C   C304      1.0  0.76260  0.60510  0.00220  1.0000 -0.0980903772
C   C305      1.0  0.26250  0.94908  0.98885  1.0000 -0.0025711093
C   C306      1.0  0.76250  0.05092  0.51115  1.0000 -0.0025711093
C   C307      1.0  0.73750  0.55092  0.48885  1.0000 -0.0025711093
C   C308      1.0  0.23750  0.44908  0.01115  1.0000 -0.0025711093
C   C309      1.0  0.73750  0.05092  0.01115  1.0000 -0.0025711093
C   C310      1.0  0.23750  0.94908  0.48885  1.0000 -0.0025711093
C   C311      1.0  0.26250  0.44908  0.51115  1.0000 -0.0025711093
C   C312      1.0  0.76250  0.55092  0.98885  1.0000 -0.0025711093
C   C313      1.0  0.31990  0.97354  0.95778  1.0000 0.5802685445
C   C314      1.0  0.81990  0.02646  0.54222  1.0000 0.5802685445
C   C315      1.0  0.68010  0.52646  0.45778  1.0000 0.5802685445
C   C316      1.0  0.18010  0.47354  0.04222  1.0000 0.5802685445
C   C317      1.0  0.68010  0.02646  0.04222  1.0000 0.5802685445
C   C318      1.0  0.18010  0.97354  0.45778  1.0000 0.5802685445
C   C319      1.0  0.31990  0.47354  0.54222  1.0000 0.5802685445
C   C320      1.0  0.81990  0.52646  0.95778  1.0000 0.5802685445
C   C321      1.0  0.21020  0.98140  0.00770  1.0000 -0.0899702449
C   C322      1.0  0.71020  0.01860  0.49230  1.0000 -0.0899702449
C   C323      1.0  0.78980  0.51860  0.50770  1.0000 -0.0899702449
C   C324      1.0  0.28980  0.48140  0.99230  1.0000 -0.0899702449
C   C325      1.0  0.78980  0.01860  0.99230  1.0000 -0.0899702449
C   C326      1.0  0.28980  0.98140  0.50770  1.0000 -0.0899702449
C   C327      1.0  0.21020  0.48140  0.49230  1.0000 -0.0899702449
C   C328      1.0  0.71020  0.51860  0.00770  1.0000 -0.0899702449
C   C329      1.0  0.15830  0.95960  0.03900  1.0000 -0.0787675464
C   C330      1.0  0.65830  0.04040  0.46100  1.0000 -0.0787675464
C   C331      1.0  0.84170  0.54040  0.53900  1.0000 -0.0787675464
C   C332      1.0  0.34170  0.45960  0.96100  1.0000 -0.0787675464
C   C333      1.0  0.84170  0.04040  0.96100  1.0000 -0.0787675464
C   C334      1.0  0.34170  0.95960  0.53900  1.0000 -0.0787675464
C   C335      1.0  0.15830  0.45960  0.46100  1.0000 -0.0787675464
C   C336      1.0  0.65830  0.54040  0.03900  1.0000 -0.0787675464
O   O1        1.0  0.90933  0.87490  0.15302  1.0000 -0.5809463567
O   O2        1.0  0.40933  0.12510  0.34698  1.0000 -0.5809463567
O   O3        1.0  0.09067  0.62510  0.65302  1.0000 -0.5809463567
O   O4        1.0  0.59067  0.37490  0.84698  1.0000 -0.5809463567
O   O5        1.0  0.09067  0.12510  0.84698  1.0000 -0.5809463567
O   O6        1.0  0.59067  0.87490  0.65302  1.0000 -0.5809463567
O   O7        1.0  0.90933  0.37490  0.34698  1.0000 -0.5809463567
O   O8        1.0  0.40933  0.62510  0.15302  1.0000 -0.5809463567
O   O9        1.0  0.80380  0.89693  0.18250  1.0000 -0.5521998554
O   O10       1.0  0.30380  0.10307  0.31750  1.0000 -0.5521998554
O   O11       1.0  0.19620  0.60307  0.68250  1.0000 -0.5521998554
O   O12       1.0  0.69620  0.39693  0.81750  1.0000 -0.5521998554
O   O13       1.0  0.19620  0.10307  0.81750  1.0000 -0.5521998554
O   O14       1.0  0.69620  0.89693  0.68250  1.0000 -0.5521998554
O   O15       1.0  0.80380  0.39693  0.31750  1.0000 -0.5521998554
O   O16       1.0  0.30380  0.60307  0.18250  1.0000 -0.5521998554
O   O17       1.0  0.92269  0.48794  0.41380  1.0000 -0.5809463567
O   O18       1.0  0.42269  0.51206  0.08620  1.0000 -0.5809463567
O   O19       1.0  0.07731  0.01206  0.91380  1.0000 -0.5809463567
O   O20       1.0  0.57731  0.98794  0.58620  1.0000 -0.5809463567
O   O21       1.0  0.07731  0.51206  0.58620  1.0000 -0.5809463567
O   O22       1.0  0.57731  0.48794  0.91380  1.0000 -0.5809463567
O   O23       1.0  0.92269  0.98794  0.08620  1.0000 -0.5809463567
O   O24       1.0  0.42269  0.01206  0.41380  1.0000 -0.5809463567
O   O25       1.0  0.81852  0.50305  0.37693  1.0000 -0.5710507582
O   O26       1.0  0.31852  0.49695  0.12307  1.0000 -0.5710507582
O   O27       1.0  0.18148  0.99695  0.87693  1.0000 -0.5710507582
O   O28       1.0  0.68148  0.00305  0.62307  1.0000 -0.5710507582
O   O29       1.0  0.18148  0.49695  0.62307  1.0000 -0.5710507582
O   O30       1.0  0.68148  0.50305  0.87693  1.0000 -0.5710507582
O   O31       1.0  0.81852  0.00305  0.12307  1.0000 -0.5710507582
O   O32       1.0  0.31852  0.99695  0.37693  1.0000 -0.5710507582
O   O33       1.0  0.69207  0.90158  0.56156  1.0000 -0.6336894805
O   O34       1.0  0.19207  0.09842  0.93844  1.0000 -0.6336894805
O   O35       1.0  0.30793  0.59842  0.06156  1.0000 -0.6336894805
O   O36       1.0  0.80793  0.40158  0.43844  1.0000 -0.6336894805
O   O37       1.0  0.30793  0.09842  0.43844  1.0000 -0.6336894805
O   O38       1.0  0.80793  0.90158  0.06156  1.0000 -0.6336894805
O   O39       1.0  0.69207  0.40158  0.93844  1.0000 -0.6336894805
O   O40       1.0  0.19207  0.59842  0.56156  1.0000 -0.6336894805
O   O41       1.0  0.62420  0.83560  0.53770  1.0000 -0.5403780217
O   O42       1.0  0.12420  0.16440  0.96230  1.0000 -0.5403780217
O   O43       1.0  0.37580  0.66440  0.03770  1.0000 -0.5403780217
O   O44       1.0  0.87580  0.33560  0.46230  1.0000 -0.5403780217
O   O45       1.0  0.37580  0.16440  0.46230  1.0000 -0.5403780217
O   O46       1.0  0.87580  0.83560  0.03770  1.0000 -0.5403780217
O   O47       1.0  0.62420  0.33560  0.96230  1.0000 -0.5403780217
O   O48       1.0  0.12420  0.66440  0.53770  1.0000 -0.5403780217
O   O49       1.0  0.98612  0.77884  0.42294  1.0000 -0.6110392833
O   O50       1.0  0.48612  0.22116  0.07706  1.0000 -0.6110392833
O   O51       1.0  0.01388  0.72116  0.92294  1.0000 -0.6110392833
O   O52       1.0  0.51388  0.27884  0.57706  1.0000 -0.6110392833
O   O53       1.0  0.01388  0.22116  0.57706  1.0000 -0.6110392833
O   O54       1.0  0.51388  0.77884  0.92294  1.0000 -0.6110392833
O   O55       1.0  0.98612  0.27884  0.07706  1.0000 -0.6110392833
O   O56       1.0  0.48612  0.72116  0.42294  1.0000 -0.6110392833
O   O57       1.0  0.18195  0.62197  0.12588  1.0000 -0.5869167025
O   O58       1.0  0.68195  0.37803  0.37412  1.0000 -0.5869167025
O   O59       1.0  0.81805  0.87803  0.62588  1.0000 -0.5869167025
O   O60       1.0  0.31805  0.12197  0.87412  1.0000 -0.5869167025
O   O61       1.0  0.81805  0.37803  0.87412  1.0000 -0.5869167025
O   O62       1.0  0.31805  0.62197  0.62588  1.0000 -0.5869167025
O   O63       1.0  0.18195  0.12197  0.37412  1.0000 -0.5869167025
O   O64       1.0  0.68195  0.87803  0.12588  1.0000 -0.5869167025
O   O65       1.0  0.07330  0.60754  0.09797  1.0000 -0.5809463567
O   O66       1.0  0.57330  0.39246  0.40203  1.0000 -0.5809463567
O   O67       1.0  0.92670  0.89246  0.59797  1.0000 -0.5809463567
O   O68       1.0  0.42670  0.10754  0.90203  1.0000 -0.5809463567
O   O69       1.0  0.92670  0.39246  0.90203  1.0000 -0.5809463567
O   O70       1.0  0.42670  0.60754  0.59797  1.0000 -0.5809463567
O   O71       1.0  0.07330  0.10754  0.40203  1.0000 -0.5809463567
O   O72       1.0  0.57330  0.89246  0.09797  1.0000 -0.5809463567
O   O73       1.0  0.20304  0.01503  0.31572  1.0000 -0.5521998554
O   O74       1.0  0.70304  0.98497  0.18428  1.0000 -0.5521998554
O   O75       1.0  0.79696  0.48497  0.81572  1.0000 -0.5521998554
O   O76       1.0  0.29696  0.51503  0.68428  1.0000 -0.5521998554
O   O77       1.0  0.79696  0.98497  0.68428  1.0000 -0.5521998554
O   O78       1.0  0.29696  0.01503  0.81572  1.0000 -0.5521998554
O   O79       1.0  0.20304  0.51503  0.18428  1.0000 -0.5521998554
O   O80       1.0  0.70304  0.48497  0.31572  1.0000 -0.5521998554
O   O81       1.0  0.09314  0.99987  0.34178  1.0000 -0.5809463567
O   O82       1.0  0.59314  0.00013  0.15822  1.0000 -0.5809463567
O   O83       1.0  0.90686  0.50013  0.84178  1.0000 -0.5809463567
O   O84       1.0  0.40686  0.49987  0.65822  1.0000 -0.5809463567
O   O85       1.0  0.90686  0.00013  0.65822  1.0000 -0.5809463567
O   O86       1.0  0.40686  0.99987  0.84178  1.0000 -0.5809463567
O   O87       1.0  0.09314  0.49987  0.15822  1.0000 -0.5809463567
O   O88       1.0  0.59314  0.50013  0.34178  1.0000 -0.5809463567
O   O89       1.0  0.37744  0.95019  0.95393  1.0000 -0.5521998554
O   O90       1.0  0.87744  0.04981  0.54607  1.0000 -0.5521998554
O   O91       1.0  0.62256  0.54981  0.45393  1.0000 -0.5521998554
O   O92       1.0  0.12256  0.45019  0.04607  1.0000 -0.5521998554
O   O93       1.0  0.62256  0.04981  0.04607  1.0000 -0.5521998554
O   O94       1.0  0.12256  0.95019  0.45393  1.0000 -0.5521998554
O   O95       1.0  0.37744  0.45019  0.54607  1.0000 -0.5521998554
O   O96       1.0  0.87744  0.54981  0.95393  1.0000 -0.5521998554
O   O97       1.0  0.31268  0.02125  0.93737  1.0000 -0.6394471253
O   O98       1.0  0.81268  0.97875  0.56263  1.0000 -0.6394471253
O   O99       1.0  0.68732  0.47875  0.43737  1.0000 -0.6394471253
O   O100      1.0  0.18732  0.52125  0.06263  1.0000 -0.6394471253
O   O101      1.0  0.68732  0.97875  0.06263  1.0000 -0.6394471253
O   O102      1.0  0.18732  0.02125  0.43737  1.0000 -0.6394471253
O   O103      1.0  0.31268  0.52125  0.56263  1.0000 -0.6394471253
O   O104      1.0  0.81268  0.47875  0.93737  1.0000 -0.6394471253
O   O105      1.0  0.02067  0.89688  0.07364  1.0000 -0.6606850425
O   O106      1.0  0.52067  0.10312  0.42636  1.0000 -0.6606850425
O   O107      1.0  0.97933  0.60312  0.57364  1.0000 -0.6606850425
O   O108      1.0  0.47933  0.39688  0.92636  1.0000 -0.6606850425
O   O109      1.0  0.97933  0.10312  0.92636  1.0000 -0.6606850425
O   O110      1.0  0.47933  0.89688  0.57364  1.0000 -0.6606850425
O   O111      1.0  0.02067  0.39688  0.42636  1.0000 -0.6606850425
O   O112      1.0  0.52067  0.60312  0.07364  1.0000 -0.6606850425
