# DDEC6 charges by PACMAN v1.1 (https://github.com/mtap-research/PACMAN-charge/)
data_2012[Ag][nan]3[ASR]1
_chemical_formula_sum              "Ag8 H28 C40 N24 O2"
_cell_length_a       12.29
_cell_length_b       13.7
_cell_length_c       13.798
_cell_angle_alpha    108.736
_cell_angle_beta     92.793
_cell_angle_gamma    114.369

_symmetry_space_group_name_H-M    "P 1"
_symmetry_Int_Tables_number       1

loop_
  _symmetry_equiv_pos_as_xyz
  'x, y, z'

loop_
  _atom_site_type_symbol
  _atom_site_label
  _atom_site_symmetry_multiplicity
  _atom_site_fract_x
  _atom_site_fract_y
  _atom_site_fract_z
  _atom_site_occupancy
  _atom_site_charge
Ag  Ag1       1.0  0.02276  0.51682  0.77743  1.0000 0.2317827114
Ag  Ag2       1.0  0.08079  0.41141  0.50624  1.0000 0.2238435962
Ag  Ag3       1.0  0.43052  0.60187  0.56051  1.0000 0.2727143981
Ag  Ag4       1.0  0.90441  0.10463  0.43625  1.0000 0.3399095007
Ag  Ag5       1.0  0.97720  0.48316  0.22259  1.0000 0.2317827114
Ag  Ag6       1.0  0.91900  0.58864  0.49363  1.0000 0.2238435962
Ag  Ag7       1.0  0.56907  0.39811  0.43941  1.0000 0.2727143981
Ag  Ag8       1.0  0.08841  0.89413  0.56388  1.0000 0.3399095007
H   H1        1.0  0.23825  0.74169  0.75486  1.0000 0.1180056913
H   H2        1.0  0.61162  0.00067  0.28485  1.0000 0.091019287
H   H3        1.0  0.30284  0.05115  0.49309  1.0000 0.1089393831
H   H4        1.0  0.06752  0.03204  0.27222  1.0000 0.0992700922
H   H5        1.0  0.06551  0.71353  0.01001  1.0000 0.1089393831
H   H6        1.0  0.07304  0.29703  0.67326  1.0000 0.1180056913
H   H7        1.0  0.73617  0.30682  0.70659  1.0000 0.1089393831
H   H8        1.0  0.03634  0.87133  0.10710  1.0000 0.1089393831
H   H9        1.0  0.33168  0.96169  0.91470  1.0000 0.1180056913
H   H10       1.0  0.89307  0.07094  0.61330  1.0000 0.1180056913
H   H11       1.0  0.50566  0.21735  0.52584  1.0000 0.091019287
H   H12       1.0  0.40570  0.83593  0.24665  1.0000 0.1089393831
H   H13       1.0  0.41783  0.05402  0.09517  1.0000 0.1089393831
H   H14       1.0  0.44563  0.21573  0.25678  1.0000 0.091019287
H   H15       1.0  0.76175  0.25833  0.24516  1.0000 0.1180056913
H   H16       1.0  0.38830  0.99958  0.71526  1.0000 0.0992700922
H   H17       1.0  0.69704  0.94868  0.50713  1.0000 0.1089393831
H   H18       1.0  0.93261  0.96822  0.72794  1.0000 0.0992700922
H   H19       1.0  0.93450  0.28648  0.99000  1.0000 0.1089393831
H   H20       1.0  0.92677  0.70294  0.32656  1.0000 0.1180056913
H   H21       1.0  0.26377  0.69325  0.29350  1.0000 0.1089393831
H   H22       1.0  0.96368  0.12876  0.89297  1.0000 0.1089393831
H   H23       1.0  0.66835  0.03833  0.08533  1.0000 0.1180056913
H   H24       1.0  0.10717  0.92897  0.38662  1.0000 0.1180056913
H   H25       1.0  0.49400  0.78273  0.47426  1.0000 0.091019287
H   H26       1.0  0.59443  0.16421  0.75353  1.0000 0.1089393831
H   H27       1.0  0.58218  0.94594  0.90481  1.0000 0.1089393831
H   H28       1.0  0.55442  0.78430  0.74321  1.0000 0.091019287
C   C1        1.0  0.21794  0.76864  0.83190  1.0000 -0.0396138611
C   C2        1.0  0.54389  0.01094  0.33060  1.0000 -0.1084377762
C   C3        1.0  0.36925  0.04197  0.44505  1.0000 -0.1574738405
C   C4        1.0  0.14312  0.03673  0.23180  1.0000 -0.1001361858
C   C5        1.0  0.12267  0.74921  0.96058  1.0000 0.0470348366
C   C6        1.0  0.97593  0.26555  0.67283  1.0000 -0.0511649064
C   C7        1.0  0.80421  0.27549  0.69326  1.0000 0.0424021947
C   C8        1.0  0.12637  0.94646  0.14042  1.0000 -0.1809265136
C   C9        1.0  0.69014  0.21800  0.42499  1.0000 0.2440936484
C   C10       1.0  0.26627  0.87673  0.91011  1.0000 -0.1084377762
C   C11       1.0  0.88569  0.15258  0.63833  1.0000 -0.1001361858
C   C12       1.0  0.48311  0.13416  0.46335  1.0000 -0.1084377762
C   C13       1.0  0.42912  0.91852  0.30998  1.0000 -0.1809265136
C   C14       1.0  0.57250  0.12076  0.40628  1.0000 -0.0052578933
C   C15       1.0  0.22423  0.95404  0.08875  1.0000 0.1518099823
C   C16       1.0  0.33993  0.05071  0.13197  1.0000 -0.1716317616
C   C17       1.0  0.25723  0.13694  0.27391  1.0000 0.0167342827
C   C18       1.0  0.35532  0.14073  0.22315  1.0000 -0.1084377762
C   C19       1.0  0.26705  0.23296  0.36386  1.0000 0.2479222037
C   C20       1.0  0.65866  0.06614  0.63281  1.0000 0.173562757
C   C21       1.0  0.78204  0.23138  0.16811  1.0000 -0.0396138611
C   C22       1.0  0.45589  0.98926  0.66939  1.0000 -0.1084377762
C   C23       1.0  0.63056  0.95803  0.55506  1.0000 -0.1574738405
C   C24       1.0  0.85696  0.96339  0.76832  1.0000 -0.1001361858
C   C25       1.0  0.87735  0.25081  0.03944  1.0000 0.0424021947
C   C26       1.0  0.02395  0.73444  0.32738  1.0000 -0.0511649064
C   C27       1.0  0.19571  0.72454  0.30685  1.0000 0.0424021947
C   C28       1.0  0.87365  0.05361  0.85966  1.0000 -0.1809265136
C   C29       1.0  0.30925  0.78217  0.57486  1.0000 0.2440936484
C   C30       1.0  0.73369  0.12330  0.08990  1.0000 -0.117008277
C   C31       1.0  0.11426  0.84739  0.36186  1.0000 -0.1001361858
C   C32       1.0  0.51650  0.86597  0.53664  1.0000 -0.1084377762
C   C33       1.0  0.57083  0.08157  0.69015  1.0000 -0.1809265136
C   C34       1.0  0.42705  0.87947  0.59357  1.0000 -0.0047310106
C   C35       1.0  0.77577  0.04599  0.91129  1.0000 0.1518099823
C   C36       1.0  0.66009  0.94927  0.86801  1.0000 -0.1716317616
C   C37       1.0  0.74291  0.86313  0.72611  1.0000 0.0167342827
C   C38       1.0  0.64476  0.85930  0.77684  1.0000 -0.1084377762
C   C39       1.0  0.73313  0.76720  0.63610  1.0000 0.2479222037
C   C40       1.0  0.34122  0.93387  0.36733  1.0000 0.173562757
N   N1        1.0  0.20975  0.34007  0.47888  1.0000 -0.0323404099
N   N2        1.0  0.12832  0.68934  0.86305  1.0000 -0.2404438711
N   N3        1.0  0.92525  0.34154  0.70627  1.0000 -0.2551989339
N   N4        1.0  0.16673  0.23588  0.40055  1.0000 -0.2852993689
N   N5        1.0  0.17512  0.60419  0.54002  1.0000 -0.0644197918
N   N6        1.0  0.33178  0.40092  0.49130  1.0000 -0.0511649064
N   N7        1.0  0.88445  0.33171  0.45029  1.0000 -0.0511649064
N   N8        1.0  0.80219  0.21759  0.42810  1.0000 -0.3096433264
N   N9        1.0  0.77656  0.15981  0.65354  1.0000 0.0038933228
N   N10       1.0  0.20555  0.86425  0.99191  1.0000 0.0087451993
N   N11       1.0  0.37019  0.33391  0.41899  1.0000 -0.2324776433
N   N12       1.0  0.29659  0.67307  0.55604  1.0000 -0.2519348047
N   N13       1.0  0.79008  0.65988  0.52089  1.0000 -0.0323404099
N   N14       1.0  0.87170  0.31067  0.13696  1.0000 -0.2404438711
N   N15       1.0  0.07463  0.65847  0.29382  1.0000 -0.2519348047
N   N16       1.0  0.83330  0.76417  0.59918  1.0000 -0.2831299386
N   N17       1.0  0.82458  0.39591  0.46003  1.0000 -0.0651012144
N   N18       1.0  0.66815  0.59915  0.50875  1.0000 -0.0511649064
N   N19       1.0  0.11517  0.66832  0.54963  1.0000 -0.0396138611
N   N20       1.0  0.19710  0.78236  0.57167  1.0000 -0.3168922446
N   N21       1.0  0.22342  0.84022  0.34670  1.0000 0.0038933228
N   N22       1.0  0.79441  0.13577  0.00811  1.0000 0.0087451993
N   N23       1.0  0.62990  0.66626  0.58113  1.0000 -0.2324776433
N   N24       1.0  0.70308  0.32721  0.44399  1.0000 -0.2519348047
O   O1        1.0  0.01897  0.03198  0.46483  1.0000 -0.3096433264
O   O2        1.0  0.97293  0.96659  0.53388  1.0000 -0.3096433264
