# DDEC6 charges by PACMAN v1.1 (https://github.com/mtap-research/PACMAN-charge/)
data_2012[Cu][rhr]3[ASR]1
_chemical_formula_sum              "Cu48 H192 C408 O240"
_cell_length_a       23.567
_cell_length_b       23.567
_cell_length_c       46.997
_cell_angle_alpha    90
_cell_angle_beta     90
_cell_angle_gamma    90

_symmetry_space_group_name_H-M    "P 1"
_symmetry_Int_Tables_number       1

loop_
  _symmetry_equiv_pos_as_xyz
  'x, y, z'

loop_
  _atom_site_type_symbol
  _atom_site_label
  _atom_site_symmetry_multiplicity
  _atom_site_fract_x
  _atom_site_fract_y
  _atom_site_fract_z
  _atom_site_occupancy
  _atom_site_charge
Cu  Cu1       1.0  0.31541  0.03936  0.84095  1.0000 0.8574663819
Cu  Cu2       1.0  0.96064  0.31541  0.84095  1.0000 0.8574663819
Cu  Cu3       1.0  0.68459  0.96064  0.84095  1.0000 0.8574663819
Cu  Cu4       1.0  0.03936  0.68459  0.84095  1.0000 0.8574663819
Cu  Cu5       1.0  0.31541  0.96064  0.65905  1.0000 0.8574663819
Cu  Cu6       1.0  0.03936  0.31541  0.65905  1.0000 0.8574663819
Cu  Cu7       1.0  0.68459  0.03936  0.65905  1.0000 0.8574663819
Cu  Cu8       1.0  0.96064  0.68459  0.65905  1.0000 0.8574663819
Cu  Cu9       1.0  0.68459  0.96064  0.15905  1.0000 0.8574663819
Cu  Cu10      1.0  0.03936  0.68459  0.15905  1.0000 0.8574663819
Cu  Cu11      1.0  0.31541  0.03936  0.15905  1.0000 0.8574663819
Cu  Cu12      1.0  0.96064  0.31541  0.15905  1.0000 0.8574663819
Cu  Cu13      1.0  0.68459  0.03936  0.34095  1.0000 0.8574663819
Cu  Cu14      1.0  0.96064  0.68459  0.34095  1.0000 0.8574663819
Cu  Cu15      1.0  0.31541  0.96064  0.34095  1.0000 0.8574663819
Cu  Cu16      1.0  0.03936  0.31541  0.34095  1.0000 0.8574663819
Cu  Cu17      1.0  0.23727  0.03039  0.88111  1.0000 0.8574663819
Cu  Cu18      1.0  0.96961  0.23727  0.88111  1.0000 0.8574663819
Cu  Cu19      1.0  0.76273  0.96961  0.88111  1.0000 0.8574663819
Cu  Cu20      1.0  0.03039  0.76273  0.88111  1.0000 0.8574663819
Cu  Cu21      1.0  0.23727  0.96961  0.61889  1.0000 0.8574663819
Cu  Cu22      1.0  0.03039  0.23727  0.61889  1.0000 0.8574663819
Cu  Cu23      1.0  0.76273  0.03039  0.61889  1.0000 0.8574663819
Cu  Cu24      1.0  0.96961  0.76273  0.61889  1.0000 0.8574663819
Cu  Cu25      1.0  0.76273  0.96961  0.11889  1.0000 0.8574663819
Cu  Cu26      1.0  0.03039  0.76273  0.11889  1.0000 0.8574663819
Cu  Cu27      1.0  0.23727  0.03039  0.11889  1.0000 0.8574663819
Cu  Cu28      1.0  0.96961  0.23727  0.11889  1.0000 0.8574663819
Cu  Cu29      1.0  0.76273  0.03039  0.38111  1.0000 0.8574663819
Cu  Cu30      1.0  0.96961  0.76273  0.38111  1.0000 0.8574663819
Cu  Cu31      1.0  0.23727  0.96961  0.38111  1.0000 0.8574663819
Cu  Cu32      1.0  0.03039  0.23727  0.38111  1.0000 0.8574663819
Cu  Cu33      1.0  0.21327  0.26373  0.00000  1.0000 0.8493399871
Cu  Cu34      1.0  0.73627  0.21327  0.00000  1.0000 0.8493399871
Cu  Cu35      1.0  0.78673  0.73627  0.00000  1.0000 0.8493399871
Cu  Cu36      1.0  0.26373  0.78673  0.00000  1.0000 0.8493399871
Cu  Cu37      1.0  0.21327  0.73627  0.50000  1.0000 0.8493399871
Cu  Cu38      1.0  0.26373  0.21327  0.50000  1.0000 0.8493399871
Cu  Cu39      1.0  0.78673  0.26373  0.50000  1.0000 0.8493399871
Cu  Cu40      1.0  0.73627  0.78673  0.50000  1.0000 0.8493399871
Cu  Cu41      1.0  0.28307  0.35119  0.00000  1.0000 0.8493399871
Cu  Cu42      1.0  0.64881  0.28307  0.00000  1.0000 0.8493399871
Cu  Cu43      1.0  0.71693  0.64881  0.00000  1.0000 0.8493399871
Cu  Cu44      1.0  0.35119  0.71693  0.00000  1.0000 0.8493399871
Cu  Cu45      1.0  0.28307  0.64881  0.50000  1.0000 0.8493399871
Cu  Cu46      1.0  0.35119  0.28307  0.50000  1.0000 0.8493399871
Cu  Cu47      1.0  0.71693  0.35119  0.50000  1.0000 0.8493399871
Cu  Cu48      1.0  0.64881  0.71693  0.50000  1.0000 0.8493399871
H   H1        1.0  0.28570  0.17130  0.93160  1.0000 0.142067804
H   H2        1.0  0.82870  0.28570  0.93160  1.0000 0.142067804
H   H3        1.0  0.71430  0.82870  0.93160  1.0000 0.142067804
H   H4        1.0  0.17130  0.71430  0.93160  1.0000 0.142067804
H   H5        1.0  0.28570  0.82870  0.56840  1.0000 0.142067804
H   H6        1.0  0.17130  0.28570  0.56840  1.0000 0.142067804
H   H7        1.0  0.71430  0.17130  0.56840  1.0000 0.142067804
H   H8        1.0  0.82870  0.71430  0.56840  1.0000 0.142067804
H   H9        1.0  0.71430  0.82870  0.06840  1.0000 0.142067804
H   H10       1.0  0.17130  0.71430  0.06840  1.0000 0.142067804
H   H11       1.0  0.28570  0.17130  0.06840  1.0000 0.142067804
H   H12       1.0  0.82870  0.28570  0.06840  1.0000 0.142067804
H   H13       1.0  0.71430  0.17130  0.43160  1.0000 0.142067804
H   H14       1.0  0.82870  0.71430  0.43160  1.0000 0.142067804
H   H15       1.0  0.28570  0.82870  0.43160  1.0000 0.142067804
H   H16       1.0  0.17130  0.28570  0.43160  1.0000 0.142067804
H   H17       1.0  0.41020  0.28510  0.94180  1.0000 0.1516252485
H   H18       1.0  0.71490  0.41020  0.94180  1.0000 0.1516252485
H   H19       1.0  0.58980  0.71490  0.94180  1.0000 0.1516252485
H   H20       1.0  0.28510  0.58980  0.94180  1.0000 0.1516252485
H   H21       1.0  0.41020  0.71490  0.55820  1.0000 0.1516252485
H   H22       1.0  0.28510  0.41020  0.55820  1.0000 0.1516252485
H   H23       1.0  0.58980  0.28510  0.55820  1.0000 0.1516252485
H   H24       1.0  0.71490  0.58980  0.55820  1.0000 0.1516252485
H   H25       1.0  0.58980  0.71490  0.05820  1.0000 0.1516252485
H   H26       1.0  0.28510  0.58980  0.05820  1.0000 0.1516252485
H   H27       1.0  0.41020  0.28510  0.05820  1.0000 0.1516252485
H   H28       1.0  0.71490  0.41020  0.05820  1.0000 0.1516252485
H   H29       1.0  0.58980  0.28510  0.44180  1.0000 0.1516252485
H   H30       1.0  0.71490  0.58980  0.44180  1.0000 0.1516252485
H   H31       1.0  0.41020  0.71490  0.44180  1.0000 0.1516252485
H   H32       1.0  0.28510  0.41020  0.44180  1.0000 0.1516252485
H   H33       1.0  0.42110  0.16830  0.87970  1.0000 0.1327274186
H   H34       1.0  0.83170  0.42110  0.87970  1.0000 0.1327274186
H   H35       1.0  0.57890  0.83170  0.87970  1.0000 0.1327274186
H   H36       1.0  0.16830  0.57890  0.87970  1.0000 0.1327274186
H   H37       1.0  0.42110  0.83170  0.62030  1.0000 0.1327274186
H   H38       1.0  0.16830  0.42110  0.62030  1.0000 0.1327274186
H   H39       1.0  0.57890  0.16830  0.62030  1.0000 0.1327274186
H   H40       1.0  0.83170  0.57890  0.62030  1.0000 0.1327274186
H   H41       1.0  0.57890  0.83170  0.12030  1.0000 0.1327274186
H   H42       1.0  0.16830  0.57890  0.12030  1.0000 0.1327274186
H   H43       1.0  0.42110  0.16830  0.12030  1.0000 0.1327274186
H   H44       1.0  0.83170  0.42110  0.12030  1.0000 0.1327274186
H   H45       1.0  0.57890  0.16830  0.37970  1.0000 0.1327274186
H   H46       1.0  0.83170  0.57890  0.37970  1.0000 0.1327274186
H   H47       1.0  0.42110  0.83170  0.37970  1.0000 0.1327274186
H   H48       1.0  0.16830  0.42110  0.37970  1.0000 0.1327274186
H   H49       1.0  0.48030  0.24500  0.86360  1.0000 0.1327274186
H   H50       1.0  0.75500  0.48030  0.86360  1.0000 0.1327274186
H   H51       1.0  0.51970  0.75500  0.86360  1.0000 0.1327274186
H   H52       1.0  0.24500  0.51970  0.86360  1.0000 0.1327274186
H   H53       1.0  0.48030  0.75500  0.63640  1.0000 0.1327274186
H   H54       1.0  0.24500  0.48030  0.63640  1.0000 0.1327274186
H   H55       1.0  0.51970  0.24500  0.63640  1.0000 0.1327274186
H   H56       1.0  0.75500  0.51970  0.63640  1.0000 0.1327274186
H   H57       1.0  0.51970  0.75500  0.13640  1.0000 0.1327274186
H   H58       1.0  0.24500  0.51970  0.13640  1.0000 0.1327274186
H   H59       1.0  0.48030  0.24500  0.13640  1.0000 0.1327274186
H   H60       1.0  0.75500  0.48030  0.13640  1.0000 0.1327274186
H   H61       1.0  0.51970  0.24500  0.36360  1.0000 0.1327274186
H   H62       1.0  0.75500  0.51970  0.36360  1.0000 0.1327274186
H   H63       1.0  0.48030  0.75500  0.36360  1.0000 0.1327274186
H   H64       1.0  0.24500  0.48030  0.36360  1.0000 0.1327274186
H   H65       1.0  0.53900  0.25970  0.87730  1.0000 0.1327274186
H   H66       1.0  0.74030  0.53900  0.87730  1.0000 0.1327274186
H   H67       1.0  0.46100  0.74030  0.87730  1.0000 0.1327274186
H   H68       1.0  0.25970  0.46100  0.87730  1.0000 0.1327274186
H   H69       1.0  0.53900  0.74030  0.62270  1.0000 0.1327274186
H   H70       1.0  0.25970  0.53900  0.62270  1.0000 0.1327274186
H   H71       1.0  0.46100  0.25970  0.62270  1.0000 0.1327274186
H   H72       1.0  0.74030  0.46100  0.62270  1.0000 0.1327274186
H   H73       1.0  0.46100  0.74030  0.12270  1.0000 0.1327274186
H   H74       1.0  0.25970  0.46100  0.12270  1.0000 0.1327274186
H   H75       1.0  0.53900  0.25970  0.12270  1.0000 0.1327274186
H   H76       1.0  0.74030  0.53900  0.12270  1.0000 0.1327274186
H   H77       1.0  0.46100  0.25970  0.37730  1.0000 0.1327274186
H   H78       1.0  0.74030  0.46100  0.37730  1.0000 0.1327274186
H   H79       1.0  0.53900  0.74030  0.37730  1.0000 0.1327274186
H   H80       1.0  0.25970  0.53900  0.37730  1.0000 0.1327274186
H   H81       1.0  0.57880  0.09560  0.86750  1.0000 0.1516252485
H   H82       1.0  0.90440  0.57880  0.86750  1.0000 0.1516252485
H   H83       1.0  0.42120  0.90440  0.86750  1.0000 0.1516252485
H   H84       1.0  0.09560  0.42120  0.86750  1.0000 0.1516252485
H   H85       1.0  0.57880  0.90440  0.63250  1.0000 0.1516252485
H   H86       1.0  0.09560  0.57880  0.63250  1.0000 0.1516252485
H   H87       1.0  0.42120  0.09560  0.63250  1.0000 0.1516252485
H   H88       1.0  0.90440  0.42120  0.63250  1.0000 0.1516252485
H   H89       1.0  0.42120  0.90440  0.13250  1.0000 0.1516252485
H   H90       1.0  0.09560  0.42120  0.13250  1.0000 0.1516252485
H   H91       1.0  0.57880  0.09560  0.13250  1.0000 0.1516252485
H   H92       1.0  0.90440  0.57880  0.13250  1.0000 0.1516252485
H   H93       1.0  0.42120  0.09560  0.36750  1.0000 0.1516252485
H   H94       1.0  0.90440  0.42120  0.36750  1.0000 0.1516252485
H   H95       1.0  0.57880  0.90440  0.36750  1.0000 0.1516252485
H   H96       1.0  0.09560  0.57880  0.36750  1.0000 0.1516252485
H   H97       1.0  0.56450  0.21850  0.92600  1.0000 0.142067804
H   H98       1.0  0.78150  0.56450  0.92600  1.0000 0.142067804
H   H99       1.0  0.43550  0.78150  0.92600  1.0000 0.142067804
H   H100      1.0  0.21850  0.43550  0.92600  1.0000 0.142067804
H   H101      1.0  0.56450  0.78150  0.57400  1.0000 0.142067804
H   H102      1.0  0.21850  0.56450  0.57400  1.0000 0.142067804
H   H103      1.0  0.43550  0.21850  0.57400  1.0000 0.142067804
H   H104      1.0  0.78150  0.43550  0.57400  1.0000 0.142067804
H   H105      1.0  0.43550  0.78150  0.07400  1.0000 0.142067804
H   H106      1.0  0.21850  0.43550  0.07400  1.0000 0.142067804
H   H107      1.0  0.56450  0.21850  0.07400  1.0000 0.142067804
H   H108      1.0  0.78150  0.56450  0.07400  1.0000 0.142067804
H   H109      1.0  0.43550  0.21850  0.42600  1.0000 0.142067804
H   H110      1.0  0.78150  0.43550  0.42600  1.0000 0.142067804
H   H111      1.0  0.56450  0.78150  0.42600  1.0000 0.142067804
H   H112      1.0  0.21850  0.56450  0.42600  1.0000 0.142067804
H   H113      1.0  0.68580  0.09920  0.93340  1.0000 0.142067804
H   H114      1.0  0.90080  0.68580  0.93340  1.0000 0.142067804
H   H115      1.0  0.31420  0.90080  0.93340  1.0000 0.142067804
H   H116      1.0  0.09920  0.31420  0.93340  1.0000 0.142067804
H   H117      1.0  0.68580  0.90080  0.56660  1.0000 0.142067804
H   H118      1.0  0.09920  0.68580  0.56660  1.0000 0.142067804
H   H119      1.0  0.31420  0.09920  0.56660  1.0000 0.142067804
H   H120      1.0  0.90080  0.31420  0.56660  1.0000 0.142067804
H   H121      1.0  0.31420  0.90080  0.06660  1.0000 0.142067804
H   H122      1.0  0.09920  0.31420  0.06660  1.0000 0.142067804
H   H123      1.0  0.68580  0.09920  0.06660  1.0000 0.142067804
H   H124      1.0  0.90080  0.68580  0.06660  1.0000 0.142067804
H   H125      1.0  0.31420  0.09920  0.43340  1.0000 0.142067804
H   H126      1.0  0.90080  0.31420  0.43340  1.0000 0.142067804
H   H127      1.0  0.68580  0.90080  0.43340  1.0000 0.142067804
H   H128      1.0  0.09920  0.68580  0.43340  1.0000 0.142067804
H   H129      1.0  0.09850  0.26620  0.78790  1.0000 0.1516252485
H   H130      1.0  0.73380  0.09850  0.78790  1.0000 0.1516252485
H   H131      1.0  0.90150  0.73380  0.78790  1.0000 0.1516252485
H   H132      1.0  0.26620  0.90150  0.78790  1.0000 0.1516252485
H   H133      1.0  0.09850  0.73380  0.71210  1.0000 0.1516252485
H   H134      1.0  0.26620  0.09850  0.71210  1.0000 0.1516252485
H   H135      1.0  0.90150  0.26620  0.71210  1.0000 0.1516252485
H   H136      1.0  0.73380  0.90150  0.71210  1.0000 0.1516252485
H   H137      1.0  0.90150  0.73380  0.21210  1.0000 0.1516252485
H   H138      1.0  0.26620  0.90150  0.21210  1.0000 0.1516252485
H   H139      1.0  0.09850  0.26620  0.21210  1.0000 0.1516252485
H   H140      1.0  0.73380  0.09850  0.21210  1.0000 0.1516252485
H   H141      1.0  0.90150  0.26620  0.28790  1.0000 0.1516252485
H   H142      1.0  0.73380  0.90150  0.28790  1.0000 0.1516252485
H   H143      1.0  0.09850  0.73380  0.28790  1.0000 0.1516252485
H   H144      1.0  0.26620  0.09850  0.28790  1.0000 0.1516252485
H   H145      1.0  0.23730  0.16850  0.78980  1.0000 0.1327274186
H   H146      1.0  0.83150  0.23730  0.78980  1.0000 0.1327274186
H   H147      1.0  0.76270  0.83150  0.78980  1.0000 0.1327274186
H   H148      1.0  0.16850  0.76270  0.78980  1.0000 0.1327274186
H   H149      1.0  0.23730  0.83150  0.71020  1.0000 0.1327274186
H   H150      1.0  0.16850  0.23730  0.71020  1.0000 0.1327274186
H   H151      1.0  0.76270  0.16850  0.71020  1.0000 0.1327274186
H   H152      1.0  0.83150  0.76270  0.71020  1.0000 0.1327274186
H   H153      1.0  0.76270  0.83150  0.21020  1.0000 0.1327274186
H   H154      1.0  0.16850  0.76270  0.21020  1.0000 0.1327274186
H   H155      1.0  0.23730  0.16850  0.21020  1.0000 0.1327274186
H   H156      1.0  0.83150  0.23730  0.21020  1.0000 0.1327274186
H   H157      1.0  0.76270  0.16850  0.28980  1.0000 0.1327274186
H   H158      1.0  0.83150  0.76270  0.28980  1.0000 0.1327274186
H   H159      1.0  0.23730  0.83150  0.28980  1.0000 0.1327274186
H   H160      1.0  0.16850  0.23730  0.28980  1.0000 0.1327274186
H   H161      1.0  0.11780  0.15110  0.84980  1.0000 0.142067804
H   H162      1.0  0.84890  0.11780  0.84980  1.0000 0.142067804
H   H163      1.0  0.88220  0.84890  0.84980  1.0000 0.142067804
H   H164      1.0  0.15110  0.88220  0.84980  1.0000 0.142067804
H   H165      1.0  0.11780  0.84890  0.65020  1.0000 0.142067804
H   H166      1.0  0.15110  0.11780  0.65020  1.0000 0.142067804
H   H167      1.0  0.88220  0.15110  0.65020  1.0000 0.142067804
H   H168      1.0  0.84890  0.88220  0.65020  1.0000 0.142067804
H   H169      1.0  0.88220  0.84890  0.15020  1.0000 0.142067804
H   H170      1.0  0.15110  0.88220  0.15020  1.0000 0.142067804
H   H171      1.0  0.11780  0.15110  0.15020  1.0000 0.142067804
H   H172      1.0  0.84890  0.11780  0.15020  1.0000 0.142067804
H   H173      1.0  0.88220  0.15110  0.34980  1.0000 0.142067804
H   H174      1.0  0.84890  0.88220  0.34980  1.0000 0.142067804
H   H175      1.0  0.11780  0.84890  0.34980  1.0000 0.142067804
H   H176      1.0  0.15110  0.11780  0.34980  1.0000 0.142067804
H   H177      1.0  0.24860  0.26900  0.73500  1.0000 0.1327274186
H   H178      1.0  0.73100  0.24860  0.73500  1.0000 0.1327274186
H   H179      1.0  0.75140  0.73100  0.73500  1.0000 0.1327274186
H   H180      1.0  0.26900  0.75140  0.73500  1.0000 0.1327274186
H   H181      1.0  0.24860  0.73100  0.76500  1.0000 0.1327274186
H   H182      1.0  0.26900  0.24860  0.76500  1.0000 0.1327274186
H   H183      1.0  0.75140  0.26900  0.76500  1.0000 0.1327274186
H   H184      1.0  0.73100  0.75140  0.76500  1.0000 0.1327274186
H   H185      1.0  0.75140  0.73100  0.26500  1.0000 0.1327274186
H   H186      1.0  0.26900  0.75140  0.26500  1.0000 0.1327274186
H   H187      1.0  0.24860  0.26900  0.26500  1.0000 0.1327274186
H   H188      1.0  0.73100  0.24860  0.26500  1.0000 0.1327274186
H   H189      1.0  0.75140  0.26900  0.23500  1.0000 0.1327274186
H   H190      1.0  0.73100  0.75140  0.23500  1.0000 0.1327274186
H   H191      1.0  0.24860  0.73100  0.23500  1.0000 0.1327274186
H   H192      1.0  0.26900  0.24860  0.23500  1.0000 0.1327274186
C   C1        1.0  0.32372  0.11423  0.88736  1.0000 0.5783494608
C   C2        1.0  0.88577  0.32372  0.88736  1.0000 0.5783494608
C   C3        1.0  0.67628  0.88577  0.88736  1.0000 0.5783494608
C   C4        1.0  0.11423  0.67628  0.88736  1.0000 0.5783494608
C   C5        1.0  0.32372  0.88577  0.61264  1.0000 0.5783494608
C   C6        1.0  0.11423  0.32372  0.61264  1.0000 0.5783494608
C   C7        1.0  0.67628  0.11423  0.61264  1.0000 0.5783494608
C   C8        1.0  0.88577  0.67628  0.61264  1.0000 0.5783494608
C   C9        1.0  0.67628  0.88577  0.11264  1.0000 0.5783494608
C   C10       1.0  0.11423  0.67628  0.11264  1.0000 0.5783494608
C   C11       1.0  0.32372  0.11423  0.11264  1.0000 0.5783494608
C   C12       1.0  0.88577  0.32372  0.11264  1.0000 0.5783494608
C   C13       1.0  0.67628  0.11423  0.38736  1.0000 0.5783494608
C   C14       1.0  0.88577  0.67628  0.38736  1.0000 0.5783494608
C   C15       1.0  0.32372  0.88577  0.38736  1.0000 0.5783494608
C   C16       1.0  0.11423  0.32372  0.38736  1.0000 0.5783494608
C   C17       1.0  0.34866  0.16300  0.90327  1.0000 -0.0117881725
C   C18       1.0  0.83700  0.34866  0.90327  1.0000 -0.0117881725
C   C19       1.0  0.65134  0.83700  0.90327  1.0000 -0.0117881725
C   C20       1.0  0.16300  0.65134  0.90327  1.0000 -0.0117881725
C   C21       1.0  0.34866  0.83700  0.59673  1.0000 -0.0117881725
C   C22       1.0  0.16300  0.34866  0.59673  1.0000 -0.0117881725
C   C23       1.0  0.65134  0.16300  0.59673  1.0000 -0.0117881725
C   C24       1.0  0.83700  0.65134  0.59673  1.0000 -0.0117881725
C   C25       1.0  0.65134  0.83700  0.09673  1.0000 -0.0117881725
C   C26       1.0  0.16300  0.65134  0.09673  1.0000 -0.0117881725
C   C27       1.0  0.34866  0.16300  0.09673  1.0000 -0.0117881725
C   C28       1.0  0.83700  0.34866  0.09673  1.0000 -0.0117881725
C   C29       1.0  0.65134  0.16300  0.40327  1.0000 -0.0117881725
C   C30       1.0  0.83700  0.65134  0.40327  1.0000 -0.0117881725
C   C31       1.0  0.34866  0.83700  0.40327  1.0000 -0.0117881725
C   C32       1.0  0.16300  0.34866  0.40327  1.0000 -0.0117881725
C   C33       1.0  0.32011  0.18672  0.92570  1.0000 -0.122410165
C   C34       1.0  0.81328  0.32011  0.92570  1.0000 -0.122410165
C   C35       1.0  0.67989  0.81328  0.92570  1.0000 -0.122410165
C   C36       1.0  0.18672  0.67989  0.92570  1.0000 -0.122410165
C   C37       1.0  0.32011  0.81328  0.57430  1.0000 -0.122410165
C   C38       1.0  0.18672  0.32011  0.57430  1.0000 -0.122410165
C   C39       1.0  0.67989  0.18672  0.57430  1.0000 -0.122410165
C   C40       1.0  0.81328  0.67989  0.57430  1.0000 -0.122410165
C   C41       1.0  0.67989  0.81328  0.07430  1.0000 -0.1255600268
C   C42       1.0  0.18672  0.67989  0.07430  1.0000 -0.1255600268
C   C43       1.0  0.32011  0.18672  0.07430  1.0000 -0.1255600268
C   C44       1.0  0.81328  0.32011  0.07430  1.0000 -0.122410165
C   C45       1.0  0.67989  0.18672  0.42570  1.0000 -0.122410165
C   C46       1.0  0.81328  0.67989  0.42570  1.0000 -0.122410165
C   C47       1.0  0.32011  0.81328  0.42570  1.0000 -0.122410165
C   C48       1.0  0.18672  0.32011  0.42570  1.0000 -0.122410165
C   C49       1.0  0.34232  0.23359  0.93968  1.0000 -0.0171731571
C   C50       1.0  0.76641  0.34232  0.93968  1.0000 -0.0171731571
C   C51       1.0  0.65768  0.76641  0.93968  1.0000 -0.0171731571
C   C52       1.0  0.23359  0.65768  0.93968  1.0000 -0.0171731571
C   C53       1.0  0.34232  0.76641  0.56032  1.0000 -0.0171731571
C   C54       1.0  0.23359  0.34232  0.56032  1.0000 -0.0171731571
C   C55       1.0  0.65768  0.23359  0.56032  1.0000 -0.0171731571
C   C56       1.0  0.76641  0.65768  0.56032  1.0000 -0.0171731571
C   C57       1.0  0.65768  0.76641  0.06032  1.0000 -0.0171731571
C   C58       1.0  0.23359  0.65768  0.06032  1.0000 -0.0171731571
C   C59       1.0  0.34232  0.23359  0.06032  1.0000 -0.0171731571
C   C60       1.0  0.76641  0.34232  0.06032  1.0000 -0.0171731571
C   C61       1.0  0.65768  0.23359  0.43968  1.0000 -0.0171731571
C   C62       1.0  0.76641  0.65768  0.43968  1.0000 -0.0171731571
C   C63       1.0  0.34232  0.76641  0.43968  1.0000 -0.0171731571
C   C64       1.0  0.23359  0.34232  0.43968  1.0000 -0.0171731571
C   C65       1.0  0.30824  0.26238  0.96240  1.0000 0.5783494608
C   C66       1.0  0.73762  0.30824  0.96240  1.0000 0.5783494608
C   C67       1.0  0.69176  0.73762  0.96240  1.0000 0.5783494608
C   C68       1.0  0.26238  0.69176  0.96240  1.0000 0.5783494608
C   C69       1.0  0.30824  0.73762  0.53760  1.0000 0.5783494608
C   C70       1.0  0.26238  0.30824  0.53760  1.0000 0.5783494608
C   C71       1.0  0.69176  0.26238  0.53760  1.0000 0.5783494608
C   C72       1.0  0.73762  0.69176  0.53760  1.0000 0.5783494608
C   C73       1.0  0.69176  0.73762  0.03760  1.0000 0.5783494608
C   C74       1.0  0.26238  0.69176  0.03760  1.0000 0.5783494608
C   C75       1.0  0.30824  0.26238  0.03760  1.0000 0.5783494608
C   C76       1.0  0.73762  0.30824  0.03760  1.0000 0.5783494608
C   C77       1.0  0.69176  0.26238  0.46240  1.0000 0.5783494608
C   C78       1.0  0.73762  0.69176  0.46240  1.0000 0.5783494608
C   C79       1.0  0.30824  0.73762  0.46240  1.0000 0.5783494608
C   C80       1.0  0.26238  0.30824  0.46240  1.0000 0.5783494608
C   C81       1.0  0.39483  0.25419  0.93213  1.0000 -0.201288054
C   C82       1.0  0.74581  0.39483  0.93213  1.0000 -0.201288054
C   C83       1.0  0.60517  0.74581  0.93213  1.0000 -0.201288054
C   C84       1.0  0.25419  0.60517  0.93213  1.0000 -0.201288054
C   C85       1.0  0.39483  0.74581  0.56787  1.0000 -0.201288054
C   C86       1.0  0.25419  0.39483  0.56787  1.0000 -0.201288054
C   C87       1.0  0.60517  0.25419  0.56787  1.0000 -0.201288054
C   C88       1.0  0.74581  0.60517  0.56787  1.0000 -0.201288054
C   C89       1.0  0.60517  0.74581  0.06787  1.0000 -0.201288054
C   C90       1.0  0.25419  0.60517  0.06787  1.0000 -0.201288054
C   C91       1.0  0.39483  0.25419  0.06787  1.0000 -0.201288054
C   C92       1.0  0.74581  0.39483  0.06787  1.0000 -0.201288054
C   C93       1.0  0.60517  0.25419  0.43213  1.0000 -0.201288054
C   C94       1.0  0.74581  0.60517  0.43213  1.0000 -0.201288054
C   C95       1.0  0.39483  0.74581  0.43213  1.0000 -0.201288054
C   C96       1.0  0.25419  0.39483  0.43213  1.0000 -0.201288054
C   C97       1.0  0.42512  0.22870  0.90999  1.0000 0.2491561951
C   C98       1.0  0.77130  0.42512  0.90999  1.0000 0.2491561951
C   C99       1.0  0.57488  0.77130  0.90999  1.0000 0.2491561951
C   C100      1.0  0.22870  0.57488  0.90999  1.0000 0.2491561951
C   C101      1.0  0.42512  0.77130  0.59001  1.0000 0.2491561951
C   C102      1.0  0.22870  0.42512  0.59001  1.0000 0.2491561951
C   C103      1.0  0.57488  0.22870  0.59001  1.0000 0.2491561951
C   C104      1.0  0.77130  0.57488  0.59001  1.0000 0.2491561951
C   C105      1.0  0.57488  0.77130  0.09001  1.0000 0.2491561951
C   C106      1.0  0.22870  0.57488  0.09001  1.0000 0.2491561951
C   C107      1.0  0.42512  0.22870  0.09001  1.0000 0.2491561951
C   C108      1.0  0.77130  0.42512  0.09001  1.0000 0.2491561951
C   C109      1.0  0.57488  0.22870  0.40999  1.0000 0.2491561951
C   C110      1.0  0.77130  0.57488  0.40999  1.0000 0.2491561951
C   C111      1.0  0.42512  0.77130  0.40999  1.0000 0.2491561951
C   C112      1.0  0.22870  0.42512  0.40999  1.0000 0.2491561951
C   C113      1.0  0.40184  0.18418  0.89505  1.0000 -0.2381522144
C   C114      1.0  0.81582  0.40184  0.89505  1.0000 -0.2381522144
C   C115      1.0  0.59816  0.81582  0.89505  1.0000 -0.2381522144
C   C116      1.0  0.18418  0.59816  0.89505  1.0000 -0.2381522144
C   C117      1.0  0.40184  0.81582  0.60495  1.0000 -0.2381522144
C   C118      1.0  0.18418  0.40184  0.60495  1.0000 -0.2381522144
C   C119      1.0  0.59816  0.18418  0.60495  1.0000 -0.2381522144
C   C120      1.0  0.81582  0.59816  0.60495  1.0000 -0.2381522144
C   C121      1.0  0.59816  0.81582  0.10495  1.0000 -0.2381522144
C   C122      1.0  0.18418  0.59816  0.10495  1.0000 -0.2381522144
C   C123      1.0  0.40184  0.18418  0.10495  1.0000 -0.2381522144
C   C124      1.0  0.81582  0.40184  0.10495  1.0000 -0.2381522144
C   C125      1.0  0.59816  0.18418  0.39505  1.0000 -0.2381522144
C   C126      1.0  0.81582  0.59816  0.39505  1.0000 -0.2381522144
C   C127      1.0  0.40184  0.81582  0.39505  1.0000 -0.2381522144
C   C128      1.0  0.18418  0.40184  0.39505  1.0000 -0.2381522144
C   C129      1.0  0.50540  0.23640  0.87936  1.0000 0.1012492393
C   C130      1.0  0.76360  0.50540  0.87936  1.0000 0.1012492393
C   C131      1.0  0.49460  0.76360  0.87936  1.0000 0.1012492393
C   C132      1.0  0.23640  0.49460  0.87936  1.0000 0.1012492393
C   C133      1.0  0.50540  0.76360  0.62064  1.0000 0.1012492393
C   C134      1.0  0.23640  0.50540  0.62064  1.0000 0.1012492393
C   C135      1.0  0.49460  0.23640  0.62064  1.0000 0.1012492393
C   C136      1.0  0.76360  0.49460  0.62064  1.0000 0.1012492393
C   C137      1.0  0.49460  0.76360  0.12064  1.0000 0.1012492393
C   C138      1.0  0.23640  0.49460  0.12064  1.0000 0.1012492393
C   C139      1.0  0.50540  0.23640  0.12064  1.0000 0.1012492393
C   C140      1.0  0.76360  0.50540  0.12064  1.0000 0.1012492393
C   C141      1.0  0.49460  0.23640  0.37936  1.0000 0.1012492393
C   C142      1.0  0.76360  0.49460  0.37936  1.0000 0.1012492393
C   C143      1.0  0.50540  0.76360  0.37936  1.0000 0.1012492393
C   C144      1.0  0.23640  0.50540  0.37936  1.0000 0.1012492393
C   C145      1.0  0.66773  0.04018  0.88607  1.0000 0.5783494608
C   C146      1.0  0.95982  0.66773  0.88607  1.0000 0.5783494608
C   C147      1.0  0.33227  0.95982  0.88607  1.0000 0.5783494608
C   C148      1.0  0.04018  0.33227  0.88607  1.0000 0.5783494608
C   C149      1.0  0.66773  0.95982  0.61393  1.0000 0.5783494608
C   C150      1.0  0.04018  0.66773  0.61393  1.0000 0.5783494608
C   C151      1.0  0.33227  0.04018  0.61393  1.0000 0.5783494608
C   C152      1.0  0.95982  0.33227  0.61393  1.0000 0.5783494608
C   C153      1.0  0.33227  0.95982  0.11393  1.0000 0.5783494608
C   C154      1.0  0.04018  0.33227  0.11393  1.0000 0.5783494608
C   C155      1.0  0.66773  0.04018  0.11393  1.0000 0.5783494608
C   C156      1.0  0.95982  0.66773  0.11393  1.0000 0.5783494608
C   C157      1.0  0.33227  0.04018  0.38607  1.0000 0.5783494608
C   C158      1.0  0.95982  0.33227  0.38607  1.0000 0.5783494608
C   C159      1.0  0.66773  0.95982  0.38607  1.0000 0.5783494608
C   C160      1.0  0.04018  0.66773  0.38607  1.0000 0.5783494608
C   C161      1.0  0.63699  0.09017  0.89878  1.0000 -0.0117881725
C   C162      1.0  0.90983  0.63699  0.89878  1.0000 -0.0117881725
C   C163      1.0  0.36301  0.90983  0.89878  1.0000 -0.0117881725
C   C164      1.0  0.09017  0.36301  0.89878  1.0000 -0.0117881725
C   C165      1.0  0.63699  0.90983  0.60122  1.0000 -0.0117881725
C   C166      1.0  0.09017  0.63699  0.60122  1.0000 -0.0117881725
C   C167      1.0  0.36301  0.09017  0.60122  1.0000 -0.0117881725
C   C168      1.0  0.90983  0.36301  0.60122  1.0000 -0.0117881725
C   C169      1.0  0.36301  0.90983  0.10122  1.0000 -0.0117881725
C   C170      1.0  0.09017  0.36301  0.10122  1.0000 -0.0117881725
C   C171      1.0  0.63699  0.09017  0.10122  1.0000 -0.0117881725
C   C172      1.0  0.90983  0.63699  0.10122  1.0000 -0.0117881725
C   C173      1.0  0.36301  0.09017  0.39878  1.0000 -0.0117881725
C   C174      1.0  0.90983  0.36301  0.39878  1.0000 -0.0117881725
C   C175      1.0  0.63699  0.90983  0.39878  1.0000 -0.0117881725
C   C176      1.0  0.09017  0.63699  0.39878  1.0000 -0.0117881725
C   C177      1.0  0.59149  0.11296  0.88410  1.0000 -0.201288054
C   C178      1.0  0.88704  0.59149  0.88410  1.0000 -0.201288054
C   C179      1.0  0.40851  0.88704  0.88410  1.0000 -0.201288054
C   C180      1.0  0.11296  0.40851  0.88410  1.0000 -0.201288054
C   C181      1.0  0.59149  0.88704  0.61590  1.0000 -0.201288054
C   C182      1.0  0.11296  0.59149  0.61590  1.0000 -0.201288054
C   C183      1.0  0.40851  0.11296  0.61590  1.0000 -0.201288054
C   C184      1.0  0.88704  0.40851  0.61590  1.0000 -0.201288054
C   C185      1.0  0.40851  0.88704  0.11590  1.0000 -0.201288054
C   C186      1.0  0.11296  0.40851  0.11590  1.0000 -0.201288054
C   C187      1.0  0.59149  0.11296  0.11590  1.0000 -0.201288054
C   C188      1.0  0.88704  0.59149  0.11590  1.0000 -0.201288054
C   C189      1.0  0.40851  0.11296  0.38410  1.0000 -0.201288054
C   C190      1.0  0.88704  0.40851  0.38410  1.0000 -0.201288054
C   C191      1.0  0.59149  0.88704  0.38410  1.0000 -0.201288054
C   C192      1.0  0.11296  0.59149  0.38410  1.0000 -0.201288054
C   C193      1.0  0.56518  0.16086  0.89383  1.0000 0.2428876375
C   C194      1.0  0.83914  0.56518  0.89383  1.0000 0.2428876375
C   C195      1.0  0.43482  0.83914  0.89383  1.0000 0.2428876375
C   C196      1.0  0.16086  0.43482  0.89383  1.0000 0.2428876375
C   C197      1.0  0.56518  0.83914  0.60617  1.0000 0.2428876375
C   C198      1.0  0.16086  0.56518  0.60617  1.0000 0.2428876375
C   C199      1.0  0.43482  0.16086  0.60617  1.0000 0.2428876375
C   C200      1.0  0.83914  0.43482  0.60617  1.0000 0.2428876375
C   C201      1.0  0.43482  0.83914  0.10617  1.0000 0.2428876375
C   C202      1.0  0.16086  0.43482  0.10617  1.0000 0.2428876375
C   C203      1.0  0.56518  0.16086  0.10617  1.0000 0.2428876375
C   C204      1.0  0.83914  0.56518  0.10617  1.0000 0.2428876375
C   C205      1.0  0.43482  0.16086  0.39383  1.0000 0.2428876375
C   C206      1.0  0.83914  0.43482  0.39383  1.0000 0.2428876375
C   C207      1.0  0.56518  0.83914  0.39383  1.0000 0.2428876375
C   C208      1.0  0.16086  0.56518  0.39383  1.0000 0.2428876375
C   C209      1.0  0.58287  0.18648  0.91907  1.0000 -0.228754192
C   C210      1.0  0.81352  0.58287  0.91907  1.0000 -0.228754192
C   C211      1.0  0.41713  0.81352  0.91907  1.0000 -0.228754192
C   C212      1.0  0.18648  0.41713  0.91907  1.0000 -0.228754192
C   C213      1.0  0.58287  0.81352  0.58093  1.0000 -0.228754192
C   C214      1.0  0.18648  0.58287  0.58093  1.0000 -0.228754192
C   C215      1.0  0.41713  0.18648  0.58093  1.0000 -0.228754192
C   C216      1.0  0.81352  0.41713  0.58093  1.0000 -0.228754192
C   C217      1.0  0.41713  0.81352  0.08093  1.0000 -0.228754192
C   C218      1.0  0.18648  0.41713  0.08093  1.0000 -0.228754192
C   C219      1.0  0.58287  0.18648  0.08093  1.0000 -0.228754192
C   C220      1.0  0.81352  0.58287  0.08093  1.0000 -0.228754192
C   C221      1.0  0.41713  0.18648  0.41907  1.0000 -0.228754192
C   C222      1.0  0.81352  0.41713  0.41907  1.0000 -0.228754192
C   C223      1.0  0.58287  0.81352  0.41907  1.0000 -0.228754192
C   C224      1.0  0.18648  0.58287  0.41907  1.0000 -0.228754192
C   C225      1.0  0.62873  0.16287  0.93361  1.0000 0.0048725865
C   C226      1.0  0.83713  0.62873  0.93361  1.0000 0.0048725865
C   C227      1.0  0.37127  0.83713  0.93361  1.0000 0.0048725865
C   C228      1.0  0.16287  0.37127  0.93361  1.0000 0.0048725865
C   C229      1.0  0.62873  0.83713  0.56639  1.0000 0.0048725865
C   C230      1.0  0.16287  0.62873  0.56639  1.0000 0.0048725865
C   C231      1.0  0.37127  0.16287  0.56639  1.0000 0.0048725865
C   C232      1.0  0.83713  0.37127  0.56639  1.0000 0.0048725865
C   C233      1.0  0.37127  0.83713  0.06639  1.0000 0.0048725865
C   C234      1.0  0.16287  0.37127  0.06639  1.0000 0.0048725865
C   C235      1.0  0.62873  0.16287  0.06639  1.0000 0.0048725865
C   C236      1.0  0.83713  0.62873  0.06639  1.0000 0.0048725865
C   C237      1.0  0.37127  0.16287  0.43361  1.0000 0.0048725865
C   C238      1.0  0.83713  0.37127  0.43361  1.0000 0.0048725865
C   C239      1.0  0.62873  0.83713  0.43361  1.0000 0.0048725865
C   C240      1.0  0.16287  0.62873  0.43361  1.0000 0.0048725865
C   C241      1.0  0.65033  0.19185  0.96021  1.0000 0.5783494608
C   C242      1.0  0.80815  0.65033  0.96021  1.0000 0.5783494608
C   C243      1.0  0.34967  0.80815  0.96021  1.0000 0.5783494608
C   C244      1.0  0.19185  0.34967  0.96021  1.0000 0.5783494608
C   C245      1.0  0.65033  0.80815  0.53979  1.0000 0.5783494608
C   C246      1.0  0.19185  0.65033  0.53979  1.0000 0.5783494608
C   C247      1.0  0.34967  0.19185  0.53979  1.0000 0.5783494608
C   C248      1.0  0.80815  0.34967  0.53979  1.0000 0.5783494608
C   C249      1.0  0.34967  0.80815  0.03979  1.0000 0.5783494608
C   C250      1.0  0.19185  0.34967  0.03979  1.0000 0.5783494608
C   C251      1.0  0.65033  0.19185  0.03979  1.0000 0.5783494608
C   C252      1.0  0.80815  0.65033  0.03979  1.0000 0.5783494608
C   C253      1.0  0.34967  0.19185  0.46021  1.0000 0.5783494608
C   C254      1.0  0.80815  0.34967  0.46021  1.0000 0.5783494608
C   C255      1.0  0.65033  0.80815  0.46021  1.0000 0.5783494608
C   C256      1.0  0.19185  0.65033  0.46021  1.0000 0.5783494608
C   C257      1.0  0.65546  0.11482  0.92351  1.0000 -0.122410165
C   C258      1.0  0.88518  0.65546  0.92351  1.0000 -0.1255600268
C   C259      1.0  0.34454  0.88518  0.92351  1.0000 -0.1255600268
C   C260      1.0  0.11482  0.34454  0.92351  1.0000 -0.1255600268
C   C261      1.0  0.65546  0.88518  0.57649  1.0000 -0.1255600268
C   C262      1.0  0.11482  0.65546  0.57649  1.0000 -0.1255600268
C   C263      1.0  0.34454  0.11482  0.57649  1.0000 -0.1255600268
C   C264      1.0  0.88518  0.34454  0.57649  1.0000 -0.1255600268
C   C265      1.0  0.34454  0.88518  0.07649  1.0000 -0.1255600268
C   C266      1.0  0.11482  0.34454  0.07649  1.0000 -0.1255600268
C   C267      1.0  0.65546  0.11482  0.07649  1.0000 -0.1255600268
C   C268      1.0  0.88518  0.65546  0.07649  1.0000 -0.1255600268
C   C269      1.0  0.34454  0.11482  0.42351  1.0000 -0.1255600268
C   C270      1.0  0.88518  0.34454  0.42351  1.0000 -0.1255600268
C   C271      1.0  0.65546  0.88518  0.42351  1.0000 -0.1255600268
C   C272      1.0  0.11482  0.65546  0.42351  1.0000 -0.1255600268
C   C273      1.0  0.04665  0.23260  0.83498  1.0000 0.5783494608
C   C274      1.0  0.76740  0.04665  0.83498  1.0000 0.5783494608
C   C275      1.0  0.95335  0.76740  0.83498  1.0000 0.5783494608
C   C276      1.0  0.23260  0.95335  0.83498  1.0000 0.5783494608
C   C277      1.0  0.04665  0.76740  0.66502  1.0000 0.5783494608
C   C278      1.0  0.23260  0.04665  0.66502  1.0000 0.5783494608
C   C279      1.0  0.95335  0.23260  0.66502  1.0000 0.5783494608
C   C280      1.0  0.76740  0.95335  0.66502  1.0000 0.5783494608
C   C281      1.0  0.95335  0.76740  0.16502  1.0000 0.5783494608
C   C282      1.0  0.23260  0.95335  0.16502  1.0000 0.5783494608
C   C283      1.0  0.04665  0.23260  0.16502  1.0000 0.5783494608
C   C284      1.0  0.76740  0.04665  0.16502  1.0000 0.5783494608
C   C285      1.0  0.95335  0.23260  0.33498  1.0000 0.5783494608
C   C286      1.0  0.76740  0.95335  0.33498  1.0000 0.5783494608
C   C287      1.0  0.04665  0.76740  0.33498  1.0000 0.5783494608
C   C288      1.0  0.23260  0.04665  0.33498  1.0000 0.5783494608
C   C289      1.0  0.10006  0.21204  0.82106  1.0000 -0.0117881725
C   C290      1.0  0.78796  0.10006  0.82106  1.0000 -0.0117881725
C   C291      1.0  0.89994  0.78796  0.82106  1.0000 -0.0117881725
C   C292      1.0  0.21204  0.89994  0.82106  1.0000 -0.0117881725
C   C293      1.0  0.10006  0.78796  0.67894  1.0000 -0.0117881725
C   C294      1.0  0.21204  0.10006  0.67894  1.0000 -0.0117881725
C   C295      1.0  0.89994  0.21204  0.67894  1.0000 -0.0117881725
C   C296      1.0  0.78796  0.89994  0.67894  1.0000 -0.0117881725
C   C297      1.0  0.89994  0.78796  0.17894  1.0000 -0.0117881725
C   C298      1.0  0.21204  0.89994  0.17894  1.0000 -0.0117881725
C   C299      1.0  0.10006  0.21204  0.17894  1.0000 -0.0117881725
C   C300      1.0  0.78796  0.10006  0.17894  1.0000 -0.0117881725
C   C301      1.0  0.89994  0.21204  0.32106  1.0000 -0.0117881725
C   C302      1.0  0.78796  0.89994  0.32106  1.0000 -0.0117881725
C   C303      1.0  0.10006  0.78796  0.32106  1.0000 -0.0117881725
C   C304      1.0  0.21204  0.10006  0.32106  1.0000 -0.0117881725
C   C305      1.0  0.11980  0.23773  0.79654  1.0000 -0.1943585212
C   C306      1.0  0.76227  0.11980  0.79654  1.0000 -0.1943585212
C   C307      1.0  0.88020  0.76227  0.79654  1.0000 -0.1943585212
C   C308      1.0  0.23773  0.88020  0.79654  1.0000 -0.201288054
C   C309      1.0  0.11980  0.76227  0.70346  1.0000 -0.201288054
C   C310      1.0  0.23773  0.11980  0.70346  1.0000 -0.1943585212
C   C311      1.0  0.88020  0.23773  0.70346  1.0000 -0.1943585212
C   C312      1.0  0.76227  0.88020  0.70346  1.0000 -0.201288054
C   C313      1.0  0.88020  0.76227  0.20346  1.0000 -0.201288054
C   C314      1.0  0.23773  0.88020  0.20346  1.0000 -0.201288054
C   C315      1.0  0.11980  0.23773  0.20346  1.0000 -0.201288054
C   C316      1.0  0.76227  0.11980  0.20346  1.0000 -0.201288054
C   C317      1.0  0.88020  0.23773  0.29654  1.0000 -0.201288054
C   C318      1.0  0.76227  0.88020  0.29654  1.0000 -0.201288054
C   C319      1.0  0.11980  0.76227  0.29654  1.0000 -0.201288054
C   C320      1.0  0.23773  0.11980  0.29654  1.0000 -0.201288054
C   C321      1.0  0.17062  0.22139  0.78494  1.0000 0.2491561951
C   C322      1.0  0.77861  0.17062  0.78494  1.0000 0.2491561951
C   C323      1.0  0.82938  0.77861  0.78494  1.0000 0.2491561951
C   C324      1.0  0.22139  0.82938  0.78494  1.0000 0.2491561951
C   C325      1.0  0.17062  0.77861  0.71506  1.0000 0.2491561951
C   C326      1.0  0.22139  0.17062  0.71506  1.0000 0.2491561951
C   C327      1.0  0.82938  0.22139  0.71506  1.0000 0.2491561951
C   C328      1.0  0.77861  0.82938  0.71506  1.0000 0.2491561951
C   C329      1.0  0.82938  0.77861  0.21506  1.0000 0.2491561951
C   C330      1.0  0.22139  0.82938  0.21506  1.0000 0.2491561951
C   C331      1.0  0.17062  0.22139  0.21506  1.0000 0.2491561951
C   C332      1.0  0.77861  0.17062  0.21506  1.0000 0.2491561951
C   C333      1.0  0.82938  0.22139  0.28494  1.0000 0.2491561951
C   C334      1.0  0.77861  0.82938  0.28494  1.0000 0.2491561951
C   C335      1.0  0.17062  0.77861  0.28494  1.0000 0.2491561951
C   C336      1.0  0.22139  0.17062  0.28494  1.0000 0.2491561951
C   C337      1.0  0.20268  0.17924  0.79758  1.0000 -0.2211624488
C   C338      1.0  0.82076  0.20268  0.79758  1.0000 -0.2211624488
C   C339      1.0  0.79732  0.82076  0.79758  1.0000 -0.228754192
C   C340      1.0  0.17924  0.79732  0.79758  1.0000 -0.228754192
C   C341      1.0  0.20268  0.82076  0.70242  1.0000 -0.228754192
C   C342      1.0  0.17924  0.20268  0.70242  1.0000 -0.2211624488
C   C343      1.0  0.79732  0.17924  0.70242  1.0000 -0.2211624488
C   C344      1.0  0.82076  0.79732  0.70242  1.0000 -0.228754192
C   C345      1.0  0.79732  0.82076  0.20242  1.0000 -0.228754192
C   C346      1.0  0.17924  0.79732  0.20242  1.0000 -0.228754192
C   C347      1.0  0.20268  0.17924  0.20242  1.0000 -0.228754192
C   C348      1.0  0.82076  0.20268  0.20242  1.0000 -0.228754192
C   C349      1.0  0.79732  0.17924  0.29758  1.0000 -0.228754192
C   C350      1.0  0.82076  0.79732  0.29758  1.0000 -0.228754192
C   C351      1.0  0.20268  0.82076  0.29758  1.0000 -0.228754192
C   C352      1.0  0.17924  0.20268  0.29758  1.0000 -0.228754192
C   C353      1.0  0.13140  0.16916  0.83354  1.0000 -0.122410165
C   C354      1.0  0.83084  0.13140  0.83354  1.0000 -0.122410165
C   C355      1.0  0.86860  0.83084  0.83354  1.0000 -0.122410165
C   C356      1.0  0.16916  0.86860  0.83354  1.0000 -0.122410165
C   C357      1.0  0.13140  0.83084  0.66646  1.0000 -0.122410165
C   C358      1.0  0.16916  0.13140  0.66646  1.0000 -0.122410165
C   C359      1.0  0.86860  0.16916  0.66646  1.0000 -0.122410165
C   C360      1.0  0.83084  0.86860  0.66646  1.0000 -0.122410165
C   C361      1.0  0.86860  0.83084  0.16646  1.0000 -0.122410165
C   C362      1.0  0.16916  0.86860  0.16646  1.0000 -0.122410165
C   C363      1.0  0.13140  0.16916  0.16646  1.0000 -0.122410165
C   C364      1.0  0.83084  0.13140  0.16646  1.0000 -0.122410165
C   C365      1.0  0.86860  0.16916  0.33354  1.0000 -0.122410165
C   C366      1.0  0.83084  0.86860  0.33354  1.0000 -0.122410165
C   C367      1.0  0.13140  0.83084  0.33354  1.0000 -0.122410165
C   C368      1.0  0.16916  0.13140  0.33354  1.0000 -0.122410165
C   C369      1.0  0.18256  0.15316  0.82207  1.0000 -0.0117881725
C   C370      1.0  0.84684  0.18256  0.82207  1.0000 -0.0117881725
C   C371      1.0  0.81744  0.84684  0.82207  1.0000 -0.0117881725
C   C372      1.0  0.15316  0.81744  0.82207  1.0000 -0.0117881725
C   C373      1.0  0.18256  0.84684  0.67793  1.0000 -0.0117881725
C   C374      1.0  0.15316  0.18256  0.67793  1.0000 -0.0117881725
C   C375      1.0  0.81744  0.15316  0.67793  1.0000 -0.0117881725
C   C376      1.0  0.84684  0.81744  0.67793  1.0000 -0.0117881725
C   C377      1.0  0.81744  0.84684  0.17793  1.0000 -0.0117881725
C   C378      1.0  0.15316  0.81744  0.17793  1.0000 -0.0117881725
C   C379      1.0  0.18256  0.15316  0.17793  1.0000 -0.0117881725
C   C380      1.0  0.84684  0.18256  0.17793  1.0000 -0.0117881725
C   C381      1.0  0.81744  0.15316  0.32207  1.0000 -0.0117881725
C   C382      1.0  0.84684  0.81744  0.32207  1.0000 -0.0117881725
C   C383      1.0  0.18256  0.84684  0.32207  1.0000 -0.0117881725
C   C384      1.0  0.15316  0.18256  0.32207  1.0000 -0.0117881725
C   C385      1.0  0.21714  0.10770  0.83597  1.0000 0.5783494608
C   C386      1.0  0.89230  0.21714  0.83597  1.0000 0.5783494608
C   C387      1.0  0.78286  0.89230  0.83597  1.0000 0.5783494608
C   C388      1.0  0.10770  0.78286  0.83597  1.0000 0.5783494608
C   C389      1.0  0.21714  0.89230  0.66403  1.0000 0.5783494608
C   C390      1.0  0.10770  0.21714  0.66403  1.0000 0.5783494608
C   C391      1.0  0.78286  0.10770  0.66403  1.0000 0.5783494608
C   C392      1.0  0.89230  0.78286  0.66403  1.0000 0.5783494608
C   C393      1.0  0.78286  0.89230  0.16403  1.0000 0.5783494608
C   C394      1.0  0.10770  0.78286  0.16403  1.0000 0.5783494608
C   C395      1.0  0.21714  0.10770  0.16403  1.0000 0.5783494608
C   C396      1.0  0.89230  0.21714  0.16403  1.0000 0.5783494608
C   C397      1.0  0.78286  0.10770  0.33597  1.0000 0.5783494608
C   C398      1.0  0.89230  0.78286  0.33597  1.0000 0.5783494608
C   C399      1.0  0.21714  0.89230  0.33597  1.0000 0.5783494608
C   C400      1.0  0.10770  0.21714  0.33597  1.0000 0.5783494608
C   C401      1.0  0.24160  0.24160  0.75000  1.0000 0.1012492393
C   C402      1.0  0.75840  0.24160  0.75000  1.0000 0.1012492393
C   C403      1.0  0.75840  0.75840  0.75000  1.0000 0.1012492393
C   C404      1.0  0.24160  0.75840  0.75000  1.0000 0.1012492393
C   C405      1.0  0.75840  0.75840  0.25000  1.0000 0.1012492393
C   C406      1.0  0.24160  0.75840  0.25000  1.0000 0.1012492393
C   C407      1.0  0.24160  0.24160  0.25000  1.0000 0.1012492393
C   C408      1.0  0.75840  0.24160  0.25000  1.0000 0.1012492393
O   O1        1.0  0.34924  0.09742  0.86581  1.0000 -0.5119234669
O   O2        1.0  0.90258  0.34924  0.86581  1.0000 -0.5119234669
O   O3        1.0  0.65076  0.90258  0.86581  1.0000 -0.5119234669
O   O4        1.0  0.09742  0.65076  0.86581  1.0000 -0.5119234669
O   O5        1.0  0.34924  0.90258  0.63419  1.0000 -0.5119234669
O   O6        1.0  0.09742  0.34924  0.63419  1.0000 -0.5119234669
O   O7        1.0  0.65076  0.09742  0.63419  1.0000 -0.5119234669
O   O8        1.0  0.90258  0.65076  0.63419  1.0000 -0.5119234669
O   O9        1.0  0.65076  0.90258  0.13419  1.0000 -0.5119234669
O   O10       1.0  0.09742  0.65076  0.13419  1.0000 -0.5119234669
O   O11       1.0  0.34924  0.09742  0.13419  1.0000 -0.5119234669
O   O12       1.0  0.90258  0.34924  0.13419  1.0000 -0.5119234669
O   O13       1.0  0.65076  0.09742  0.36581  1.0000 -0.5119234669
O   O14       1.0  0.90258  0.65076  0.36581  1.0000 -0.5119234669
O   O15       1.0  0.34924  0.90258  0.36581  1.0000 -0.5119234669
O   O16       1.0  0.09742  0.34924  0.36581  1.0000 -0.5119234669
O   O17       1.0  0.27799  0.09476  0.89714  1.0000 -0.5211057284
O   O18       1.0  0.90524  0.27799  0.89714  1.0000 -0.5211057284
O   O19       1.0  0.72201  0.90524  0.89714  1.0000 -0.5211057284
O   O20       1.0  0.09476  0.72201  0.89714  1.0000 -0.5211057284
O   O21       1.0  0.27799  0.90524  0.60286  1.0000 -0.5211057284
O   O22       1.0  0.09476  0.27799  0.60286  1.0000 -0.5211057284
O   O23       1.0  0.72201  0.09476  0.60286  1.0000 -0.5211057284
O   O24       1.0  0.90524  0.72201  0.60286  1.0000 -0.5211057284
O   O25       1.0  0.72201  0.90524  0.10286  1.0000 -0.5211057284
O   O26       1.0  0.09476  0.72201  0.10286  1.0000 -0.5211057284
O   O27       1.0  0.27799  0.09476  0.10286  1.0000 -0.5211057284
O   O28       1.0  0.90524  0.27799  0.10286  1.0000 -0.5211057284
O   O29       1.0  0.72201  0.09476  0.39714  1.0000 -0.5211057284
O   O30       1.0  0.90524  0.72201  0.39714  1.0000 -0.5211057284
O   O31       1.0  0.27799  0.90524  0.39714  1.0000 -0.5211057284
O   O32       1.0  0.09476  0.27799  0.39714  1.0000 -0.5211057284
O   O33       1.0  0.26493  0.23625  0.97079  1.0000 -0.5273712423
O   O34       1.0  0.76375  0.26493  0.97079  1.0000 -0.5273712423
O   O35       1.0  0.73507  0.76375  0.97079  1.0000 -0.5211057284
O   O36       1.0  0.23625  0.73507  0.97079  1.0000 -0.5273712423
O   O37       1.0  0.26493  0.76375  0.52921  1.0000 -0.5211057284
O   O38       1.0  0.23625  0.26493  0.52921  1.0000 -0.5211057284
O   O39       1.0  0.73507  0.23625  0.52921  1.0000 -0.5211057284
O   O40       1.0  0.76375  0.73507  0.52921  1.0000 -0.5211057284
O   O41       1.0  0.73507  0.76375  0.02921  1.0000 -0.5211057284
O   O42       1.0  0.23625  0.73507  0.02921  1.0000 -0.5211057284
O   O43       1.0  0.26493  0.23625  0.02921  1.0000 -0.5211057284
O   O44       1.0  0.76375  0.26493  0.02921  1.0000 -0.5211057284
O   O45       1.0  0.73507  0.23625  0.47079  1.0000 -0.5211057284
O   O46       1.0  0.76375  0.73507  0.47079  1.0000 -0.5211057284
O   O47       1.0  0.26493  0.76375  0.47079  1.0000 -0.5211057284
O   O48       1.0  0.23625  0.26493  0.47079  1.0000 -0.5211057284
O   O49       1.0  0.32543  0.30935  0.97147  1.0000 -0.5211057284
O   O50       1.0  0.69065  0.32543  0.97147  1.0000 -0.5211057284
O   O51       1.0  0.67457  0.69065  0.97147  1.0000 -0.5211057284
O   O52       1.0  0.30935  0.67457  0.97147  1.0000 -0.5211057284
O   O53       1.0  0.32543  0.69065  0.52853  1.0000 -0.5211057284
O   O54       1.0  0.30935  0.32543  0.52853  1.0000 -0.5211057284
O   O55       1.0  0.67457  0.30935  0.52853  1.0000 -0.5211057284
O   O56       1.0  0.69065  0.67457  0.52853  1.0000 -0.5211057284
O   O57       1.0  0.67457  0.69065  0.02853  1.0000 -0.5211057284
O   O58       1.0  0.30935  0.67457  0.02853  1.0000 -0.5211057284
O   O59       1.0  0.32543  0.30935  0.02853  1.0000 -0.5211057284
O   O60       1.0  0.69065  0.32543  0.02853  1.0000 -0.5211057284
O   O61       1.0  0.67457  0.30935  0.47147  1.0000 -0.5211057284
O   O62       1.0  0.69065  0.67457  0.47147  1.0000 -0.5211057284
O   O63       1.0  0.32543  0.69065  0.47147  1.0000 -0.5211057284
O   O64       1.0  0.30935  0.32543  0.47147  1.0000 -0.5211057284
O   O65       1.0  0.64880  0.02035  0.86324  1.0000 -0.5273712423
O   O66       1.0  0.97965  0.64880  0.86324  1.0000 -0.5273712423
O   O67       1.0  0.35120  0.97965  0.86324  1.0000 -0.5273712423
O   O68       1.0  0.02035  0.35120  0.86324  1.0000 -0.5273712423
O   O69       1.0  0.64880  0.97965  0.63676  1.0000 -0.5273712423
O   O70       1.0  0.02035  0.64880  0.63676  1.0000 -0.5273712423
O   O71       1.0  0.35120  0.02035  0.63676  1.0000 -0.5273712423
O   O72       1.0  0.97965  0.35120  0.63676  1.0000 -0.5273712423
O   O73       1.0  0.35120  0.97965  0.13676  1.0000 -0.5273712423
O   O74       1.0  0.02035  0.35120  0.13676  1.0000 -0.5273712423
O   O75       1.0  0.64880  0.02035  0.13676  1.0000 -0.5273712423
O   O76       1.0  0.97965  0.64880  0.13676  1.0000 -0.5273712423
O   O77       1.0  0.35120  0.02035  0.36324  1.0000 -0.5273712423
O   O78       1.0  0.97965  0.35120  0.36324  1.0000 -0.5273712423
O   O79       1.0  0.64880  0.97965  0.36324  1.0000 -0.5273712423
O   O80       1.0  0.02035  0.64880  0.36324  1.0000 -0.5273712423
O   O81       1.0  0.70993  0.02203  0.89959  1.0000 -0.5211057284
O   O82       1.0  0.97797  0.70993  0.89959  1.0000 -0.5211057284
O   O83       1.0  0.29007  0.97797  0.89959  1.0000 -0.5211057284
O   O84       1.0  0.02203  0.29007  0.89959  1.0000 -0.5211057284
O   O85       1.0  0.70993  0.97797  0.60041  1.0000 -0.5211057284
O   O86       1.0  0.02203  0.70993  0.60041  1.0000 -0.5211057284
O   O87       1.0  0.29007  0.02203  0.60041  1.0000 -0.5211057284
O   O88       1.0  0.97797  0.29007  0.60041  1.0000 -0.5211057284
O   O89       1.0  0.29007  0.97797  0.10041  1.0000 -0.5211057284
O   O90       1.0  0.02203  0.29007  0.10041  1.0000 -0.5211057284
O   O91       1.0  0.70993  0.02203  0.10041  1.0000 -0.5211057284
O   O92       1.0  0.97797  0.70993  0.10041  1.0000 -0.5211057284
O   O93       1.0  0.29007  0.02203  0.39959  1.0000 -0.5211057284
O   O94       1.0  0.97797  0.29007  0.39959  1.0000 -0.5211057284
O   O95       1.0  0.70993  0.97797  0.39959  1.0000 -0.5211057284
O   O96       1.0  0.02203  0.70993  0.39959  1.0000 -0.5211057284
O   O97       1.0  0.62204  0.23241  0.96934  1.0000 -0.5211057284
O   O98       1.0  0.76759  0.62204  0.96934  1.0000 -0.5211057284
O   O99       1.0  0.37796  0.76759  0.96934  1.0000 -0.5211057284
O   O100      1.0  0.23241  0.37796  0.96934  1.0000 -0.5211057284
O   O101      1.0  0.62204  0.76759  0.53066  1.0000 -0.5211057284
O   O102      1.0  0.23241  0.62204  0.53066  1.0000 -0.5211057284
O   O103      1.0  0.37796  0.23241  0.53066  1.0000 -0.5211057284
O   O104      1.0  0.76759  0.37796  0.53066  1.0000 -0.5211057284
O   O105      1.0  0.37796  0.76759  0.03066  1.0000 -0.5211057284
O   O106      1.0  0.23241  0.37796  0.03066  1.0000 -0.5211057284
O   O107      1.0  0.62204  0.23241  0.03066  1.0000 -0.5211057284
O   O108      1.0  0.76759  0.62204  0.03066  1.0000 -0.5211057284
O   O109      1.0  0.37796  0.23241  0.46934  1.0000 -0.5211057284
O   O110      1.0  0.76759  0.37796  0.46934  1.0000 -0.5211057284
O   O111      1.0  0.62204  0.76759  0.46934  1.0000 -0.5211057284
O   O112      1.0  0.23241  0.62204  0.46934  1.0000 -0.5211057284
O   O113      1.0  0.69481  0.17248  0.97016  1.0000 -0.5036770599
O   O114      1.0  0.82752  0.69481  0.97016  1.0000 -0.5036770599
O   O115      1.0  0.30519  0.82752  0.97016  1.0000 -0.5036770599
O   O116      1.0  0.17248  0.30519  0.97016  1.0000 -0.5036770599
O   O117      1.0  0.69481  0.82752  0.52984  1.0000 -0.5036770599
O   O118      1.0  0.17248  0.69481  0.52984  1.0000 -0.5036770599
O   O119      1.0  0.30519  0.17248  0.52984  1.0000 -0.5036770599
O   O120      1.0  0.82752  0.30519  0.52984  1.0000 -0.5036770599
O   O121      1.0  0.30519  0.82752  0.02984  1.0000 -0.5036770599
O   O122      1.0  0.17248  0.30519  0.02984  1.0000 -0.5036770599
O   O123      1.0  0.69481  0.17248  0.02984  1.0000 -0.5036770599
O   O124      1.0  0.82752  0.69481  0.02984  1.0000 -0.5036770599
O   O125      1.0  0.30519  0.17248  0.47016  1.0000 -0.5036770599
O   O126      1.0  0.82752  0.30519  0.47016  1.0000 -0.5036770599
O   O127      1.0  0.69481  0.82752  0.47016  1.0000 -0.5036770599
O   O128      1.0  0.17248  0.69481  0.47016  1.0000 -0.5036770599
O   O129      1.0  0.47756  0.25161  0.90522  1.0000 -0.2211624488
O   O130      1.0  0.74839  0.47756  0.90522  1.0000 -0.2211624488
O   O131      1.0  0.52244  0.74839  0.90522  1.0000 -0.2211624488
O   O132      1.0  0.25161  0.52244  0.90522  1.0000 -0.2211624488
O   O133      1.0  0.47756  0.74839  0.59478  1.0000 -0.2211624488
O   O134      1.0  0.25161  0.47756  0.59478  1.0000 -0.2211624488
O   O135      1.0  0.52244  0.25161  0.59478  1.0000 -0.2211624488
O   O136      1.0  0.74839  0.52244  0.59478  1.0000 -0.2211624488
O   O137      1.0  0.52244  0.74839  0.09478  1.0000 -0.2211624488
O   O138      1.0  0.25161  0.52244  0.09478  1.0000 -0.2211624488
O   O139      1.0  0.47756  0.25161  0.09478  1.0000 -0.2211624488
O   O140      1.0  0.74839  0.47756  0.09478  1.0000 -0.2211624488
O   O141      1.0  0.52244  0.25161  0.40522  1.0000 -0.2211624488
O   O142      1.0  0.74839  0.52244  0.40522  1.0000 -0.2211624488
O   O143      1.0  0.47756  0.74839  0.40522  1.0000 -0.2211624488
O   O144      1.0  0.25161  0.47756  0.40522  1.0000 -0.2211624488
O   O145      1.0  0.52093  0.18028  0.87778  1.0000 -0.2054821099
O   O146      1.0  0.81972  0.52093  0.87778  1.0000 -0.2054821099
O   O147      1.0  0.47907  0.81972  0.87778  1.0000 -0.201288054
O   O148      1.0  0.18028  0.47907  0.87778  1.0000 -0.2054821099
O   O149      1.0  0.52093  0.81972  0.62222  1.0000 -0.201288054
O   O150      1.0  0.18028  0.52093  0.62222  1.0000 -0.201288054
O   O151      1.0  0.47907  0.18028  0.62222  1.0000 -0.2054821099
O   O152      1.0  0.81972  0.47907  0.62222  1.0000 -0.201288054
O   O153      1.0  0.47907  0.81972  0.12222  1.0000 -0.201288054
O   O154      1.0  0.18028  0.47907  0.12222  1.0000 -0.201288054
O   O155      1.0  0.52093  0.18028  0.12222  1.0000 -0.201288054
O   O156      1.0  0.81972  0.52093  0.12222  1.0000 -0.201288054
O   O157      1.0  0.47907  0.18028  0.37778  1.0000 -0.2054821099
O   O158      1.0  0.81972  0.47907  0.37778  1.0000 -0.201288054
O   O159      1.0  0.52093  0.81972  0.37778  1.0000 -0.201288054
O   O160      1.0  0.18028  0.52093  0.37778  1.0000 -0.201288054
O   O161      1.0  0.01952  0.27091  0.82248  1.0000 -0.5273712423
O   O162      1.0  0.72909  0.01952  0.82248  1.0000 -0.5273712423
O   O163      1.0  0.98048  0.72909  0.82248  1.0000 -0.5273712423
O   O164      1.0  0.27091  0.98048  0.82248  1.0000 -0.5273712423
O   O165      1.0  0.01952  0.72909  0.67752  1.0000 -0.5273712423
O   O166      1.0  0.27091  0.01952  0.67752  1.0000 -0.5273712423
O   O167      1.0  0.98048  0.27091  0.67752  1.0000 -0.5273712423
O   O168      1.0  0.72909  0.98048  0.67752  1.0000 -0.5273712423
O   O169      1.0  0.98048  0.72909  0.17752  1.0000 -0.5273712423
O   O170      1.0  0.27091  0.98048  0.17752  1.0000 -0.5273712423
O   O171      1.0  0.01952  0.27091  0.17752  1.0000 -0.5273712423
O   O172      1.0  0.72909  0.01952  0.17752  1.0000 -0.5273712423
O   O173      1.0  0.98048  0.27091  0.32248  1.0000 -0.5273712423
O   O174      1.0  0.72909  0.98048  0.32248  1.0000 -0.5273712423
O   O175      1.0  0.01952  0.72909  0.32248  1.0000 -0.5273712423
O   O176      1.0  0.27091  0.01952  0.32248  1.0000 -0.5273712423
O   O177      1.0  0.03350  0.21043  0.85820  1.0000 -0.5211057284
O   O178      1.0  0.78957  0.03350  0.85820  1.0000 -0.5211057284
O   O179      1.0  0.96650  0.78957  0.85820  1.0000 -0.5211057284
O   O180      1.0  0.21043  0.96650  0.85820  1.0000 -0.5211057284
O   O181      1.0  0.03350  0.78957  0.64180  1.0000 -0.5211057284
O   O182      1.0  0.21043  0.03350  0.64180  1.0000 -0.5211057284
O   O183      1.0  0.96650  0.21043  0.64180  1.0000 -0.5211057284
O   O184      1.0  0.78957  0.96650  0.64180  1.0000 -0.5211057284
O   O185      1.0  0.96650  0.78957  0.14180  1.0000 -0.5211057284
O   O186      1.0  0.21043  0.96650  0.14180  1.0000 -0.5211057284
O   O187      1.0  0.03350  0.21043  0.14180  1.0000 -0.5211057284
O   O188      1.0  0.78957  0.03350  0.14180  1.0000 -0.5211057284
O   O189      1.0  0.96650  0.21043  0.35820  1.0000 -0.5211057284
O   O190      1.0  0.78957  0.96650  0.35820  1.0000 -0.5211057284
O   O191      1.0  0.03350  0.78957  0.35820  1.0000 -0.5211057284
O   O192      1.0  0.21043  0.03350  0.35820  1.0000 -0.5211057284
O   O193      1.0  0.26529  0.09775  0.82544  1.0000 -0.5273712423
O   O194      1.0  0.90225  0.26529  0.82544  1.0000 -0.5273712423
O   O195      1.0  0.73471  0.90225  0.82544  1.0000 -0.5273712423
O   O196      1.0  0.09775  0.73471  0.82544  1.0000 -0.5273712423
O   O197      1.0  0.26529  0.90225  0.67456  1.0000 -0.5273712423
O   O198      1.0  0.09775  0.26529  0.67456  1.0000 -0.5273712423
O   O199      1.0  0.73471  0.09775  0.67456  1.0000 -0.5273712423
O   O200      1.0  0.90225  0.73471  0.67456  1.0000 -0.5273712423
O   O201      1.0  0.73471  0.90225  0.17456  1.0000 -0.5273712423
O   O202      1.0  0.09775  0.73471  0.17456  1.0000 -0.5273712423
O   O203      1.0  0.26529  0.09775  0.17456  1.0000 -0.5273712423
O   O204      1.0  0.90225  0.26529  0.17456  1.0000 -0.5273712423
O   O205      1.0  0.73471  0.09775  0.32544  1.0000 -0.5273712423
O   O206      1.0  0.90225  0.73471  0.32544  1.0000 -0.5273712423
O   O207      1.0  0.26529  0.90225  0.32544  1.0000 -0.5273712423
O   O208      1.0  0.09775  0.26529  0.32544  1.0000 -0.5273712423
O   O209      1.0  0.19567  0.08340  0.85695  1.0000 -0.5119234669
O   O210      1.0  0.91660  0.19567  0.85695  1.0000 -0.5119234669
O   O211      1.0  0.80433  0.91660  0.85695  1.0000 -0.5119234669
O   O212      1.0  0.08340  0.80433  0.85695  1.0000 -0.5119234669
O   O213      1.0  0.19567  0.91660  0.64305  1.0000 -0.5119234669
O   O214      1.0  0.08340  0.19567  0.64305  1.0000 -0.5119234669
O   O215      1.0  0.80433  0.08340  0.64305  1.0000 -0.5119234669
O   O216      1.0  0.91660  0.80433  0.64305  1.0000 -0.5119234669
O   O217      1.0  0.80433  0.91660  0.14305  1.0000 -0.5119234669
O   O218      1.0  0.08340  0.80433  0.14305  1.0000 -0.5119234669
O   O219      1.0  0.19567  0.08340  0.14305  1.0000 -0.5119234669
O   O220      1.0  0.91660  0.19567  0.14305  1.0000 -0.5119234669
O   O221      1.0  0.80433  0.08340  0.35695  1.0000 -0.5119234669
O   O222      1.0  0.91660  0.80433  0.35695  1.0000 -0.5119234669
O   O223      1.0  0.19567  0.91660  0.35695  1.0000 -0.5119234669
O   O224      1.0  0.08340  0.19567  0.35695  1.0000 -0.5119234669
O   O225      1.0  0.18615  0.25063  0.76103  1.0000 -0.228754192
O   O226      1.0  0.74937  0.18615  0.76103  1.0000 -0.228754192
O   O227      1.0  0.81385  0.74937  0.76103  1.0000 -0.228754192
O   O228      1.0  0.25063  0.81385  0.76103  1.0000 -0.228754192
O   O229      1.0  0.18615  0.74937  0.73897  1.0000 -0.228754192
O   O230      1.0  0.25063  0.18615  0.73897  1.0000 -0.228754192
O   O231      1.0  0.81385  0.25063  0.73897  1.0000 -0.228754192
O   O232      1.0  0.74937  0.81385  0.73897  1.0000 -0.228754192
O   O233      1.0  0.81385  0.74937  0.23897  1.0000 -0.2211624488
O   O234      1.0  0.25063  0.81385  0.23897  1.0000 -0.2211624488
O   O235      1.0  0.18615  0.25063  0.23897  1.0000 -0.228754192
O   O236      1.0  0.74937  0.18615  0.23897  1.0000 -0.228754192
O   O237      1.0  0.81385  0.25063  0.26103  1.0000 -0.228754192
O   O238      1.0  0.74937  0.81385  0.26103  1.0000 -0.2211624488
O   O239      1.0  0.18615  0.74937  0.26103  1.0000 -0.228754192
O   O240      1.0  0.25063  0.18615  0.26103  1.0000 -0.228754192
