# DDEC6 charges by PACMAN v1.1 (https://github.com/mtap-research/PACMAN-charge/)
data_2012[Cu][bcu]3[ASR]1
_chemical_formula_sum              "Cu4 H32 C48 N8 O16"
_cell_length_a       11.6755
_cell_length_b       12.2521
_cell_length_c       12.6399
_cell_angle_alpha    90
_cell_angle_beta     118.308
_cell_angle_gamma    90

_symmetry_space_group_name_H-M    "P 1"
_symmetry_Int_Tables_number       1

loop_
  _symmetry_equiv_pos_as_xyz
  'x, y, z'

loop_
  _atom_site_type_symbol
  _atom_site_label
  _atom_site_symmetry_multiplicity
  _atom_site_fract_x
  _atom_site_fract_y
  _atom_site_fract_z
  _atom_site_occupancy
  _atom_site_charge
Cu  Cu1       1.0  0.71142  0.96438  0.53262  1.0000 0.7757692843
Cu  Cu2       1.0  0.28858  0.46438  0.96738  1.0000 0.7757692843
Cu  Cu3       1.0  0.28858  0.03562  0.46738  1.0000 0.7757692843
Cu  Cu4       1.0  0.71142  0.53562  0.03262  1.0000 0.7757692843
H   H1        1.0  0.96430  0.75740  0.85240  1.0000 0.1377554202
H   H2        1.0  0.03570  0.25740  0.64760  1.0000 0.1377554202
H   H3        1.0  0.03570  0.24260  0.14760  1.0000 0.1377554202
H   H4        1.0  0.96430  0.74260  0.35240  1.0000 0.134852013
H   H5        1.0  0.71630  0.79540  0.74350  1.0000 0.1377554202
H   H6        1.0  0.28370  0.29540  0.75650  1.0000 0.1377554202
H   H7        1.0  0.28370  0.20460  0.25650  1.0000 0.1377554202
H   H8        1.0  0.71630  0.70460  0.24350  1.0000 0.1377554202
H   H9        1.0  0.78350  0.65840  0.88320  1.0000 0.1092663268
H   H10       1.0  0.21650  0.15840  0.61680  1.0000 0.1092663268
H   H11       1.0  0.21650  0.34160  0.11680  1.0000 0.1092663268
H   H12       1.0  0.78350  0.84160  0.38320  1.0000 0.1092663268
H   H13       1.0  0.09780  0.61930  0.96570  1.0000 0.1175602212
H   H14       1.0  0.90220  0.11930  0.53430  1.0000 0.1175602212
H   H15       1.0  0.90220  0.38070  0.03430  1.0000 0.1175602212
H   H16       1.0  0.09780  0.88070  0.46570  1.0000 0.1175602212
H   H17       1.0  0.25810  0.59980  0.75740  1.0000 0.1092663268
H   H18       1.0  0.74190  0.09980  0.74260  1.0000 0.1092663268
H   H19       1.0  0.74190  0.40020  0.24260  1.0000 0.1092663268
H   H20       1.0  0.25810  0.90020  0.25740  1.0000 0.1092663268
H   H21       1.0  0.40090  0.82780  0.78480  1.0000 0.1377554202
H   H22       1.0  0.59910  0.32780  0.71520  1.0000 0.1377554202
H   H23       1.0  0.59910  0.17220  0.21520  1.0000 0.1377554202
H   H24       1.0  0.40090  0.67220  0.28480  1.0000 0.1377554202
H   H25       1.0  0.48060  0.69230  0.92810  1.0000 0.1092663268
H   H26       1.0  0.51940  0.19230  0.57190  1.0000 0.1092663268
H   H27       1.0  0.51940  0.30770  0.07190  1.0000 0.1092663268
H   H28       1.0  0.48060  0.80770  0.42810  1.0000 0.1092663268
H   H29       1.0  0.13680  0.74340  0.64480  1.0000 0.134852013
H   H30       1.0  0.86320  0.24340  0.85520  1.0000 0.134852013
H   H31       1.0  0.86320  0.25660  0.35520  1.0000 0.134852013
H   H32       1.0  0.13680  0.75660  0.14480  1.0000 0.134852013
C   C1        1.0  0.94180  0.85090  0.64850  1.0000 0.5271879196
C   C2        1.0  0.05820  0.35090  0.85150  1.0000 0.5271879196
C   C3        1.0  0.05820  0.14910  0.35150  1.0000 0.5271879196
C   C4        1.0  0.94180  0.64910  0.14850  1.0000 0.5271879196
C   C5        1.0  0.50130  0.91420  0.64980  1.0000 0.5550065994
C   C6        1.0  0.49870  0.41420  0.85020  1.0000 0.5550065994
C   C7        1.0  0.49870  0.08580  0.35020  1.0000 0.5550065994
C   C8        1.0  0.50130  0.58580  0.14980  1.0000 0.5550065994
C   C9        1.0  0.02380  0.72670  0.83170  1.0000 -0.1524767965
C   C10       1.0  0.97620  0.22670  0.66830  1.0000 -0.1524767965
C   C11       1.0  0.97620  0.27330  0.16830  1.0000 -0.1524767965
C   C12       1.0  0.02380  0.77330  0.33170  1.0000 -0.1524767965
C   C13       1.0  0.54820  0.82690  0.74610  1.0000 0.0399610851
C   C14       1.0  0.45180  0.32690  0.75390  1.0000 0.0399610851
C   C15       1.0  0.45180  0.17310  0.25390  1.0000 0.0399610851
C   C16       1.0  0.54820  0.67310  0.24610  1.0000 0.0399610851
C   C17       1.0  0.66520  0.77530  0.77860  1.0000 -0.160544921
C   C18       1.0  0.33480  0.27530  0.72140  1.0000 -0.160544921
C   C19       1.0  0.33480  0.22470  0.22140  1.0000 -0.160544921
C   C20       1.0  0.66520  0.72470  0.27860  1.0000 -0.160544921
C   C21       1.0  0.70550  0.69360  0.86380  1.0000 0.0736898417
C   C22       1.0  0.29450  0.19360  0.63620  1.0000 0.0736898417
C   C23       1.0  0.29450  0.30640  0.13620  1.0000 0.0736898417
C   C24       1.0  0.70550  0.80640  0.36380  1.0000 0.0736898417
C   C25       1.0  0.10360  0.64330  0.89860  1.0000 0.0881643429
C   C26       1.0  0.89640  0.14330  0.60140  1.0000 0.0881643429
C   C27       1.0  0.89640  0.35670  0.10140  1.0000 0.0881643429
C   C28       1.0  0.10360  0.85670  0.39860  1.0000 0.0881643429
C   C29       1.0  0.03320  0.76480  0.73210  1.0000 0.0399610851
C   C30       1.0  0.96680  0.26480  0.76790  1.0000 0.0399610851
C   C31       1.0  0.96680  0.23520  0.26790  1.0000 0.0399610851
C   C32       1.0  0.03320  0.73520  0.23210  1.0000 0.0399610851
C   C33       1.0  0.19890  0.63250  0.77720  1.0000 0.0736898417
C   C34       1.0  0.80110  0.13250  0.72280  1.0000 0.0751997143
C   C35       1.0  0.80110  0.36750  0.22280  1.0000 0.0751997143
C   C36       1.0  0.19890  0.86750  0.27720  1.0000 0.0736898417
C   C37       1.0  0.48000  0.79470  0.80350  1.0000 -0.160544921
C   C38       1.0  0.52000  0.29470  0.69650  1.0000 -0.160544921
C   C39       1.0  0.52000  0.20530  0.19650  1.0000 -0.160544921
C   C40       1.0  0.48000  0.70530  0.30350  1.0000 -0.160544921
C   C41       1.0  0.52840  0.71270  0.88980  1.0000 0.0881643429
C   C42       1.0  0.47160  0.21270  0.61020  1.0000 0.0881643429
C   C43       1.0  0.47160  0.28730  0.11020  1.0000 0.0881643429
C   C44       1.0  0.52840  0.78730  0.38980  1.0000 0.0881643429
C   C45       1.0  0.12480  0.71770  0.70800  1.0000 -0.160544921
C   C46       1.0  0.87520  0.21770  0.79200  1.0000 -0.160544921
C   C47       1.0  0.87520  0.28230  0.29200  1.0000 -0.160544921
C   C48       1.0  0.12480  0.78230  0.20800  1.0000 -0.160544921
N   N1        1.0  0.18930  0.59490  0.87180  1.0000 -0.2150712252
N   N2        1.0  0.81070  0.09490  0.62820  1.0000 -0.2150712252
N   N3        1.0  0.81070  0.40510  0.12820  1.0000 -0.2150712252
N   N4        1.0  0.18930  0.90510  0.37180  1.0000 -0.2120774597
N   N5        1.0  0.63970  0.66270  0.91930  1.0000 -0.2120774597
N   N6        1.0  0.36030  0.16270  0.58070  1.0000 -0.2120774597
N   N7        1.0  0.36030  0.33730  0.08070  1.0000 -0.2120774597
N   N8        1.0  0.63970  0.83730  0.41930  1.0000 -0.2120774597
O   O1        1.0  0.58070  0.95640  0.62420  1.0000 -0.5701094508
O   O2        1.0  0.41930  0.45640  0.87580  1.0000 -0.5701094508
O   O3        1.0  0.41930  0.04360  0.37580  1.0000 -0.5701094508
O   O4        1.0  0.58070  0.54360  0.12420  1.0000 -0.5701094508
O   O5        1.0  0.38100  0.93593  0.60330  1.0000 -0.5389441192
O   O6        1.0  0.61900  0.43593  0.89670  1.0000 -0.5389441192
O   O7        1.0  0.61900  0.06407  0.39670  1.0000 -0.5389441192
O   O8        1.0  0.38100  0.56407  0.10330  1.0000 -0.5389441192
O   O9        1.0  0.83930  0.86713  0.65796  1.0000 -0.5389441192
O   O10       1.0  0.16070  0.36713  0.84204  1.0000 -0.5389441192
O   O11       1.0  0.16070  0.13287  0.34204  1.0000 -0.5389441192
O   O12       1.0  0.83930  0.63287  0.15796  1.0000 -0.5389441192
O   O13       1.0  0.96800  0.89520  0.57550  1.0000 -0.5465914101
O   O14       1.0  0.03200  0.39520  0.92450  1.0000 -0.5465914101
O   O15       1.0  0.03200  0.10480  0.42450  1.0000 -0.5465914101
O   O16       1.0  0.96800  0.60480  0.07550  1.0000 -0.5465914101
