# DDEC6 charges by PACMAN v1.1 (https://github.com/mtap-research/PACMAN-charge/)
data_2012[Zn][sod]3[ASR]2
_chemical_formula_sum              "Zn6 H60 C48 N24"
_cell_length_a       14.6464
_cell_length_b       14.6464
_cell_length_c       14.6464
_cell_angle_alpha    109.471
_cell_angle_beta     109.471
_cell_angle_gamma    109.471

_symmetry_space_group_name_H-M    "P 1"
_symmetry_Int_Tables_number       1

loop_
  _symmetry_equiv_pos_as_xyz
  'x, y, z'

loop_
  _atom_site_type_symbol
  _atom_site_label
  _atom_site_symmetry_multiplicity
  _atom_site_fract_x
  _atom_site_fract_y
  _atom_site_fract_z
  _atom_site_occupancy
  _atom_site_charge
Zn  Zn1       1.0  0.75000  0.25000  0.50000  1.0000 0.6516038731
Zn  Zn2       1.0  0.25000  0.75000  0.50000  1.0000 0.6516038731
Zn  Zn3       1.0  0.50000  0.75000  0.25000  1.0000 0.6516038731
Zn  Zn4       1.0  0.50000  0.25000  0.75000  1.0000 0.6516038731
Zn  Zn5       1.0  0.25000  0.50000  0.75000  1.0000 0.6516038731
Zn  Zn6       1.0  0.75000  0.50000  0.25000  1.0000 0.6516038731
H   H1        1.0  0.89890  0.42560  0.76510  1.0000 0.116905483
H   H2        1.0  0.66050  0.13380  0.23490  1.0000 0.116905483
H   H3        1.0  0.33950  0.57440  0.47330  1.0000 0.116905483
H   H4        1.0  0.10110  0.86620  0.52670  1.0000 0.116905483
H   H5        1.0  0.76510  0.89890  0.42560  1.0000 0.116905483
H   H6        1.0  0.23490  0.66050  0.13380  1.0000 0.116905483
H   H7        1.0  0.47330  0.33950  0.57440  1.0000 0.116905483
H   H8        1.0  0.52670  0.10110  0.86620  1.0000 0.116905483
H   H9        1.0  0.42560  0.76510  0.89890  1.0000 0.116905483
H   H10       1.0  0.13380  0.23490  0.66050  1.0000 0.116905483
H   H11       1.0  0.57440  0.47330  0.33950  1.0000 0.116905483
H   H12       1.0  0.86620  0.52670  0.10110  1.0000 0.116905483
H   H13       1.0  0.42560  0.89890  0.76510  1.0000 0.116905483
H   H14       1.0  0.13380  0.66050  0.23490  1.0000 0.116905483
H   H15       1.0  0.57440  0.33950  0.47330  1.0000 0.116905483
H   H16       1.0  0.86620  0.10110  0.52670  1.0000 0.116905483
H   H17       1.0  0.89890  0.76510  0.42560  1.0000 0.116905483
H   H18       1.0  0.66050  0.23490  0.13380  1.0000 0.116905483
H   H19       1.0  0.33950  0.47330  0.57440  1.0000 0.116905483
H   H20       1.0  0.10110  0.52670  0.86620  1.0000 0.116905483
H   H21       1.0  0.76510  0.42560  0.89890  1.0000 0.116905483
H   H22       1.0  0.23490  0.13380  0.66050  1.0000 0.116905483
H   H23       1.0  0.47330  0.57440  0.33950  1.0000 0.116905483
H   H24       1.0  0.52670  0.86620  0.10110  1.0000 0.116905483
H   H25       1.0  0.04494  0.26637  0.51758  1.0000 0.1143081398
H   H26       1.0  0.04494  0.38355  0.49379  1.0000 0.1296768771
H   H27       1.0  0.86498  0.56168  0.48732  1.0000 0.1296768771
H   H28       1.0  0.85475  0.48233  0.56322  1.0000 0.1296768771
H   H29       1.0  0.73811  0.50635  0.49983  1.0000 0.1143081398
H   H30       1.0  0.14525  0.62758  0.70847  1.0000 0.1296768771
H   H31       1.0  0.13502  0.69670  0.62233  1.0000 0.1296768771
H   H32       1.0  0.26189  0.76824  0.76172  1.0000 0.1143081398
H   H33       1.0  0.04494  0.49379  0.38355  1.0000 0.1296768771
H   H34       1.0  0.04494  0.51758  0.26637  1.0000 0.1143081398
H   H35       1.0  0.51884  0.08229  0.37083  1.0000 0.1296768771
H   H36       1.0  0.56377  0.84168  0.47737  1.0000 0.1296768771
H   H37       1.0  0.49257  0.74032  0.51435  1.0000 0.1143081398
H   H38       1.0  0.49402  0.87584  0.55864  1.0000 0.1296768771
H   H39       1.0  0.70818  0.14499  0.62743  1.0000 0.1296768771
H   H40       1.0  0.62244  0.13526  0.69699  1.0000 0.1296768771
H   H41       1.0  0.76190  0.26191  0.76810  1.0000 0.1143081398
H   H42       1.0  0.38285  0.03834  0.48996  1.0000 0.1296768771
H   H43       1.0  0.27252  0.05123  0.52011  1.0000 0.116905483
H   H44       1.0  0.37755  0.51282  0.07455  1.0000 0.1296768771
H   H45       1.0  0.23810  0.50001  0.00620  1.0000 0.1143081398
H   H46       1.0  0.50807  0.49820  0.73838  1.0000 0.1143081398
H   H47       1.0  0.56114  0.48870  0.86746  1.0000 0.1296768771
H   H48       1.0  0.48116  0.56346  0.85200  1.0000 0.1296768771
H   H49       1.0  0.61715  0.65549  0.10711  1.0000 0.1296768771
H   H50       1.0  0.74789  0.65832  0.18746  1.0000 0.116905483
H   H51       1.0  0.72748  0.77871  0.24759  1.0000 0.1143081398
H   H52       1.0  0.50743  0.24774  0.02178  1.0000 0.1143081398
H   H53       1.0  0.50598  0.38182  0.06463  1.0000 0.1296768771
H   H54       1.0  0.91012  0.25756  0.43828  1.0000 0.1296768771
H   H55       1.0  0.91012  0.43828  0.25755  1.0000 0.1296768771
H   H56       1.0  0.43886  0.92757  0.30633  1.0000 0.1296768771
H   H57       1.0  0.49193  0.99014  0.23032  1.0000 0.1143081398
H   H58       1.0  0.25211  0.91043  0.43957  1.0000 0.116905483
H   H59       1.0  0.29182  0.43681  0.91925  1.0000 0.1296768771
H   H60       1.0  0.43623  0.27791  0.91360  1.0000 0.1296768771
C   C1        1.0  0.94420  0.41950  0.73430  1.0000 -0.0814471268
C   C2        1.0  0.68520  0.20990  0.26570  1.0000 -0.0814471268
C   C3        1.0  0.31480  0.58050  0.52470  1.0000 -0.0814471268
C   C4        1.0  0.05580  0.79010  0.47530  1.0000 -0.0814471268
C   C5        1.0  0.73430  0.94420  0.41950  1.0000 -0.0851902684
C   C6        1.0  0.26570  0.68520  0.20990  1.0000 -0.0814471268
C   C7        1.0  0.52470  0.31480  0.58050  1.0000 -0.0814471268
C   C8        1.0  0.47530  0.05580  0.79010  1.0000 -0.0814471268
C   C9        1.0  0.41950  0.73430  0.94420  1.0000 -0.0814471268
C   C10       1.0  0.20990  0.26570  0.68520  1.0000 -0.0814471268
C   C11       1.0  0.58050  0.52470  0.31480  1.0000 -0.0814471268
C   C12       1.0  0.79010  0.47530  0.05580  1.0000 -0.0814471268
C   C13       1.0  0.41950  0.94420  0.73430  1.0000 -0.0814471268
C   C14       1.0  0.20990  0.68520  0.26570  1.0000 -0.0814471268
C   C15       1.0  0.58050  0.31480  0.52470  1.0000 -0.0814471268
C   C16       1.0  0.79010  0.05580  0.47530  1.0000 -0.0814471268
C   C17       1.0  0.94420  0.73430  0.41950  1.0000 -0.0814471268
C   C18       1.0  0.68520  0.26570  0.20990  1.0000 -0.0814471268
C   C19       1.0  0.31480  0.52470  0.58050  1.0000 -0.0814471268
C   C20       1.0  0.05580  0.47530  0.79010  1.0000 -0.0814471268
C   C21       1.0  0.73430  0.41950  0.94420  1.0000 -0.0814471268
C   C22       1.0  0.26570  0.20990  0.68520  1.0000 -0.0814471268
C   C23       1.0  0.52470  0.58050  0.31480  1.0000 -0.0814471268
C   C24       1.0  0.47530  0.79010  0.05580  1.0000 -0.0814471268
C   C25       1.0  0.00000  0.36940  0.61640  1.0000 0.3608385702
C   C26       1.0  0.00000  0.31610  0.51030  1.0000 -0.4189639683
C   C27       1.0  0.75300  0.38360  0.38360  1.0000 0.3608385702
C   C28       1.0  0.80580  0.48970  0.48970  1.0000 -0.4189639683
C   C29       1.0  0.24700  0.63060  0.63060  1.0000 0.3608385702
C   C30       1.0  0.19420  0.68390  0.68390  1.0000 -0.4189639683
C   C31       1.0  0.00000  0.61640  0.36940  1.0000 0.3608385702
C   C32       1.0  0.00000  0.51030  0.31610  1.0000 -0.4189639683
C   C33       1.0  0.61640  0.00000  0.36940  1.0000 0.3608385702
C   C34       1.0  0.51030  0.00000  0.31610  1.0000 -0.4189639683
C   C35       1.0  0.38360  0.75300  0.38360  1.0000 0.3608385702
C   C36       1.0  0.48970  0.80580  0.48970  1.0000 -0.4189639683
C   C37       1.0  0.63060  0.24700  0.63060  1.0000 0.3608385702
C   C38       1.0  0.68390  0.19420  0.68390  1.0000 -0.4189639683
C   C39       1.0  0.36940  0.00000  0.61640  1.0000 0.3608385702
C   C40       1.0  0.31610  0.00000  0.51030  1.0000 -0.4189639683
C   C41       1.0  0.36940  0.61640  0.00000  1.0000 0.3608385702
C   C42       1.0  0.31610  0.51030  0.00000  1.0000 -0.4189639683
C   C43       1.0  0.38360  0.38360  0.75300  1.0000 0.3608385702
C   C44       1.0  0.48970  0.48970  0.80580  1.0000 -0.4189639683
C   C45       1.0  0.63060  0.63060  0.24700  1.0000 0.3608385702
C   C46       1.0  0.68390  0.68390  0.19420  1.0000 -0.4189639683
C   C47       1.0  0.61640  0.36940  0.00000  1.0000 0.3608385702
C   C48       1.0  0.51030  0.31610  0.00000  1.0000 -0.4189639683
N   N1        1.0  0.90720  0.35100  0.62260  1.0000 -0.3560304542
N   N2        1.0  0.72840  0.28460  0.37740  1.0000 -0.3538161136
N   N3        1.0  0.27160  0.64900  0.55620  1.0000 -0.3538161136
N   N4        1.0  0.09280  0.71540  0.44380  1.0000 -0.3560304542
N   N5        1.0  0.62260  0.90720  0.35100  1.0000 -0.3560304542
N   N6        1.0  0.37740  0.72840  0.28460  1.0000 -0.3538161136
N   N7        1.0  0.55620  0.27160  0.64900  1.0000 -0.3538161136
N   N8        1.0  0.44380  0.09280  0.71540  1.0000 -0.3560304542
N   N9        1.0  0.35100  0.62260  0.90720  1.0000 -0.3560304542
N   N10       1.0  0.28460  0.37740  0.72840  1.0000 -0.3538161136
N   N11       1.0  0.64900  0.55620  0.27160  1.0000 -0.3538161136
N   N12       1.0  0.71540  0.44380  0.09280  1.0000 -0.3560304542
N   N13       1.0  0.35100  0.90720  0.62260  1.0000 -0.3538161136
N   N14       1.0  0.28460  0.72840  0.37740  1.0000 -0.3538161136
N   N15       1.0  0.64900  0.27160  0.55620  1.0000 -0.3560304542
N   N16       1.0  0.71540  0.09280  0.44380  1.0000 -0.3560304542
N   N17       1.0  0.90720  0.62260  0.35100  1.0000 -0.3560304542
N   N18       1.0  0.72840  0.37740  0.28460  1.0000 -0.3538161136
N   N19       1.0  0.27160  0.55620  0.64900  1.0000 -0.3538161136
N   N20       1.0  0.09280  0.44380  0.71540  1.0000 -0.3560304542
N   N21       1.0  0.62260  0.35100  0.90720  1.0000 -0.3560304542
N   N22       1.0  0.37740  0.28460  0.72840  1.0000 -0.3560304542
N   N23       1.0  0.55620  0.64900  0.27160  1.0000 -0.3560304542
N   N24       1.0  0.44380  0.71540  0.09280  1.0000 -0.3538161136
