# DDEC6 charges by PACMAN v1.1 (https://github.com/mtap-research/PACMAN-charge/)
data_2012[Mg][nan]3[ASR]5
_chemical_formula_sum              "Mg18 P18 H108 C54 N18 O54"
_cell_length_a       28.2453
_cell_length_b       28.2453
_cell_length_c       6.2202
_cell_angle_alpha    90
_cell_angle_beta     90
_cell_angle_gamma    120

_symmetry_space_group_name_H-M    "P 1"
_symmetry_Int_Tables_number       1

loop_
  _symmetry_equiv_pos_as_xyz
  'x, y, z'

loop_
  _atom_site_type_symbol
  _atom_site_label
  _atom_site_symmetry_multiplicity
  _atom_site_fract_x
  _atom_site_fract_y
  _atom_site_fract_z
  _atom_site_occupancy
  _atom_site_charge
Mg  Mg1       1.0  0.05694  0.69257  0.40063  1.0000 1.341247499
Mg  Mg2       1.0  0.72360  0.02591  0.73397  1.0000 1.341247499
Mg  Mg3       1.0  0.39027  0.35924  0.06730  1.0000 1.341247499
Mg  Mg4       1.0  0.30743  0.36436  0.40063  1.0000 1.341247499
Mg  Mg5       1.0  0.97409  0.69770  0.73397  1.0000 1.341247499
Mg  Mg6       1.0  0.64076  0.03103  0.06730  1.0000 1.341247499
Mg  Mg7       1.0  0.63564  0.94306  0.40063  1.0000 1.341247499
Mg  Mg8       1.0  0.30230  0.27640  0.73397  1.0000 1.341247499
Mg  Mg9       1.0  0.96897  0.60973  0.06730  1.0000 1.341247499
Mg  Mg10      1.0  0.94306  0.30743  0.59937  1.0000 1.341247499
Mg  Mg11      1.0  0.60973  0.64076  0.93270  1.0000 1.341247499
Mg  Mg12      1.0  0.27640  0.97409  0.26603  1.0000 1.341247499
Mg  Mg13      1.0  0.69257  0.63564  0.59937  1.0000 1.341247499
Mg  Mg14      1.0  0.35924  0.96897  0.93270  1.0000 1.341247499
Mg  Mg15      1.0  0.02591  0.30230  0.26603  1.0000 1.341247499
Mg  Mg16      1.0  0.36436  0.05694  0.59937  1.0000 1.341247499
Mg  Mg17      1.0  0.03103  0.39027  0.93270  1.0000 1.341247499
Mg  Mg18      1.0  0.69770  0.72360  0.26603  1.0000 1.341247499
P   P1        1.0  0.09144  0.71768  0.92003  1.0000 1.3180522455
P   P2        1.0  0.75810  0.05102  0.25337  1.0000 1.3180522455
P   P3        1.0  0.42477  0.38435  0.58670  1.0000 1.3180522455
P   P4        1.0  0.28232  0.37375  0.92003  1.0000 1.3180522455
P   P5        1.0  0.94898  0.70709  0.25337  1.0000 1.3180522455
P   P6        1.0  0.61565  0.04042  0.58670  1.0000 1.3180522455
P   P7        1.0  0.62625  0.90856  0.92003  1.0000 1.3180522455
P   P8        1.0  0.29291  0.24190  0.25337  1.0000 1.3180522455
P   P9        1.0  0.95958  0.57523  0.58670  1.0000 1.3180522455
P   P10       1.0  0.90856  0.28232  0.07997  1.0000 1.3180522455
P   P11       1.0  0.57523  0.61565  0.41330  1.0000 1.3180522455
P   P12       1.0  0.24190  0.94898  0.74663  1.0000 1.3180522455
P   P13       1.0  0.71768  0.62625  0.07997  1.0000 1.3180522455
P   P14       1.0  0.38435  0.95958  0.41330  1.0000 1.3180522455
P   P15       1.0  0.05102  0.29291  0.74663  1.0000 1.3180522455
P   P16       1.0  0.37375  0.09144  0.07997  1.0000 1.3180522455
P   P17       1.0  0.04042  0.42477  0.41330  1.0000 1.3180522455
P   P18       1.0  0.70709  0.75810  0.74663  1.0000 1.3180522455
H   H1        1.0  0.15034  0.81761  0.97657  1.0000 0.091899399
H   H2        1.0  0.07252  0.82259  0.36843  1.0000 0.1070322974
H   H3        1.0  0.11599  0.82059  0.58916  1.0000 0.0586257784
H   H4        1.0  0.17882  0.77869  0.50288  1.0000 0.0806913144
H   H5        1.0  0.17606  0.75245  0.22628  1.0000 0.091899399
H   H6        1.0  0.61572  0.74358  0.64395  1.0000 0.1188536692
H   H7        1.0  0.81700  0.15094  0.30991  1.0000 0.091899399
H   H8        1.0  0.73919  0.15592  0.70176  1.0000 0.1070322974
H   H9        1.0  0.78265  0.15392  0.92250  1.0000 0.0586257784
H   H10       1.0  0.84548  0.11203  0.83622  1.0000 0.0806913144
H   H11       1.0  0.84273  0.08578  0.55962  1.0000 0.091899399
H   H12       1.0  0.28239  0.07691  0.97728  1.0000 0.1188536692
H   H13       1.0  0.48367  0.48428  0.64324  1.0000 0.091899399
H   H14       1.0  0.40586  0.48926  0.03510  1.0000 0.1070322974
H   H15       1.0  0.44932  0.48725  0.25583  1.0000 0.0586257784
H   H16       1.0  0.51215  0.44536  0.16955  1.0000 0.0806913144
H   H17       1.0  0.50940  0.41912  0.89295  1.0000 0.091899399
H   H18       1.0  0.94906  0.41024  0.31061  1.0000 0.1188536692
H   H19       1.0  0.18239  0.33273  0.97657  1.0000 0.091899399
H   H20       1.0  0.17741  0.24993  0.36843  1.0000 0.1070322974
H   H21       1.0  0.17941  0.29540  0.58916  1.0000 0.0586257784
H   H22       1.0  0.22131  0.40012  0.50288  1.0000 0.0806913144
H   H23       1.0  0.24755  0.42361  0.22628  1.0000 0.091899399
H   H24       1.0  0.25642  0.87215  0.64395  1.0000 0.1188536692
H   H25       1.0  0.84906  0.66606  0.30991  1.0000 0.091899399
H   H26       1.0  0.84408  0.58326  0.70176  1.0000 0.1070322974
H   H27       1.0  0.84608  0.62873  0.92250  1.0000 0.0586257784
H   H28       1.0  0.88797  0.73346  0.83622  1.0000 0.0806913144
H   H29       1.0  0.91422  0.75695  0.55962  1.0000 0.091899399
H   H30       1.0  0.92309  0.20548  0.97728  1.0000 0.1188536692
H   H31       1.0  0.51572  0.99940  0.64324  1.0000 0.091899399
H   H32       1.0  0.51074  0.91660  0.03510  1.0000 0.1070322974
H   H33       1.0  0.51275  0.96207  0.25583  1.0000 0.0586257784
H   H34       1.0  0.55464  0.06679  0.16955  1.0000 0.0806913144
H   H35       1.0  0.58088  0.09028  0.89295  1.0000 0.091899399
H   H36       1.0  0.58976  0.53881  0.31061  1.0000 0.1188536692
H   H37       1.0  0.66727  0.84966  0.97657  1.0000 0.091899399
H   H38       1.0  0.75007  0.92748  0.36843  1.0000 0.1070322974
H   H39       1.0  0.70460  0.88401  0.58916  1.0000 0.0586257784
H   H40       1.0  0.59988  0.82118  0.50288  1.0000 0.0806913144
H   H41       1.0  0.57639  0.82394  0.22628  1.0000 0.091899399
H   H42       1.0  0.12785  0.38428  0.64395  1.0000 0.1188536692
H   H43       1.0  0.33394  0.18300  0.30991  1.0000 0.091899399
H   H44       1.0  0.41674  0.26081  0.70176  1.0000 0.1070322974
H   H45       1.0  0.37127  0.21735  0.92250  1.0000 0.0586257784
H   H46       1.0  0.26654  0.15452  0.83622  1.0000 0.0806913144
H   H47       1.0  0.24305  0.15727  0.55962  1.0000 0.091899399
H   H48       1.0  0.79452  0.71761  0.97728  1.0000 0.1188536692
H   H49       1.0  0.00060  0.51633  0.64324  1.0000 0.091899399
H   H50       1.0  0.08340  0.59414  0.03510  1.0000 0.1070322974
H   H51       1.0  0.03793  0.55068  0.25583  1.0000 0.0586257784
H   H52       1.0  0.93321  0.48785  0.16955  1.0000 0.0806913144
H   H53       1.0  0.90972  0.49060  0.89295  1.0000 0.091899399
H   H54       1.0  0.46119  0.05094  0.31061  1.0000 0.1188536692
H   H55       1.0  0.84966  0.18239  0.02343  1.0000 0.091899399
H   H56       1.0  0.92748  0.17741  0.63157  1.0000 0.1070322974
H   H57       1.0  0.88401  0.17941  0.41084  1.0000 0.0586257784
H   H58       1.0  0.82118  0.22131  0.49712  1.0000 0.0806913144
H   H59       1.0  0.82394  0.24755  0.77372  1.0000 0.091899399
H   H60       1.0  0.38428  0.25642  0.35605  1.0000 0.1188536692
H   H61       1.0  0.51633  0.51572  0.35676  1.0000 0.091899399
H   H62       1.0  0.59414  0.51074  0.96490  1.0000 0.1070322974
H   H63       1.0  0.55068  0.51275  0.74417  1.0000 0.0586257784
H   H64       1.0  0.48785  0.55464  0.83045  1.0000 0.0806913144
H   H65       1.0  0.49060  0.58088  0.10705  1.0000 0.091899399
H   H66       1.0  0.05094  0.58976  0.68939  1.0000 0.1188536692
H   H67       1.0  0.18300  0.84906  0.69009  1.0000 0.091899399
H   H68       1.0  0.26081  0.84408  0.29824  1.0000 0.1070322974
H   H69       1.0  0.21735  0.84608  0.07750  1.0000 0.0586257784
H   H70       1.0  0.15452  0.88797  0.16378  1.0000 0.0806913144
H   H71       1.0  0.15727  0.91422  0.44038  1.0000 0.091899399
H   H72       1.0  0.71761  0.92309  0.02272  1.0000 0.1188536692
H   H73       1.0  0.81761  0.66727  0.02343  1.0000 0.091899399
H   H74       1.0  0.82259  0.75007  0.63157  1.0000 0.1070322974
H   H75       1.0  0.82059  0.70460  0.41084  1.0000 0.0586257784
H   H76       1.0  0.77869  0.59988  0.49712  1.0000 0.0806913144
H   H77       1.0  0.75245  0.57639  0.77372  1.0000 0.091899399
H   H78       1.0  0.74358  0.12785  0.35605  1.0000 0.1188536692
H   H79       1.0  0.48428  0.00060  0.35676  1.0000 0.091899399
H   H80       1.0  0.48926  0.08340  0.96490  1.0000 0.1070322974
H   H81       1.0  0.48725  0.03793  0.74417  1.0000 0.0586257784
H   H82       1.0  0.44536  0.93321  0.83045  1.0000 0.0806913144
H   H83       1.0  0.41912  0.90972  0.10705  1.0000 0.091899399
H   H84       1.0  0.41024  0.46119  0.68939  1.0000 0.1188536692
H   H85       1.0  0.15094  0.33394  0.69009  1.0000 0.091899399
H   H86       1.0  0.15592  0.41674  0.29824  1.0000 0.1070322974
H   H87       1.0  0.15392  0.37127  0.07750  1.0000 0.0586257784
H   H88       1.0  0.11203  0.26654  0.16378  1.0000 0.0806913144
H   H89       1.0  0.08578  0.24305  0.44038  1.0000 0.091899399
H   H90       1.0  0.07691  0.79452  0.02272  1.0000 0.1188536692
H   H91       1.0  0.33273  0.15034  0.02343  1.0000 0.091899399
H   H92       1.0  0.24993  0.07252  0.63157  1.0000 0.1070322974
H   H93       1.0  0.29540  0.11599  0.41084  1.0000 0.0586257784
H   H94       1.0  0.40012  0.17882  0.49712  1.0000 0.0806913144
H   H95       1.0  0.42361  0.17606  0.77372  1.0000 0.091899399
H   H96       1.0  0.87215  0.61572  0.35605  1.0000 0.1188536692
H   H97       1.0  0.99940  0.48367  0.35676  1.0000 0.091899399
H   H98       1.0  0.91660  0.40586  0.96490  1.0000 0.1070322974
H   H99       1.0  0.96207  0.44932  0.74417  1.0000 0.0586257784
H   H100      1.0  0.06679  0.51215  0.83045  1.0000 0.0806913144
H   H101      1.0  0.09028  0.50940  0.10705  1.0000 0.091899399
H   H102      1.0  0.53881  0.94906  0.68939  1.0000 0.1188536692
H   H103      1.0  0.66606  0.81700  0.69009  1.0000 0.091899399
H   H104      1.0  0.58326  0.73919  0.29824  1.0000 0.1070322974
H   H105      1.0  0.62873  0.78265  0.07750  1.0000 0.0586257784
H   H106      1.0  0.73346  0.84548  0.16378  1.0000 0.0806913144
H   H107      1.0  0.75695  0.84273  0.44038  1.0000 0.091899399
H   H108      1.0  0.20548  0.28239  0.02272  1.0000 0.1188536692
C   C1        1.0  0.11065  0.78421  0.05033  1.0000 -0.3505633473
C   C2        1.0  0.11347  0.82593  0.40863  1.0000 -0.0601269462
C   C3        1.0  0.17417  0.78543  0.32523  1.0000 -0.0746114858
C   C4        1.0  0.77731  0.11755  0.38367  1.0000 -0.3505633473
C   C5        1.0  0.78013  0.15927  0.74197  1.0000 -0.0601269462
C   C6        1.0  0.84083  0.11877  0.65857  1.0000 -0.0746114858
C   C7        1.0  0.44398  0.45088  0.71700  1.0000 -0.3505633473
C   C8        1.0  0.44680  0.49260  0.07530  1.0000 -0.0601269462
C   C9        1.0  0.50750  0.45210  0.99190  1.0000 -0.0746114858
C   C10       1.0  0.21579  0.32643  0.05033  1.0000 -0.3505633473
C   C11       1.0  0.17407  0.28753  0.40863  1.0000 -0.0601269462
C   C12       1.0  0.21457  0.38873  0.32523  1.0000 -0.0746114858
C   C13       1.0  0.88245  0.65977  0.38367  1.0000 -0.3505633473
C   C14       1.0  0.84073  0.62087  0.74197  1.0000 -0.0601269462
C   C15       1.0  0.88123  0.72207  0.65857  1.0000 -0.0746114858
C   C16       1.0  0.54912  0.99310  0.71700  1.0000 -0.3505633473
C   C17       1.0  0.50740  0.95420  0.07530  1.0000 -0.0601269462
C   C18       1.0  0.54790  0.05540  0.99190  1.0000 -0.0746114858
C   C19       1.0  0.67357  0.88935  0.05033  1.0000 -0.3505633473
C   C20       1.0  0.71247  0.88653  0.40863  1.0000 -0.0601269462
C   C21       1.0  0.61127  0.82583  0.32523  1.0000 -0.0746114858
C   C22       1.0  0.34023  0.22269  0.38367  1.0000 -0.3505633473
C   C23       1.0  0.37913  0.21987  0.74197  1.0000 -0.0601269462
C   C24       1.0  0.27793  0.15917  0.65857  1.0000 -0.0746114858
C   C25       1.0  0.00690  0.55602  0.71700  1.0000 -0.3505633473
C   C26       1.0  0.04580  0.55320  0.07530  1.0000 -0.0601269462
C   C27       1.0  0.94460  0.49250  0.99190  1.0000 -0.0746114858
C   C28       1.0  0.88935  0.21579  0.94967  1.0000 -0.3505633473
C   C29       1.0  0.88653  0.17407  0.59137  1.0000 -0.0601269462
C   C30       1.0  0.82583  0.21457  0.67477  1.0000 -0.0746114858
C   C31       1.0  0.55602  0.54912  0.28300  1.0000 -0.3505633473
C   C32       1.0  0.55320  0.50740  0.92470  1.0000 -0.0601269462
C   C33       1.0  0.49250  0.54790  0.00810  1.0000 -0.0746114858
C   C34       1.0  0.22269  0.88245  0.61633  1.0000 -0.3505633473
C   C35       1.0  0.21987  0.84073  0.25803  1.0000 -0.0601269462
C   C36       1.0  0.15917  0.88123  0.34143  1.0000 -0.0746114858
C   C37       1.0  0.78421  0.67357  0.94967  1.0000 -0.3505633473
C   C38       1.0  0.82593  0.71247  0.59137  1.0000 -0.0601269462
C   C39       1.0  0.78543  0.61127  0.67477  1.0000 -0.0746114858
C   C40       1.0  0.45088  0.00690  0.28300  1.0000 -0.3505633473
C   C41       1.0  0.49260  0.04580  0.92470  1.0000 -0.0601269462
C   C42       1.0  0.45210  0.94460  0.00810  1.0000 -0.0746114858
C   C43       1.0  0.11755  0.34023  0.61633  1.0000 -0.3505633473
C   C44       1.0  0.15927  0.37913  0.25803  1.0000 -0.0601269462
C   C45       1.0  0.11877  0.27793  0.34143  1.0000 -0.0746114858
C   C46       1.0  0.32643  0.11065  0.94967  1.0000 -0.3505633473
C   C47       1.0  0.28753  0.11347  0.59137  1.0000 -0.0601269462
C   C48       1.0  0.38873  0.17417  0.67477  1.0000 -0.0746114858
C   C49       1.0  0.99310  0.44398  0.28300  1.0000 -0.3505633473
C   C50       1.0  0.95420  0.44680  0.92470  1.0000 -0.0601269462
C   C51       1.0  0.05540  0.50750  0.00810  1.0000 -0.0746114858
C   C52       1.0  0.65977  0.77731  0.61633  1.0000 -0.3505633473
C   C53       1.0  0.62087  0.78013  0.25803  1.0000 -0.0601269462
C   C54       1.0  0.72207  0.84083  0.34143  1.0000 -0.0746114858
N   N1        1.0  0.11846  0.78152  0.28943  1.0000 -0.1813898633
N   N2        1.0  0.78512  0.11486  0.62277  1.0000 -0.1813898633
N   N3        1.0  0.45179  0.44819  0.95610  1.0000 -0.1813898633
N   N4        1.0  0.21848  0.33693  0.28943  1.0000 -0.1813898633
N   N5        1.0  0.88514  0.67027  0.62277  1.0000 -0.1813898633
N   N6        1.0  0.55181  0.00360  0.95610  1.0000 -0.1813898633
N   N7        1.0  0.66307  0.88154  0.28943  1.0000 -0.1813898633
N   N8        1.0  0.32973  0.21488  0.62277  1.0000 -0.1813898633
N   N9        1.0  0.99640  0.54821  0.95610  1.0000 -0.1813898633
N   N10       1.0  0.88154  0.21848  0.71057  1.0000 -0.1813898633
N   N11       1.0  0.54821  0.55181  0.04390  1.0000 -0.1813898633
N   N12       1.0  0.21488  0.88514  0.37723  1.0000 -0.1813898633
N   N13       1.0  0.78152  0.66307  0.71057  1.0000 -0.1813898633
N   N14       1.0  0.44819  0.99640  0.04390  1.0000 -0.1813898633
N   N15       1.0  0.11486  0.32973  0.37723  1.0000 -0.1813898633
N   N16       1.0  0.33693  0.11846  0.71057  1.0000 -0.1813898633
N   N17       1.0  0.00360  0.45179  0.04390  1.0000 -0.1813898633
N   N18       1.0  0.67027  0.78512  0.37723  1.0000 -0.1813898633
O   O1        1.0  0.13884  0.70984  0.86163  1.0000 -0.7550744228
O   O2        1.0  0.05427  0.67103  0.06953  1.0000 -0.892718101
O   O3        1.0  0.05962  0.71383  0.71873  1.0000 -0.892718101
O   O4        1.0  0.80550  0.04318  0.19497  1.0000 -0.7541675435
O   O5        1.0  0.72093  0.00437  0.40287  1.0000 -0.892718101
O   O6        1.0  0.72628  0.04717  0.05207  1.0000 -0.892718101
O   O7        1.0  0.47217  0.37651  0.52830  1.0000 -0.7541675435
O   O8        1.0  0.38760  0.33770  0.73620  1.0000 -0.892718101
O   O9        1.0  0.39295  0.38050  0.38540  1.0000 -0.8956221209
O   O10       1.0  0.29016  0.42899  0.86163  1.0000 -0.7550744228
O   O11       1.0  0.32897  0.38323  0.06953  1.0000 -0.892718101
O   O12       1.0  0.28617  0.34578  0.71873  1.0000 -0.892718101
O   O13       1.0  0.95682  0.76233  0.19497  1.0000 -0.7541675435
O   O14       1.0  0.99563  0.71657  0.40287  1.0000 -0.892718101
O   O15       1.0  0.95283  0.67912  0.05207  1.0000 -0.8956221209
O   O16       1.0  0.62349  0.09566  0.52830  1.0000 -0.7541675435
O   O17       1.0  0.66230  0.04990  0.73620  1.0000 -0.892718101
O   O18       1.0  0.61950  0.01245  0.38540  1.0000 -0.892718101
O   O19       1.0  0.57101  0.86116  0.86163  1.0000 -0.7541675435
O   O20       1.0  0.61677  0.94573  0.06953  1.0000 -0.892718101
O   O21       1.0  0.65422  0.94038  0.71873  1.0000 -0.892718101
O   O22       1.0  0.23767  0.19450  0.19497  1.0000 -0.7541675435
O   O23       1.0  0.28343  0.27907  0.40287  1.0000 -0.892718101
O   O24       1.0  0.32088  0.27372  0.05207  1.0000 -0.892718101
O   O25       1.0  0.90434  0.52783  0.52830  1.0000 -0.7550744228
O   O26       1.0  0.95010  0.61240  0.73620  1.0000 -0.892718101
O   O27       1.0  0.98755  0.60705  0.38540  1.0000 -0.8956221209
O   O28       1.0  0.86116  0.29016  0.13837  1.0000 -0.7550744228
O   O29       1.0  0.94573  0.32897  0.93047  1.0000 -0.892718101
O   O30       1.0  0.94038  0.28617  0.28127  1.0000 -0.8956221209
O   O31       1.0  0.52783  0.62349  0.47170  1.0000 -0.7550744228
O   O32       1.0  0.61240  0.66230  0.26380  1.0000 -0.892718101
O   O33       1.0  0.60705  0.61950  0.61460  1.0000 -0.8956221209
O   O34       1.0  0.19450  0.95682  0.80503  1.0000 -0.7550744228
O   O35       1.0  0.27907  0.99563  0.59713  1.0000 -0.892718101
O   O36       1.0  0.27372  0.95283  0.94793  1.0000 -0.8956221209
O   O37       1.0  0.70984  0.57101  0.13837  1.0000 -0.7541675435
O   O38       1.0  0.67103  0.61677  0.93047  1.0000 -0.892718101
O   O39       1.0  0.71383  0.65422  0.28127  1.0000 -0.8956221209
O   O40       1.0  0.37651  0.90434  0.47170  1.0000 -0.7550744228
O   O41       1.0  0.33770  0.95010  0.26380  1.0000 -0.892718101
O   O42       1.0  0.38050  0.98755  0.61460  1.0000 -0.8956221209
O   O43       1.0  0.04318  0.23767  0.80503  1.0000 -0.7550744228
O   O44       1.0  0.00437  0.28343  0.59713  1.0000 -0.892718101
O   O45       1.0  0.04717  0.32088  0.94793  1.0000 -0.892718101
O   O46       1.0  0.42899  0.13884  0.13837  1.0000 -0.7550744228
O   O47       1.0  0.38323  0.05427  0.93047  1.0000 -0.892718101
O   O48       1.0  0.34578  0.05962  0.28127  1.0000 -0.892718101
O   O49       1.0  0.09566  0.47217  0.47170  1.0000 -0.7550744228
O   O50       1.0  0.04990  0.38760  0.26380  1.0000 -0.892718101
O   O51       1.0  0.01245  0.39295  0.61460  1.0000 -0.892718101
O   O52       1.0  0.76233  0.80550  0.80503  1.0000 -0.7550744228
O   O53       1.0  0.71657  0.72093  0.59713  1.0000 -0.892718101
O   O54       1.0  0.67912  0.72628  0.94793  1.0000 -0.8956221209
