# DDEC6 charges by PACMAN v1.1 (https://github.com/mtap-research/PACMAN-charge/)
data_2012[Al][nan]3[ASR]1
_chemical_formula_sum              "Al16 H112 C144 O96"
_cell_length_a       21.3609
_cell_length_b       21.3609
_cell_length_c       10.5698
_cell_angle_alpha    90
_cell_angle_beta     90
_cell_angle_gamma    90

_symmetry_space_group_name_H-M    "P 1"
_symmetry_Int_Tables_number       1

loop_
  _symmetry_equiv_pos_as_xyz
  'x, y, z'

loop_
  _atom_site_type_symbol
  _atom_site_label
  _atom_site_symmetry_multiplicity
  _atom_site_fract_x
  _atom_site_fract_y
  _atom_site_fract_z
  _atom_site_occupancy
  _atom_site_charge
Al  Al1       1.0  0.25939  0.81675  0.92903  1.0000 1.6449629006
Al  Al2       1.0  0.75939  0.31675  0.42903  1.0000 1.6449629006
Al  Al3       1.0  0.24061  0.68325  0.42903  1.0000 1.6449629006
Al  Al4       1.0  0.74061  0.18325  0.92903  1.0000 1.6449629006
Al  Al5       1.0  0.18325  0.75939  0.17903  1.0000 1.6449629006
Al  Al6       1.0  0.68325  0.25939  0.67903  1.0000 1.6449629006
Al  Al7       1.0  0.31675  0.74061  0.67903  1.0000 1.6449629006
Al  Al8       1.0  0.81675  0.24061  0.17903  1.0000 1.6449629006
Al  Al9       1.0  0.74061  0.68325  0.32097  1.0000 1.6449629006
Al  Al10      1.0  0.24061  0.18325  0.82097  1.0000 1.6449629006
Al  Al11      1.0  0.75939  0.81675  0.82097  1.0000 1.6449629006
Al  Al12      1.0  0.25939  0.31675  0.32097  1.0000 1.6449629006
Al  Al13      1.0  0.81675  0.74061  0.07097  1.0000 1.6449629006
Al  Al14      1.0  0.31675  0.24061  0.57097  1.0000 1.6449629006
Al  Al15      1.0  0.68325  0.75939  0.57097  1.0000 1.6449629006
Al  Al16      1.0  0.18325  0.25939  0.07097  1.0000 1.6449629006
H   H1        1.0  0.18965  0.47373  0.68906  1.0000 0.0780245702
H   H2        1.0  0.12072  0.51148  0.61295  1.0000 0.0986144285
H   H3        1.0  0.10913  0.45446  0.74407  1.0000 0.0780245702
H   H4        1.0  0.12988  0.83185  0.72594  1.0000 0.1237340423
H   H5        1.0  0.99282  0.76922  0.01699  1.0000 0.1237340423
H   H6        1.0  0.92700  0.82642  0.63826  1.0000 0.1128237632
H   H7        1.0  0.22464  0.21331  0.43899  1.0000 0.414623068
H   H8        1.0  0.68965  0.97373  0.18906  1.0000 0.0780245702
H   H9        1.0  0.62072  0.01148  0.11295  1.0000 0.0986144285
H   H10       1.0  0.60913  0.95446  0.24407  1.0000 0.0780245702
H   H11       1.0  0.62988  0.33185  0.22594  1.0000 0.1237340423
H   H12       1.0  0.49282  0.26922  0.51699  1.0000 0.1237340423
H   H13       1.0  0.42700  0.32642  0.13826  1.0000 0.1128237632
H   H14       1.0  0.72464  0.71331  0.93899  1.0000 0.414623068
H   H15       1.0  0.31035  0.02627  0.18906  1.0000 0.0780245702
H   H16       1.0  0.37928  0.98852  0.11295  1.0000 0.0986144285
H   H17       1.0  0.39087  0.04554  0.24407  1.0000 0.0780245702
H   H18       1.0  0.37012  0.66815  0.22594  1.0000 0.1237340423
H   H19       1.0  0.50718  0.73078  0.51699  1.0000 0.1237340423
H   H20       1.0  0.57300  0.67358  0.13826  1.0000 0.1128237632
H   H21       1.0  0.27536  0.28669  0.93899  1.0000 0.414623068
H   H22       1.0  0.81035  0.52627  0.68906  1.0000 0.0780245702
H   H23       1.0  0.87928  0.48852  0.61295  1.0000 0.0986144285
H   H24       1.0  0.89087  0.54554  0.74407  1.0000 0.0780245702
H   H25       1.0  0.87012  0.16815  0.72594  1.0000 0.1237340423
H   H26       1.0  0.00718  0.23078  0.01699  1.0000 0.1237340423
H   H27       1.0  0.07300  0.17358  0.63826  1.0000 0.1128237632
H   H28       1.0  0.77536  0.78669  0.43899  1.0000 0.414623068
H   H29       1.0  0.52627  0.68965  0.93906  1.0000 0.0780245702
H   H30       1.0  0.48852  0.62072  0.86295  1.0000 0.0986144285
H   H31       1.0  0.54554  0.60913  0.99407  1.0000 0.0780245702
H   H32       1.0  0.16815  0.62988  0.97594  1.0000 0.1237340423
H   H33       1.0  0.23078  0.49282  0.26699  1.0000 0.1237340423
H   H34       1.0  0.17358  0.42700  0.88826  1.0000 0.1128237632
H   H35       1.0  0.78669  0.72464  0.68899  1.0000 0.414623068
H   H36       1.0  0.02627  0.18965  0.43906  1.0000 0.0780245702
H   H37       1.0  0.98852  0.12072  0.36295  1.0000 0.0986144285
H   H38       1.0  0.04554  0.10913  0.49407  1.0000 0.0780245702
H   H39       1.0  0.66815  0.12988  0.47594  1.0000 0.1237340423
H   H40       1.0  0.73078  0.99282  0.76699  1.0000 0.1237340423
H   H41       1.0  0.67358  0.92700  0.38826  1.0000 0.1128237632
H   H42       1.0  0.28669  0.22464  0.18899  1.0000 0.414623068
H   H43       1.0  0.97373  0.81035  0.43906  1.0000 0.0780245702
H   H44       1.0  0.01148  0.87928  0.36295  1.0000 0.0986144285
H   H45       1.0  0.95446  0.89087  0.49407  1.0000 0.0780245702
H   H46       1.0  0.33185  0.87012  0.47594  1.0000 0.1237340423
H   H47       1.0  0.26922  0.00718  0.76699  1.0000 0.1237340423
H   H48       1.0  0.32642  0.07300  0.38826  1.0000 0.1128237632
H   H49       1.0  0.71331  0.77536  0.18899  1.0000 0.414623068
H   H50       1.0  0.47373  0.31035  0.93906  1.0000 0.0780245702
H   H51       1.0  0.51148  0.37928  0.86295  1.0000 0.0986144285
H   H52       1.0  0.45446  0.39087  0.99407  1.0000 0.0780245702
H   H53       1.0  0.83185  0.37012  0.97594  1.0000 0.1237340423
H   H54       1.0  0.76922  0.50718  0.26699  1.0000 0.1237340423
H   H55       1.0  0.82642  0.57300  0.88826  1.0000 0.1128237632
H   H56       1.0  0.21331  0.27536  0.68899  1.0000 0.414623068
H   H57       1.0  0.81035  0.02627  0.56094  1.0000 0.0780245702
H   H58       1.0  0.87928  0.98852  0.63705  1.0000 0.0986144285
H   H59       1.0  0.89087  0.04554  0.50593  1.0000 0.0780245702
H   H60       1.0  0.87012  0.66815  0.52406  1.0000 0.1237340423
H   H61       1.0  0.00718  0.73078  0.23301  1.0000 0.1237340423
H   H62       1.0  0.07300  0.67358  0.61174  1.0000 0.1128237632
H   H63       1.0  0.77536  0.28669  0.81101  1.0000 0.414623068
H   H64       1.0  0.31035  0.52627  0.06094  1.0000 0.0780245702
H   H65       1.0  0.37928  0.48852  0.13705  1.0000 0.0986144285
H   H66       1.0  0.39087  0.54554  0.00593  1.0000 0.0780245702
H   H67       1.0  0.37012  0.16815  0.02406  1.0000 0.1237340423
H   H68       1.0  0.50718  0.23078  0.73301  1.0000 0.1237340423
H   H69       1.0  0.57300  0.17358  0.11174  1.0000 0.1128237632
H   H70       1.0  0.27536  0.78669  0.31101  1.0000 0.414623068
H   H71       1.0  0.68965  0.47373  0.06094  1.0000 0.0780245702
H   H72       1.0  0.62072  0.51148  0.13705  1.0000 0.0986144285
H   H73       1.0  0.60913  0.45446  0.00593  1.0000 0.0780245702
H   H74       1.0  0.62988  0.83185  0.02406  1.0000 0.1237340423
H   H75       1.0  0.49282  0.76922  0.73301  1.0000 0.1237340423
H   H76       1.0  0.42700  0.82642  0.11174  1.0000 0.1128237632
H   H77       1.0  0.72464  0.21331  0.31101  1.0000 0.414623068
H   H78       1.0  0.18965  0.97373  0.56094  1.0000 0.0780245702
H   H79       1.0  0.12072  0.01148  0.63705  1.0000 0.0986144285
H   H80       1.0  0.10913  0.95446  0.50593  1.0000 0.0780245702
H   H81       1.0  0.12988  0.33185  0.52406  1.0000 0.1237340423
H   H82       1.0  0.99282  0.26922  0.23301  1.0000 0.1237340423
H   H83       1.0  0.92700  0.32642  0.61174  1.0000 0.1128237632
H   H84       1.0  0.22464  0.71331  0.81101  1.0000 0.414623068
H   H85       1.0  0.47373  0.81035  0.31094  1.0000 0.0780245702
H   H86       1.0  0.51148  0.87928  0.38705  1.0000 0.0986144285
H   H87       1.0  0.45446  0.89087  0.25593  1.0000 0.0780245702
H   H88       1.0  0.83185  0.87012  0.27406  1.0000 0.1237340423
H   H89       1.0  0.76922  0.00718  0.98301  1.0000 0.1237340423
H   H90       1.0  0.82642  0.07300  0.36174  1.0000 0.1128237632
H   H91       1.0  0.21331  0.77536  0.56101  1.0000 0.414623068
H   H92       1.0  0.97373  0.31035  0.81094  1.0000 0.0780245702
H   H93       1.0  0.01148  0.37928  0.88705  1.0000 0.0986144285
H   H94       1.0  0.95446  0.39087  0.75593  1.0000 0.0780245702
H   H95       1.0  0.33185  0.37012  0.77406  1.0000 0.1237340423
H   H96       1.0  0.26922  0.50718  0.48301  1.0000 0.1237340423
H   H97       1.0  0.32642  0.57300  0.86174  1.0000 0.1128237632
H   H98       1.0  0.71331  0.27536  0.06101  1.0000 0.414623068
H   H99       1.0  0.02627  0.68965  0.81094  1.0000 0.0780245702
H   H100      1.0  0.98852  0.62072  0.88705  1.0000 0.0986144285
H   H101      1.0  0.04554  0.60913  0.75593  1.0000 0.0780245702
H   H102      1.0  0.66815  0.62988  0.77406  1.0000 0.1237340423
H   H103      1.0  0.73078  0.49282  0.48301  1.0000 0.1237340423
H   H104      1.0  0.67358  0.42700  0.86174  1.0000 0.1128237632
H   H105      1.0  0.28669  0.72464  0.06101  1.0000 0.414623068
H   H106      1.0  0.52627  0.18965  0.31094  1.0000 0.0780245702
H   H107      1.0  0.48852  0.12072  0.38705  1.0000 0.0986144285
H   H108      1.0  0.54554  0.10913  0.25593  1.0000 0.0780245702
H   H109      1.0  0.16815  0.12988  0.27406  1.0000 0.1237340423
H   H110      1.0  0.23078  0.99282  0.98301  1.0000 0.1237340423
H   H111      1.0  0.17358  0.92700  0.36174  1.0000 0.1128237632
H   H112      1.0  0.78669  0.22464  0.56101  1.0000 0.414623068
C   C1        1.0  0.95564  0.79670  0.82563  1.0000 -0.0141056969
C   C2        1.0  0.07891  0.82129  0.74978  1.0000 -0.2031204614
C   C3        1.0  0.88883  0.79073  0.87083  1.0000 0.6469482121
C   C4        1.0  0.99317  0.85935  0.45590  1.0000 -0.1141354727
C   C5        1.0  0.96742  0.81730  0.70623  1.0000 -0.1770798179
C   C6        1.0  0.00496  0.78673  0.91810  1.0000 -0.126755133
C   C7        1.0  0.12538  0.79456  0.95004  1.0000 0.6407461104
C   C8        1.0  0.06251  0.80016  0.87326  1.0000 -0.0202842419
C   C9        1.0  0.03019  0.82772  0.66462  1.0000 0.2326039479
C   C10       1.0  0.45564  0.29670  0.32563  1.0000 -0.0141056969
C   C11       1.0  0.57891  0.32129  0.24978  1.0000 -0.2031204614
C   C12       1.0  0.38883  0.29073  0.37083  1.0000 0.6469482121
C   C13       1.0  0.49317  0.35935  0.95590  1.0000 -0.1141354727
C   C14       1.0  0.46742  0.31730  0.20623  1.0000 -0.1770798179
C   C15       1.0  0.50496  0.28673  0.41810  1.0000 -0.126755133
C   C16       1.0  0.62538  0.29456  0.45004  1.0000 0.6407461104
C   C17       1.0  0.56251  0.30016  0.37326  1.0000 -0.0202842419
C   C18       1.0  0.53019  0.32772  0.16462  1.0000 0.2326039479
C   C19       1.0  0.54436  0.70330  0.32563  1.0000 -0.0141056969
C   C20       1.0  0.42109  0.67871  0.24978  1.0000 -0.2031204614
C   C21       1.0  0.61117  0.70927  0.37083  1.0000 0.6469482121
C   C22       1.0  0.50683  0.64065  0.95590  1.0000 -0.1141354727
C   C23       1.0  0.53258  0.68270  0.20623  1.0000 -0.1770798179
C   C24       1.0  0.49504  0.71327  0.41810  1.0000 -0.126755133
C   C25       1.0  0.37462  0.70544  0.45004  1.0000 0.6407461104
C   C26       1.0  0.43749  0.69984  0.37326  1.0000 -0.0202842419
C   C27       1.0  0.46981  0.67228  0.16462  1.0000 0.2326039479
C   C28       1.0  0.04436  0.20330  0.82563  1.0000 -0.0141056969
C   C29       1.0  0.92109  0.17871  0.74978  1.0000 -0.2031204614
C   C30       1.0  0.11117  0.20927  0.87083  1.0000 0.6469482121
C   C31       1.0  0.00683  0.14065  0.45590  1.0000 -0.1141354727
C   C32       1.0  0.03258  0.18270  0.70623  1.0000 -0.1770798179
C   C33       1.0  0.99504  0.21327  0.91810  1.0000 -0.126755133
C   C34       1.0  0.87462  0.20544  0.95004  1.0000 0.6407461104
C   C35       1.0  0.93749  0.19984  0.87326  1.0000 -0.0202842419
C   C36       1.0  0.96981  0.17228  0.66462  1.0000 0.2326039479
C   C37       1.0  0.20330  0.45564  0.07563  1.0000 -0.0141056969
C   C38       1.0  0.17871  0.57891  0.99978  1.0000 -0.2031204614
C   C39       1.0  0.20927  0.38883  0.12083  1.0000 0.6469482121
C   C40       1.0  0.14065  0.49317  0.70590  1.0000 -0.1141354727
C   C41       1.0  0.18270  0.46742  0.95623  1.0000 -0.1770798179
C   C42       1.0  0.21327  0.50496  0.16810  1.0000 -0.126755133
C   C43       1.0  0.20544  0.62538  0.20004  1.0000 0.6407461104
C   C44       1.0  0.19984  0.56251  0.12326  1.0000 -0.0202842419
C   C45       1.0  0.17228  0.53019  0.91462  1.0000 0.2326039479
C   C46       1.0  0.70330  0.95564  0.57563  1.0000 -0.0141056969
C   C47       1.0  0.67871  0.07891  0.49978  1.0000 -0.2031204614
C   C48       1.0  0.70927  0.88883  0.62083  1.0000 0.6469482121
C   C49       1.0  0.64065  0.99317  0.20590  1.0000 -0.1141354727
C   C50       1.0  0.68270  0.96742  0.45623  1.0000 -0.1770798179
C   C51       1.0  0.71327  0.00496  0.66810  1.0000 -0.126755133
C   C52       1.0  0.70544  0.12538  0.70004  1.0000 0.6407461104
C   C53       1.0  0.69984  0.06251  0.62326  1.0000 -0.0202842419
C   C54       1.0  0.67228  0.03019  0.41462  1.0000 0.2326039479
C   C55       1.0  0.29670  0.04436  0.57563  1.0000 -0.0141056969
C   C56       1.0  0.32129  0.92109  0.49978  1.0000 -0.2031204614
C   C57       1.0  0.29073  0.11117  0.62083  1.0000 0.6469482121
C   C58       1.0  0.35935  0.00683  0.20590  1.0000 -0.1141354727
C   C59       1.0  0.31730  0.03258  0.45623  1.0000 -0.1770798179
C   C60       1.0  0.28673  0.99504  0.66810  1.0000 -0.126755133
C   C61       1.0  0.29456  0.87462  0.70004  1.0000 0.6407461104
C   C62       1.0  0.30016  0.93749  0.62326  1.0000 -0.0202842419
C   C63       1.0  0.32772  0.96981  0.41462  1.0000 0.2326039479
C   C64       1.0  0.79670  0.54436  0.07563  1.0000 -0.0141056969
C   C65       1.0  0.82129  0.42109  0.99978  1.0000 -0.2031204614
C   C66       1.0  0.79073  0.61117  0.12083  1.0000 0.6469482121
C   C67       1.0  0.85935  0.50683  0.70590  1.0000 -0.1141354727
C   C68       1.0  0.81730  0.53258  0.95623  1.0000 -0.1770798179
C   C69       1.0  0.78673  0.49504  0.16810  1.0000 -0.126755133
C   C70       1.0  0.79456  0.37462  0.20004  1.0000 0.6407461104
C   C71       1.0  0.80016  0.43749  0.12326  1.0000 -0.0202842419
C   C72       1.0  0.82772  0.46981  0.91462  1.0000 0.2326039479
C   C73       1.0  0.04436  0.70330  0.42437  1.0000 -0.0141056969
C   C74       1.0  0.92109  0.67871  0.50022  1.0000 -0.2031204614
C   C75       1.0  0.11117  0.70927  0.37917  1.0000 0.6469482121
C   C76       1.0  0.00683  0.64065  0.79410  1.0000 -0.1141354727
C   C77       1.0  0.03258  0.68270  0.54377  1.0000 -0.1770798179
C   C78       1.0  0.99504  0.71327  0.33190  1.0000 -0.126755133
C   C79       1.0  0.87462  0.70544  0.29996  1.0000 0.6407461104
C   C80       1.0  0.93749  0.69984  0.37674  1.0000 -0.0202842419
C   C81       1.0  0.96981  0.67228  0.58538  1.0000 0.2326039479
C   C82       1.0  0.54436  0.20330  0.92437  1.0000 -0.0141056969
C   C83       1.0  0.42109  0.17871  0.00022  1.0000 -0.2031204614
C   C84       1.0  0.61117  0.20927  0.87917  1.0000 0.6469482121
C   C85       1.0  0.50683  0.14065  0.29410  1.0000 -0.1141354727
C   C86       1.0  0.53258  0.18270  0.04377  1.0000 -0.1770798179
C   C87       1.0  0.49504  0.21327  0.83190  1.0000 -0.126755133
C   C88       1.0  0.37462  0.20544  0.79996  1.0000 0.6407461104
C   C89       1.0  0.43749  0.19984  0.87674  1.0000 -0.0202842419
C   C90       1.0  0.46981  0.17228  0.08538  1.0000 0.2326039479
C   C91       1.0  0.45564  0.79670  0.92437  1.0000 -0.0141056969
C   C92       1.0  0.57891  0.82129  0.00022  1.0000 -0.2031204614
C   C93       1.0  0.38883  0.79073  0.87917  1.0000 0.6469482121
C   C94       1.0  0.49317  0.85935  0.29410  1.0000 -0.1141354727
C   C95       1.0  0.46742  0.81730  0.04377  1.0000 -0.1770798179
C   C96       1.0  0.50496  0.78673  0.83190  1.0000 -0.126755133
C   C97       1.0  0.62538  0.79456  0.79996  1.0000 0.6407461104
C   C98       1.0  0.56251  0.80016  0.87674  1.0000 -0.0202842419
C   C99       1.0  0.53019  0.82772  0.08538  1.0000 0.2326039479
C   C100      1.0  0.95564  0.29670  0.42437  1.0000 -0.0141056969
C   C101      1.0  0.07891  0.32129  0.50022  1.0000 -0.2031204614
C   C102      1.0  0.88883  0.29073  0.37917  1.0000 0.6469482121
C   C103      1.0  0.99317  0.35935  0.79410  1.0000 -0.1141354727
C   C104      1.0  0.96742  0.31730  0.54377  1.0000 -0.1770798179
C   C105      1.0  0.00496  0.28673  0.33190  1.0000 -0.126755133
C   C106      1.0  0.12538  0.29456  0.29996  1.0000 0.6407461104
C   C107      1.0  0.06251  0.30016  0.37674  1.0000 -0.0202842419
C   C108      1.0  0.03019  0.32772  0.58538  1.0000 0.2326039479
C   C109      1.0  0.79670  0.04436  0.17437  1.0000 -0.0141056969
C   C110      1.0  0.82129  0.92109  0.25022  1.0000 -0.2031204614
C   C111      1.0  0.79073  0.11117  0.12917  1.0000 0.6469482121
C   C112      1.0  0.85935  0.00683  0.54410  1.0000 -0.1141354727
C   C113      1.0  0.81730  0.03258  0.29377  1.0000 -0.1770798179
C   C114      1.0  0.78673  0.99504  0.08190  1.0000 -0.126755133
C   C115      1.0  0.79456  0.87462  0.04996  1.0000 0.6407461104
C   C116      1.0  0.80016  0.93749  0.12674  1.0000 -0.0202842419
C   C117      1.0  0.82772  0.96981  0.33538  1.0000 0.2326039479
C   C118      1.0  0.29670  0.54436  0.67437  1.0000 -0.0141056969
C   C119      1.0  0.32129  0.42109  0.75022  1.0000 -0.2031204614
C   C120      1.0  0.29073  0.61117  0.62917  1.0000 0.6469482121
C   C121      1.0  0.35935  0.50683  0.04410  1.0000 -0.1141354727
C   C122      1.0  0.31730  0.53258  0.79377  1.0000 -0.1770798179
C   C123      1.0  0.28673  0.49504  0.58190  1.0000 -0.126755133
C   C124      1.0  0.29456  0.37462  0.54996  1.0000 0.6407461104
C   C125      1.0  0.30016  0.43749  0.62674  1.0000 -0.0202842419
C   C126      1.0  0.32772  0.46981  0.83538  1.0000 0.2326039479
C   C127      1.0  0.70330  0.45564  0.67437  1.0000 -0.0141056969
C   C128      1.0  0.67871  0.57891  0.75022  1.0000 -0.2031204614
C   C129      1.0  0.70927  0.38883  0.62917  1.0000 0.6469482121
C   C130      1.0  0.64065  0.49317  0.04410  1.0000 -0.1141354727
C   C131      1.0  0.68270  0.46742  0.79377  1.0000 -0.1770798179
C   C132      1.0  0.71327  0.50496  0.58190  1.0000 -0.126755133
C   C133      1.0  0.70544  0.62538  0.54996  1.0000 0.6407461104
C   C134      1.0  0.69984  0.56251  0.62674  1.0000 -0.0202842419
C   C135      1.0  0.67228  0.53019  0.83538  1.0000 0.2326039479
C   C136      1.0  0.20330  0.95564  0.17437  1.0000 -0.0141056969
C   C137      1.0  0.17871  0.07891  0.25022  1.0000 -0.2031204614
C   C138      1.0  0.20927  0.88883  0.12917  1.0000 0.6469482121
C   C139      1.0  0.14065  0.99317  0.54410  1.0000 -0.1141354727
C   C140      1.0  0.18270  0.96742  0.29377  1.0000 -0.1770798179
C   C141      1.0  0.21327  0.00496  0.08190  1.0000 -0.126755133
C   C142      1.0  0.20544  0.12538  0.04996  1.0000 0.6407461104
C   C143      1.0  0.19984  0.06251  0.12674  1.0000 -0.0202842419
C   C144      1.0  0.17228  0.03019  0.33538  1.0000 0.2326039479
O   O1        1.0  0.84548  0.81393  0.80593  1.0000 -0.5938690367
O   O2        1.0  0.17513  0.82042  0.91102  1.0000 -0.6054279494
O   O3        1.0  0.11705  0.76078  0.04740  1.0000 -0.5608683887
O   O4        1.0  0.88523  0.74866  0.95359  1.0000 -0.5545066657
O   O5        1.0  0.24924  0.76209  0.06101  1.0000 -0.9881705704
O   O6        1.0  0.04264  0.85631  0.54486  1.0000 -0.2365162211
O   O7        1.0  0.34548  0.31393  0.30593  1.0000 -0.5938690367
O   O8        1.0  0.67513  0.32042  0.41102  1.0000 -0.6054279494
O   O9        1.0  0.61705  0.26078  0.54740  1.0000 -0.5608683887
O   O10       1.0  0.38523  0.24866  0.45359  1.0000 -0.5545066657
O   O11       1.0  0.74924  0.26209  0.56101  1.0000 -0.9881705704
O   O12       1.0  0.54264  0.35631  0.04486  1.0000 -0.2365162211
O   O13       1.0  0.65452  0.68607  0.30593  1.0000 -0.5938690367
O   O14       1.0  0.32487  0.67958  0.41102  1.0000 -0.6054279494
O   O15       1.0  0.38295  0.73922  0.54740  1.0000 -0.5608683887
O   O16       1.0  0.61477  0.75134  0.45359  1.0000 -0.5545066657
O   O17       1.0  0.25076  0.73791  0.56101  1.0000 -0.9881705704
O   O18       1.0  0.45736  0.64369  0.04486  1.0000 -0.2365162211
O   O19       1.0  0.15452  0.18607  0.80593  1.0000 -0.5938690367
O   O20       1.0  0.82487  0.17958  0.91102  1.0000 -0.6054279494
O   O21       1.0  0.88295  0.23922  0.04740  1.0000 -0.5608683887
O   O22       1.0  0.11477  0.25134  0.95359  1.0000 -0.5545066657
O   O23       1.0  0.75076  0.23791  0.06101  1.0000 -0.9881705704
O   O24       1.0  0.95736  0.14369  0.54486  1.0000 -0.2365162211
O   O25       1.0  0.18607  0.34548  0.05593  1.0000 -0.5938690367
O   O26       1.0  0.17958  0.67513  0.16102  1.0000 -0.6054279494
O   O27       1.0  0.23922  0.61705  0.29740  1.0000 -0.5608683887
O   O28       1.0  0.25134  0.38523  0.20359  1.0000 -0.5545066657
O   O29       1.0  0.23791  0.74924  0.31101  1.0000 -0.9881705704
O   O30       1.0  0.14369  0.54264  0.79486  1.0000 -0.2365162211
O   O31       1.0  0.68607  0.84548  0.55593  1.0000 -0.5938690367
O   O32       1.0  0.67958  0.17513  0.66102  1.0000 -0.6054279494
O   O33       1.0  0.73922  0.11705  0.79740  1.0000 -0.5608683887
O   O34       1.0  0.75134  0.88523  0.70359  1.0000 -0.5545066657
O   O35       1.0  0.73791  0.24924  0.81101  1.0000 -0.9881705704
O   O36       1.0  0.64369  0.04264  0.29486  1.0000 -0.2365162211
O   O37       1.0  0.31393  0.15452  0.55593  1.0000 -0.5938690367
O   O38       1.0  0.32042  0.82487  0.66102  1.0000 -0.6054279494
O   O39       1.0  0.26078  0.88295  0.79740  1.0000 -0.5608683887
O   O40       1.0  0.24866  0.11477  0.70359  1.0000 -0.5545066657
O   O41       1.0  0.26209  0.75076  0.81101  1.0000 -0.9881705704
O   O42       1.0  0.35631  0.95736  0.29486  1.0000 -0.2365162211
O   O43       1.0  0.81393  0.65452  0.05593  1.0000 -0.5938690367
O   O44       1.0  0.82042  0.32487  0.16102  1.0000 -0.6054279494
O   O45       1.0  0.76078  0.38295  0.29740  1.0000 -0.5608683887
O   O46       1.0  0.74866  0.61477  0.20359  1.0000 -0.5545066657
O   O47       1.0  0.76209  0.25076  0.31101  1.0000 -0.9881705704
O   O48       1.0  0.85631  0.45736  0.79486  1.0000 -0.2365162211
O   O49       1.0  0.15452  0.68607  0.44407  1.0000 -0.5938690367
O   O50       1.0  0.82487  0.67958  0.33898  1.0000 -0.6054279494
O   O51       1.0  0.88295  0.73922  0.20260  1.0000 -0.5608683887
O   O52       1.0  0.11477  0.75134  0.29641  1.0000 -0.5545066657
O   O53       1.0  0.75076  0.73791  0.18899  1.0000 -0.9881705704
O   O54       1.0  0.95736  0.64369  0.70514  1.0000 -0.2365162211
O   O55       1.0  0.65452  0.18607  0.94407  1.0000 -0.5938690367
O   O56       1.0  0.32487  0.17958  0.83898  1.0000 -0.6054279494
O   O57       1.0  0.38295  0.23922  0.70260  1.0000 -0.5608683887
O   O58       1.0  0.61477  0.25134  0.79641  1.0000 -0.5545066657
O   O59       1.0  0.25076  0.23791  0.68899  1.0000 -0.9881705704
O   O60       1.0  0.45736  0.14369  0.20514  1.0000 -0.2365162211
O   O61       1.0  0.34548  0.81393  0.94407  1.0000 -0.5938690367
O   O62       1.0  0.67513  0.82042  0.83898  1.0000 -0.6054279494
O   O63       1.0  0.61705  0.76078  0.70260  1.0000 -0.5608683887
O   O64       1.0  0.38523  0.74866  0.79641  1.0000 -0.5545066657
O   O65       1.0  0.74924  0.76209  0.68899  1.0000 -0.9881705704
O   O66       1.0  0.54264  0.85631  0.20514  1.0000 -0.2365162211
O   O67       1.0  0.84548  0.31393  0.44407  1.0000 -0.5938690367
O   O68       1.0  0.17513  0.32042  0.33898  1.0000 -0.6054279494
O   O69       1.0  0.11705  0.26078  0.20260  1.0000 -0.5608683887
O   O70       1.0  0.88523  0.24866  0.29641  1.0000 -0.5545066657
O   O71       1.0  0.24924  0.26209  0.18899  1.0000 -0.9881705704
O   O72       1.0  0.04264  0.35631  0.70514  1.0000 -0.2365162211
O   O73       1.0  0.81393  0.15452  0.19407  1.0000 -0.5938690367
O   O74       1.0  0.82042  0.82487  0.08898  1.0000 -0.6054279494
O   O75       1.0  0.76078  0.88295  0.95260  1.0000 -0.5608683887
O   O76       1.0  0.74866  0.11477  0.04641  1.0000 -0.5545066657
O   O77       1.0  0.76209  0.75076  0.93899  1.0000 -0.9881705704
O   O78       1.0  0.85631  0.95736  0.45514  1.0000 -0.2365162211
O   O79       1.0  0.31393  0.65452  0.69407  1.0000 -0.5938690367
O   O80       1.0  0.32042  0.32487  0.58898  1.0000 -0.6054279494
O   O81       1.0  0.26078  0.38295  0.45260  1.0000 -0.5608683887
O   O82       1.0  0.24866  0.61477  0.54641  1.0000 -0.5545066657
O   O83       1.0  0.26209  0.25076  0.43899  1.0000 -0.9881705704
O   O84       1.0  0.35631  0.45736  0.95514  1.0000 -0.2365162211
O   O85       1.0  0.68607  0.34548  0.69407  1.0000 -0.5938690367
O   O86       1.0  0.67958  0.67513  0.58898  1.0000 -0.6054279494
O   O87       1.0  0.73922  0.61705  0.45260  1.0000 -0.5608683887
O   O88       1.0  0.75134  0.38523  0.54641  1.0000 -0.5545066657
O   O89       1.0  0.73791  0.74924  0.43899  1.0000 -0.9881705704
O   O90       1.0  0.64369  0.54264  0.95514  1.0000 -0.2365162211
O   O91       1.0  0.18607  0.84548  0.19407  1.0000 -0.5938690367
O   O92       1.0  0.17958  0.17513  0.08898  1.0000 -0.6054279494
O   O93       1.0  0.23922  0.11705  0.95260  1.0000 -0.5608683887
O   O94       1.0  0.25134  0.88523  0.04641  1.0000 -0.5545066657
O   O95       1.0  0.23791  0.24924  0.93899  1.0000 -0.9881705704
O   O96       1.0  0.14369  0.04264  0.45514  1.0000 -0.2365162211
