# DDEC6 charges by PACMAN v1.1 (https://github.com/mtap-research/PACMAN-charge/)
data_2012[Cu][tbo]3[ASR]4
_chemical_formula_sum              "Cu12 H24 C72 O48"
_cell_length_a       18.5896
_cell_length_b       18.5896
_cell_length_c       18.5896
_cell_angle_alpha    60
_cell_angle_beta     60
_cell_angle_gamma    60

_symmetry_space_group_name_H-M    "P 1"
_symmetry_Int_Tables_number       1

loop_
  _symmetry_equiv_pos_as_xyz
  'x, y, z'

loop_
  _atom_site_type_symbol
  _atom_site_label
  _atom_site_symmetry_multiplicity
  _atom_site_fract_x
  _atom_site_fract_y
  _atom_site_fract_z
  _atom_site_occupancy
  _atom_site_charge
Cu  Cu1       1.0  0.00000  0.57002  0.42998  1.0000 0.8484280965
Cu  Cu2       1.0  0.57002  0.42998  0.00000  1.0000 0.8484280965
Cu  Cu3       1.0  0.42998  0.00000  0.57002  1.0000 0.8484280965
Cu  Cu4       1.0  0.57002  0.00000  0.00000  1.0000 0.8484280965
Cu  Cu5       1.0  0.42998  0.57002  0.00000  1.0000 0.8484280965
Cu  Cu6       1.0  0.00000  0.42998  0.00000  1.0000 0.8484280965
Cu  Cu7       1.0  0.00000  0.00000  0.42998  1.0000 0.8484280965
Cu  Cu8       1.0  1.00000  0.57002  0.00000  1.0000 0.8484280965
Cu  Cu9       1.0  0.57002  0.00000  0.42998  1.0000 0.8484280965
Cu  Cu10      1.0  0.42998  0.00000  0.00000  1.0000 0.8484280965
Cu  Cu11      1.0  0.00000  0.00000  0.57002  1.0000 0.8484280965
Cu  Cu12      1.0  0.00000  0.42998  0.57002  1.0000 0.8484280965
H   H1        1.0  0.27110  0.48610  0.27110  1.0000 0.1377741308
H   H2        1.0  0.48610  0.27110  0.27110  1.0000 0.1377741308
H   H3        1.0  0.27110  0.27110  0.48610  1.0000 0.1377741308
H   H4        1.0  0.48610  0.27110  0.97170  1.0000 0.1377741308
H   H5        1.0  0.27110  0.48610  0.97170  1.0000 0.1377741308
H   H6        1.0  0.27110  0.27110  0.97170  1.0000 0.1377741308
H   H7        1.0  0.97170  0.27110  0.27110  1.0000 0.1377741308
H   H8        1.0  0.97170  0.48610  0.27110  1.0000 0.1377741308
H   H9        1.0  0.48610  0.97170  0.27110  1.0000 0.1377741308
H   H10       1.0  0.27110  0.97170  0.27110  1.0000 0.1377741308
H   H11       1.0  0.27110  0.97170  0.48610  1.0000 0.1377741308
H   H12       1.0  0.97170  0.27110  0.48610  1.0000 0.1377741308
H   H13       1.0  0.51390  0.72890  0.72890  1.0000 0.1377741308
H   H14       1.0  0.72890  0.51390  0.72890  1.0000 0.1377741308
H   H15       1.0  0.72890  0.72890  0.51390  1.0000 0.1377741308
H   H16       1.0  0.72890  0.51390  0.02830  1.0000 0.1377741308
H   H17       1.0  0.51390  0.72890  0.02830  1.0000 0.1377741308
H   H18       1.0  0.72890  0.72890  0.02830  1.0000 0.1377741308
H   H19       1.0  0.72890  0.02830  0.72890  1.0000 0.1377741308
H   H20       1.0  0.51390  0.02830  0.72890  1.0000 0.1377741308
H   H21       1.0  0.02830  0.51390  0.72890  1.0000 0.1377741308
H   H22       1.0  0.02830  0.72890  0.72890  1.0000 0.1377741308
H   H23       1.0  0.02830  0.72890  0.51390  1.0000 0.1377741308
H   H24       1.0  0.72890  0.02830  0.51390  1.0000 0.1377741308
C   C1        1.0  0.30110  0.42770  0.30110  1.0000 -0.0815413099
C   C2        1.0  0.42770  0.30110  0.30110  1.0000 -0.0815413099
C   C3        1.0  0.30110  0.30110  0.42770  1.0000 -0.0815413099
C   C4        1.0  0.42770  0.30110  0.97010  1.0000 -0.0815413099
C   C5        1.0  0.30110  0.42770  0.97010  1.0000 -0.0815413099
C   C6        1.0  0.30110  0.30110  0.97010  1.0000 -0.0815413099
C   C7        1.0  0.97010  0.30110  0.30110  1.0000 -0.0815413099
C   C8        1.0  0.97010  0.42770  0.30110  1.0000 -0.0815413099
C   C9        1.0  0.42770  0.97010  0.30110  1.0000 -0.0815413099
C   C10       1.0  0.30110  0.97010  0.30110  1.0000 -0.0815413099
C   C11       1.0  0.30110  0.97010  0.42770  1.0000 -0.0815413099
C   C12       1.0  0.97010  0.30110  0.42770  1.0000 -0.0815413099
C   C13       1.0  0.57230  0.69890  0.69890  1.0000 -0.0815413099
C   C14       1.0  0.69890  0.57230  0.69890  1.0000 -0.0815413099
C   C15       1.0  0.69890  0.69890  0.57230  1.0000 -0.0815413099
C   C16       1.0  0.69890  0.57230  0.02990  1.0000 -0.0815413099
C   C17       1.0  0.57230  0.69890  0.02990  1.0000 -0.0815413099
C   C18       1.0  0.69890  0.69890  0.02990  1.0000 -0.0815413099
C   C19       1.0  0.69890  0.02990  0.69890  1.0000 -0.0815413099
C   C20       1.0  0.57230  0.02990  0.69890  1.0000 -0.0815413099
C   C21       1.0  0.02990  0.57230  0.69890  1.0000 -0.0815413099
C   C22       1.0  0.02990  0.69890  0.69890  1.0000 -0.0815413099
C   C23       1.0  0.02990  0.69890  0.57230  1.0000 -0.0815413099
C   C24       1.0  0.69890  0.02990  0.57230  1.0000 -0.0815413099
C   C25       1.0  0.25690  0.38690  0.38690  1.0000 -0.0358209371
C   C26       1.0  0.38690  0.38690  0.25690  1.0000 -0.0358209371
C   C27       1.0  0.38690  0.25690  0.38690  1.0000 -0.0346103858
C   C28       1.0  0.38690  0.25690  0.96930  1.0000 -0.0358209371
C   C29       1.0  0.38690  0.38690  0.96930  1.0000 -0.0358209371
C   C30       1.0  0.25690  0.38690  0.96930  1.0000 -0.0346103858
C   C31       1.0  0.96930  0.25690  0.38690  1.0000 -0.0346103858
C   C32       1.0  0.96930  0.38690  0.25690  1.0000 -0.0358209371
C   C33       1.0  0.38690  0.96930  0.38690  1.0000 -0.0358209371
C   C34       1.0  0.38690  0.96930  0.25690  1.0000 -0.0358209371
C   C35       1.0  0.25690  0.96930  0.38690  1.0000 -0.0358209371
C   C36       1.0  0.96930  0.38690  0.38690  1.0000 -0.0346103858
C   C37       1.0  0.61310  0.74310  0.61310  1.0000 -0.0346103858
C   C38       1.0  0.61310  0.61310  0.74310  1.0000 -0.0346103858
C   C39       1.0  0.74310  0.61310  0.61310  1.0000 -0.0346103858
C   C40       1.0  0.74310  0.61310  0.03070  1.0000 -0.0358209371
C   C41       1.0  0.61310  0.61310  0.03070  1.0000 -0.0358209371
C   C42       1.0  0.61310  0.74310  0.03070  1.0000 -0.0358209371
C   C43       1.0  0.74310  0.03070  0.61310  1.0000 -0.0346103858
C   C44       1.0  0.61310  0.03070  0.74310  1.0000 -0.0358209371
C   C45       1.0  0.03070  0.61310  0.61310  1.0000 -0.0346103858
C   C46       1.0  0.03070  0.61310  0.74310  1.0000 -0.0346103858
C   C47       1.0  0.03070  0.74310  0.61310  1.0000 -0.0358209371
C   C48       1.0  0.61310  0.03070  0.61310  1.0000 -0.0346103858
C   C49       1.0  0.16220  0.43020  0.43020  1.0000 0.5805530038
C   C50       1.0  0.43020  0.43020  0.16220  1.0000 0.5805530038
C   C51       1.0  0.43020  0.16220  0.43020  1.0000 0.5805530038
C   C52       1.0  0.43020  0.16220  0.97740  1.0000 0.5805530038
C   C53       1.0  0.43020  0.43020  0.97740  1.0000 0.5805530038
C   C54       1.0  0.16220  0.43020  0.97740  1.0000 0.5805530038
C   C55       1.0  0.97740  0.16220  0.43020  1.0000 0.5805530038
C   C56       1.0  0.97740  0.43020  0.16220  1.0000 0.5805530038
C   C57       1.0  0.43020  0.97740  0.43020  1.0000 0.5805530038
C   C58       1.0  0.43020  0.97740  0.16220  1.0000 0.5805530038
C   C59       1.0  0.16220  0.97740  0.43020  1.0000 0.5805530038
C   C60       1.0  0.97740  0.43020  0.43020  1.0000 0.5805530038
C   C61       1.0  0.56980  0.83780  0.56980  1.0000 0.5805530038
C   C62       1.0  0.56980  0.56980  0.83780  1.0000 0.5805530038
C   C63       1.0  0.83780  0.56980  0.56980  1.0000 0.5805530038
C   C64       1.0  0.83780  0.56980  0.02260  1.0000 0.5805530038
C   C65       1.0  0.56980  0.56980  0.02260  1.0000 0.5805530038
C   C66       1.0  0.56980  0.83780  0.02260  1.0000 0.5805530038
C   C67       1.0  0.83780  0.02260  0.56980  1.0000 0.5805530038
C   C68       1.0  0.56980  0.02260  0.83780  1.0000 0.5805530038
C   C69       1.0  0.02260  0.56980  0.56980  1.0000 0.5805530038
C   C70       1.0  0.02260  0.56980  0.83780  1.0000 0.5805530038
C   C71       1.0  0.02260  0.83780  0.56980  1.0000 0.5805530038
C   C72       1.0  0.56980  0.02260  0.56980  1.0000 0.5805530038
O   O1        1.0  0.12601  0.50695  0.38711  1.0000 -0.5128668859
O   O2        1.0  0.50695  0.38711  0.12601  1.0000 -0.5128668859
O   O3        1.0  0.38711  0.12601  0.50695  1.0000 -0.5128668859
O   O4        1.0  0.50695  0.12601  0.97993  1.0000 -0.5128668859
O   O5        1.0  0.38711  0.50695  0.97993  1.0000 -0.5128668859
O   O6        1.0  0.12601  0.38711  0.97993  1.0000 -0.5128668859
O   O7        1.0  0.97993  0.12601  0.38711  1.0000 -0.5128668859
O   O8        1.0  0.97993  0.50695  0.12601  1.0000 -0.5128668859
O   O9        1.0  0.50695  0.97993  0.38711  1.0000 -0.5128668859
O   O10       1.0  0.38711  0.97993  0.12601  1.0000 -0.5128668859
O   O11       1.0  0.12601  0.97993  0.50695  1.0000 -0.5128668859
O   O12       1.0  0.97993  0.38711  0.50695  1.0000 -0.5128668859
O   O13       1.0  0.49305  0.87399  0.61289  1.0000 -0.5128668859
O   O14       1.0  0.61289  0.49305  0.87399  1.0000 -0.5128668859
O   O15       1.0  0.87399  0.61289  0.49305  1.0000 -0.5128668859
O   O16       1.0  0.87399  0.49305  0.02007  1.0000 -0.5128668859
O   O17       1.0  0.49305  0.61289  0.02007  1.0000 -0.5128668859
O   O18       1.0  0.61289  0.87399  0.02007  1.0000 -0.5128668859
O   O19       1.0  0.87399  0.02007  0.61289  1.0000 -0.5128668859
O   O20       1.0  0.49305  0.02007  0.87399  1.0000 -0.5128668859
O   O21       1.0  0.02007  0.49305  0.61289  1.0000 -0.5128668859
O   O22       1.0  0.02007  0.61289  0.87399  1.0000 -0.5128668859
O   O23       1.0  0.02007  0.87399  0.49305  1.0000 -0.5128668859
O   O24       1.0  0.61289  0.02007  0.49305  1.0000 -0.5128668859
O   O25       1.0  0.87399  0.49305  0.61289  1.0000 -0.5128668859
O   O26       1.0  0.49305  0.61289  0.87399  1.0000 -0.5128668859
O   O27       1.0  0.61289  0.87399  0.49305  1.0000 -0.5128668859
O   O28       1.0  0.49305  0.87399  0.02007  1.0000 -0.5128668859
O   O29       1.0  0.61289  0.49305  0.02007  1.0000 -0.5128668859
O   O30       1.0  0.87399  0.61289  0.02007  1.0000 -0.5128668859
O   O31       1.0  0.02007  0.87399  0.61289  1.0000 -0.5128668859
O   O32       1.0  0.02007  0.49305  0.87399  1.0000 -0.5128668859
O   O33       1.0  0.49305  0.02007  0.61289  1.0000 -0.5128668859
O   O34       1.0  0.61289  0.02007  0.87399  1.0000 -0.5128668859
O   O35       1.0  0.87399  0.02007  0.49305  1.0000 -0.5128668859
O   O36       1.0  0.02007  0.61289  0.49305  1.0000 -0.5128668859
O   O37       1.0  0.50695  0.12601  0.38711  1.0000 -0.5128668859
O   O38       1.0  0.38711  0.50695  0.12601  1.0000 -0.5128668859
O   O39       1.0  0.12601  0.38711  0.50695  1.0000 -0.5128668859
O   O40       1.0  0.12601  0.50695  0.97993  1.0000 -0.5128668859
O   O41       1.0  0.50695  0.38711  0.97993  1.0000 -0.5128668859
O   O42       1.0  0.38711  0.12601  0.97993  1.0000 -0.5128668859
O   O43       1.0  0.12601  0.97993  0.38711  1.0000 -0.5128668859
O   O44       1.0  0.50695  0.97993  0.12601  1.0000 -0.5128668859
O   O45       1.0  0.97993  0.50695  0.38711  1.0000 -0.5128668859
O   O46       1.0  0.97993  0.38711  0.12601  1.0000 -0.5128668859
O   O47       1.0  0.97993  0.12601  0.50695  1.0000 -0.5128668859
O   O48       1.0  0.38711  0.97993  0.50695  1.0000 -0.5128668859
