# DDEC6 charges by PACMAN v1.1 (https://github.com/mtap-research/PACMAN-charge/)
data_2012[Cu][gfy]3[ASR]1
_chemical_formula_sum              "Cu28 H48 C72 I16 N60"
_cell_length_a       14.849
_cell_length_b       14.849
_cell_length_c       21.806
_cell_angle_alpha    90
_cell_angle_beta     90
_cell_angle_gamma    120

_symmetry_space_group_name_H-M    "P 1"
_symmetry_Int_Tables_number       1

loop_
  _symmetry_equiv_pos_as_xyz
  'x, y, z'

loop_
  _atom_site_type_symbol
  _atom_site_label
  _atom_site_symmetry_multiplicity
  _atom_site_fract_x
  _atom_site_fract_y
  _atom_site_fract_z
  _atom_site_occupancy
  _atom_site_charge
Cu  Cu1       1.0  0.86343  0.37898  0.25162  1.0000 0.1955787184
Cu  Cu2       1.0  0.62102  0.48445  0.25162  1.0000 0.1955787184
Cu  Cu3       1.0  0.51555  0.13657  0.25162  1.0000 0.1955787184
Cu  Cu4       1.0  0.37898  0.86343  0.24838  1.0000 0.1955787184
Cu  Cu5       1.0  0.48445  0.62102  0.24838  1.0000 0.1955787184
Cu  Cu6       1.0  0.13657  0.51555  0.24838  1.0000 0.1955787184
Cu  Cu7       1.0  0.13657  0.62102  0.74838  1.0000 0.1942359715
Cu  Cu8       1.0  0.37898  0.51555  0.74838  1.0000 0.1942359715
Cu  Cu9       1.0  0.48445  0.86343  0.74838  1.0000 0.1942359715
Cu  Cu10      1.0  0.62102  0.13657  0.75162  1.0000 0.1955787184
Cu  Cu11      1.0  0.51555  0.37898  0.75162  1.0000 0.1955787184
Cu  Cu12      1.0  0.86343  0.48445  0.75162  1.0000 0.1955787184
Cu  Cu13      1.0  0.76036  0.23465  0.11806  1.0000 0.2439418407
Cu  Cu14      1.0  0.76535  0.52571  0.11806  1.0000 0.2439418407
Cu  Cu15      1.0  0.47429  0.23964  0.11806  1.0000 0.2439418407
Cu  Cu16      1.0  0.23465  0.76036  0.38194  1.0000 0.2439418407
Cu  Cu17      1.0  0.52571  0.76535  0.38194  1.0000 0.2439418407
Cu  Cu18      1.0  0.23964  0.47429  0.38194  1.0000 0.2439418407
Cu  Cu19      1.0  0.23964  0.76535  0.88194  1.0000 0.2439418407
Cu  Cu20      1.0  0.23465  0.47429  0.88194  1.0000 0.2439418407
Cu  Cu21      1.0  0.52571  0.76036  0.88194  1.0000 0.2439418407
Cu  Cu22      1.0  0.76535  0.23964  0.61806  1.0000 0.2439418407
Cu  Cu23      1.0  0.47429  0.23465  0.61806  1.0000 0.2439418407
Cu  Cu24      1.0  0.76036  0.52571  0.61806  1.0000 0.2439418407
Cu  Cu25      1.0  0.66667  0.33333  0.28341  1.0000 0.1667501836
Cu  Cu26      1.0  0.33333  0.66667  0.21659  1.0000 0.1647927745
Cu  Cu27      1.0  0.33333  0.66667  0.71659  1.0000 0.1667501836
Cu  Cu28      1.0  0.66667  0.33333  0.78341  1.0000 0.1647927745
H   H1        1.0  0.14560  0.47240  0.00160  1.0000 0.1011925995
H   H2        1.0  0.52760  0.67320  0.00160  1.0000 0.1011925995
H   H3        1.0  0.32680  0.85440  0.00160  1.0000 0.1011925995
H   H4        1.0  0.47240  0.14560  0.49840  1.0000 0.1011925995
H   H5        1.0  0.67320  0.52760  0.49840  1.0000 0.1011925995
H   H6        1.0  0.85440  0.32680  0.49840  1.0000 0.1011925995
H   H7        1.0  0.85440  0.52760  0.99840  1.0000 0.1011925995
H   H8        1.0  0.47240  0.32680  0.99840  1.0000 0.1011925995
H   H9        1.0  0.67320  0.14560  0.99840  1.0000 0.1011925995
H   H10       1.0  0.52760  0.85440  0.50160  1.0000 0.1011925995
H   H11       1.0  0.32680  0.47240  0.50160  1.0000 0.1011925995
H   H12       1.0  0.14560  0.67320  0.50160  1.0000 0.1011925995
H   H13       1.0  0.00460  0.32660  0.85040  1.0000 0.1092172287
H   H14       1.0  0.67340  0.67800  0.85040  1.0000 0.1092172287
H   H15       1.0  0.32200  0.99540  0.85040  1.0000 0.1092172287
H   H16       1.0  0.32660  0.00460  0.64960  1.0000 0.1092172287
H   H17       1.0  0.67800  0.67340  0.64960  1.0000 0.1092172287
H   H18       1.0  0.99540  0.32200  0.64960  1.0000 0.1092172287
H   H19       1.0  0.99540  0.67340  0.14960  1.0000 0.1092172287
H   H20       1.0  0.32660  0.32200  0.14960  1.0000 0.1092172287
H   H21       1.0  0.67800  0.00460  0.14960  1.0000 0.1092172287
H   H22       1.0  0.67340  0.99540  0.35040  1.0000 0.1092172287
H   H23       1.0  0.32200  0.32660  0.35040  1.0000 0.1092172287
H   H24       1.0  0.00460  0.67800  0.35040  1.0000 0.1092172287
H   H25       1.0  0.84300  0.25830  0.89800  1.0000 0.1345745682
H   H26       1.0  0.74170  0.58470  0.89800  1.0000 0.1345745682
H   H27       1.0  0.41530  0.15700  0.89800  1.0000 0.1345745682
H   H28       1.0  0.25830  0.84300  0.60200  1.0000 0.1345745682
H   H29       1.0  0.58470  0.74170  0.60200  1.0000 0.1345745682
H   H30       1.0  0.15700  0.41530  0.60200  1.0000 0.1345745682
H   H31       1.0  0.15700  0.74170  0.10200  1.0000 0.1345745682
H   H32       1.0  0.25830  0.41530  0.10200  1.0000 0.1345745682
H   H33       1.0  0.58470  0.84300  0.10200  1.0000 0.1345745682
H   H34       1.0  0.74170  0.15700  0.39800  1.0000 0.1345745682
H   H35       1.0  0.41530  0.25830  0.39800  1.0000 0.1345745682
H   H36       1.0  0.84300  0.58470  0.39800  1.0000 0.1345745682
H   H37       1.0  0.83530  0.27990  0.00340  1.0000 0.1092172287
H   H38       1.0  0.72010  0.55540  0.00340  1.0000 0.1092172287
H   H39       1.0  0.44460  0.16470  0.00340  1.0000 0.1092172287
H   H40       1.0  0.27990  0.83530  0.49660  1.0000 0.1092172287
H   H41       1.0  0.55540  0.72010  0.49660  1.0000 0.1092172287
H   H42       1.0  0.16470  0.44460  0.49660  1.0000 0.1092172287
H   H43       1.0  0.16470  0.72010  0.99660  1.0000 0.1092172287
H   H44       1.0  0.27990  0.44460  0.99660  1.0000 0.1092172287
H   H45       1.0  0.55540  0.83530  0.99660  1.0000 0.1092172287
H   H46       1.0  0.72010  0.16470  0.50340  1.0000 0.1092172287
H   H47       1.0  0.44460  0.27990  0.50340  1.0000 0.1092172287
H   H48       1.0  0.83530  0.55540  0.50340  1.0000 0.1092172287
C   C1        1.0  0.08510  0.42430  0.98160  1.0000 0.0365212693
C   C2        1.0  0.57570  0.66080  0.98160  1.0000 0.0365212693
C   C3        1.0  0.33920  0.91490  0.98160  1.0000 0.0365212693
C   C4        1.0  0.42430  0.08510  0.51840  1.0000 0.0365212693
C   C5        1.0  0.66080  0.57570  0.51840  1.0000 0.0365212693
C   C6        1.0  0.91490  0.33920  0.51840  1.0000 0.0365212693
C   C7        1.0  0.91490  0.57570  0.01840  1.0000 0.0365212693
C   C8        1.0  0.42430  0.33920  0.01840  1.0000 0.0365212693
C   C9        1.0  0.66080  0.08510  0.01840  1.0000 0.0365212693
C   C10       1.0  0.57570  0.91490  0.48160  1.0000 0.0365212693
C   C11       1.0  0.33920  0.42430  0.48160  1.0000 0.0365212693
C   C12       1.0  0.08510  0.66080  0.48160  1.0000 0.0365212693
C   C13       1.0  0.99450  0.39370  0.08240  1.0000 0.2439418407
C   C14       1.0  0.60630  0.60080  0.08240  1.0000 0.2439418407
C   C15       1.0  0.39920  0.00550  0.08240  1.0000 0.2439418407
C   C16       1.0  0.39370  0.99450  0.41760  1.0000 0.2439418407
C   C17       1.0  0.60080  0.60630  0.41760  1.0000 0.2439418407
C   C18       1.0  0.00550  0.39920  0.41760  1.0000 0.2439418407
C   C19       1.0  0.00550  0.60630  0.91760  1.0000 0.2439418407
C   C20       1.0  0.39370  0.39920  0.91760  1.0000 0.2439418407
C   C21       1.0  0.60080  0.99450  0.91760  1.0000 0.2439418407
C   C22       1.0  0.60630  0.00550  0.58240  1.0000 0.2439418407
C   C23       1.0  0.39920  0.39370  0.58240  1.0000 0.2439418407
C   C24       1.0  0.99450  0.60080  0.58240  1.0000 0.2439418407
C   C25       1.0  0.99130  0.37400  0.01550  1.0000 0.0142658465
C   C26       1.0  0.62600  0.61730  0.01550  1.0000 0.0142658465
C   C27       1.0  0.38270  0.00870  0.01550  1.0000 0.0142658465
C   C28       1.0  0.37400  0.99130  0.48450  1.0000 0.0142658465
C   C29       1.0  0.61730  0.62600  0.48450  1.0000 0.0142658465
C   C30       1.0  0.00870  0.38270  0.48450  1.0000 0.0142658465
C   C31       1.0  0.00870  0.62600  0.98450  1.0000 0.0142658465
C   C32       1.0  0.37400  0.38270  0.98450  1.0000 0.0142658465
C   C33       1.0  0.61730  0.99130  0.98450  1.0000 0.0142658465
C   C34       1.0  0.62600  0.00870  0.51550  1.0000 0.0142658465
C   C35       1.0  0.38270  0.37400  0.51550  1.0000 0.0142658465
C   C36       1.0  0.99130  0.61730  0.51550  1.0000 0.0142658465
C   C37       1.0  0.00130  0.34150  0.89140  1.0000 0.0792416319
C   C38       1.0  0.65850  0.65980  0.89140  1.0000 0.0792416319
C   C39       1.0  0.34020  0.99870  0.89140  1.0000 0.0792416319
C   C40       1.0  0.34150  0.00130  0.60860  1.0000 0.0792416319
C   C41       1.0  0.65980  0.65850  0.60860  1.0000 0.0792416319
C   C42       1.0  0.99870  0.34020  0.60860  1.0000 0.0792416319
C   C43       1.0  0.99870  0.65850  0.10860  1.0000 0.0792416319
C   C44       1.0  0.34150  0.34020  0.10860  1.0000 0.0792416319
C   C45       1.0  0.65980  0.00130  0.10860  1.0000 0.0792416319
C   C46       1.0  0.65850  0.99870  0.39140  1.0000 0.0792416319
C   C47       1.0  0.34020  0.34150  0.39140  1.0000 0.0792416319
C   C48       1.0  0.00130  0.65980  0.39140  1.0000 0.0792416319
C   C49       1.0  0.90370  0.29700  0.92050  1.0000 -0.1095888034
C   C50       1.0  0.70300  0.60670  0.92050  1.0000 -0.1095888034
C   C51       1.0  0.39330  0.09630  0.92050  1.0000 -0.1095888034
C   C52       1.0  0.29700  0.90370  0.57950  1.0000 -0.1095888034
C   C53       1.0  0.60670  0.70300  0.57950  1.0000 -0.1095888034
C   C54       1.0  0.09630  0.39330  0.57950  1.0000 -0.1095888034
C   C55       1.0  0.09630  0.70300  0.07950  1.0000 -0.1095888034
C   C56       1.0  0.29700  0.39330  0.07950  1.0000 -0.1095888034
C   C57       1.0  0.60670  0.90370  0.07950  1.0000 -0.1095888034
C   C58       1.0  0.70300  0.09630  0.42050  1.0000 -0.1095888034
C   C59       1.0  0.39330  0.29700  0.42050  1.0000 -0.1095888034
C   C60       1.0  0.90370  0.60670  0.42050  1.0000 -0.1095888034
C   C61       1.0  0.89900  0.31140  0.98320  1.0000 -0.0957728789
C   C62       1.0  0.68860  0.58760  0.98320  1.0000 -0.0957728789
C   C63       1.0  0.41240  0.10100  0.98320  1.0000 -0.0957728789
C   C64       1.0  0.31140  0.89900  0.51680  1.0000 -0.0957728789
C   C65       1.0  0.58760  0.68860  0.51680  1.0000 -0.0957728789
C   C66       1.0  0.10100  0.41240  0.51680  1.0000 -0.0957728789
C   C67       1.0  0.10100  0.68860  0.01680  1.0000 -0.0957728789
C   C68       1.0  0.31140  0.41240  0.01680  1.0000 -0.0957728789
C   C69       1.0  0.58760  0.89900  0.01680  1.0000 -0.0957728789
C   C70       1.0  0.68860  0.10100  0.48320  1.0000 -0.0957728789
C   C71       1.0  0.41240  0.31140  0.48320  1.0000 -0.0957728789
C   C72       1.0  0.89900  0.58760  0.48320  1.0000 -0.0957728789
I   I1        1.0  0.71129  0.18518  0.24093  1.0000 -0.300106383
I   I2        1.0  0.81482  0.52611  0.24093  1.0000 -0.300106383
I   I3        1.0  0.47389  0.28871  0.24093  1.0000 -0.300106383
I   I4        1.0  0.18518  0.71129  0.25907  1.0000 -0.300106383
I   I5        1.0  0.52611  0.81482  0.25907  1.0000 -0.300106383
I   I6        1.0  0.28871  0.47389  0.25907  1.0000 -0.300106383
I   I7        1.0  0.28871  0.81482  0.75907  1.0000 -0.300106383
I   I8        1.0  0.18518  0.47389  0.75907  1.0000 -0.300106383
I   I9        1.0  0.52611  0.71129  0.75907  1.0000 -0.300106383
I   I10       1.0  0.81482  0.28871  0.74093  1.0000 -0.300106383
I   I11       1.0  0.47389  0.18518  0.74093  1.0000 -0.300106383
I   I12       1.0  0.71129  0.52611  0.74093  1.0000 -0.300106383
I   I13       1.0  0.66667  0.33333  0.06988  1.0000 -0.4167022274
I   I14       1.0  0.33333  0.66667  0.43012  1.0000 -0.4167022274
I   I15       1.0  0.33333  0.66667  0.93012  1.0000 -0.4167022274
I   I16       1.0  0.66667  0.33333  0.56988  1.0000 -0.4167022274
N   N1        1.0  0.95060  0.39030  0.17580  1.0000 -0.0024972249
N   N2        1.0  0.60970  0.56030  0.17580  1.0000 -0.0024972249
N   N3        1.0  0.43970  0.04940  0.17580  1.0000 -0.0024972249
N   N4        1.0  0.39030  0.95060  0.32420  1.0000 -0.005192697
N   N5        1.0  0.56030  0.60970  0.32420  1.0000 -0.0024972249
N   N6        1.0  0.04940  0.43970  0.32420  1.0000 -0.0024972249
N   N7        1.0  0.04940  0.60970  0.82420  1.0000 -0.0024972249
N   N8        1.0  0.39030  0.43970  0.82420  1.0000 -0.0024972249
N   N9        1.0  0.56030  0.95060  0.82420  1.0000 -0.0024972249
N   N10       1.0  0.60970  0.04940  0.67580  1.0000 -0.0024972249
N   N11       1.0  0.43970  0.39030  0.67580  1.0000 -0.0024972249
N   N12       1.0  0.95060  0.56030  0.67580  1.0000 -0.0024972249
N   N13       1.0  0.05250  0.45690  0.17120  1.0000 -0.0024972249
N   N14       1.0  0.54310  0.59560  0.17120  1.0000 -0.0024972249
N   N15       1.0  0.40440  0.94750  0.17120  1.0000 -0.0024972249
N   N16       1.0  0.45690  0.05250  0.32880  1.0000 -0.0024972249
N   N17       1.0  0.59560  0.54310  0.32880  1.0000 -0.0024972249
N   N18       1.0  0.94750  0.40440  0.32880  1.0000 -0.0024972249
N   N19       1.0  0.94750  0.54310  0.82880  1.0000 -0.0024972249
N   N20       1.0  0.45690  0.40440  0.82880  1.0000 -0.0024972249
N   N21       1.0  0.59560  0.05250  0.82880  1.0000 -0.0024972249
N   N22       1.0  0.54310  0.94750  0.67120  1.0000 -0.0024972249
N   N23       1.0  0.40440  0.45690  0.67120  1.0000 0.0001489223
N   N24       1.0  0.05250  0.59560  0.67120  1.0000 -0.0024972249
N   N25       1.0  0.08240  0.46060  0.11230  1.0000 -0.2728914261
N   N26       1.0  0.53940  0.62180  0.11230  1.0000 -0.2728914261
N   N27       1.0  0.37820  0.91760  0.11230  1.0000 -0.2728914261
N   N28       1.0  0.46060  0.08240  0.38770  1.0000 -0.2728914261
N   N29       1.0  0.62180  0.53940  0.38770  1.0000 -0.2728914261
N   N30       1.0  0.91760  0.37820  0.38770  1.0000 -0.2728914261
N   N31       1.0  0.91760  0.53940  0.88770  1.0000 -0.2728914261
N   N32       1.0  0.46060  0.37820  0.88770  1.0000 -0.2728914261
N   N33       1.0  0.62180  0.08240  0.88770  1.0000 -0.2728914261
N   N34       1.0  0.53940  0.91760  0.61230  1.0000 -0.2728914261
N   N35       1.0  0.37820  0.46060  0.61230  1.0000 -0.2728914261
N   N36       1.0  0.08240  0.62180  0.61230  1.0000 -0.2728914261
N   N37       1.0  0.91240  0.34820  0.12070  1.0000 -0.2156826894
N   N38       1.0  0.65180  0.56420  0.12070  1.0000 -0.2156826894
N   N39       1.0  0.43580  0.08760  0.12070  1.0000 -0.2156826894
N   N40       1.0  0.34820  0.91240  0.37930  1.0000 -0.2156826894
N   N41       1.0  0.56420  0.65180  0.37930  1.0000 -0.2156826894
N   N42       1.0  0.08760  0.43580  0.37930  1.0000 -0.2156826894
N   N43       1.0  0.08760  0.65180  0.87930  1.0000 -0.2156826894
N   N44       1.0  0.34820  0.43580  0.87930  1.0000 -0.2156826894
N   N45       1.0  0.56420  0.91240  0.87930  1.0000 -0.2156826894
N   N46       1.0  0.65180  0.08760  0.62070  1.0000 -0.2156826894
N   N47       1.0  0.43580  0.34820  0.62070  1.0000 -0.2156826894
N   N48       1.0  0.91240  0.56420  0.62070  1.0000 -0.2156826894
N   N49       1.0  0.09070  0.40560  0.92170  1.0000 -0.1846727621
N   N50       1.0  0.59440  0.68510  0.92170  1.0000 -0.1846727621
N   N51       1.0  0.31490  0.90930  0.92170  1.0000 -0.1846727621
N   N52       1.0  0.40560  0.09070  0.57830  1.0000 -0.1846727621
N   N53       1.0  0.68510  0.59440  0.57830  1.0000 -0.1846727621
N   N54       1.0  0.90930  0.31490  0.57830  1.0000 -0.1846727621
N   N55       1.0  0.90930  0.59440  0.07830  1.0000 -0.1846727621
N   N56       1.0  0.40560  0.31490  0.07830  1.0000 -0.1846727621
N   N57       1.0  0.68510  0.09070  0.07830  1.0000 -0.1846727621
N   N58       1.0  0.59440  0.90930  0.42170  1.0000 -0.1846727621
N   N59       1.0  0.31490  0.40560  0.42170  1.0000 -0.1846727621
N   N60       1.0  0.09070  0.68510  0.42170  1.0000 -0.1846727621
