# DDEC6 charges by PACMAN v1.1 (https://github.com/mtap-research/PACMAN-charge/)
data_2012[Zn][pcu]3[ASR]12
_chemical_formula_sum              "Zn24 H48 C96 N48 O56"
_cell_length_a       20.123
_cell_length_b       20.123
_cell_length_c       20.123
_cell_angle_alpha    90
_cell_angle_beta     90
_cell_angle_gamma    90

_symmetry_space_group_name_H-M    "P 1"
_symmetry_Int_Tables_number       1

loop_
  _symmetry_equiv_pos_as_xyz
  'x, y, z'

loop_
  _atom_site_type_symbol
  _atom_site_label
  _atom_site_symmetry_multiplicity
  _atom_site_fract_x
  _atom_site_fract_y
  _atom_site_fract_z
  _atom_site_occupancy
  _atom_site_charge
Zn  Zn1       1.0  0.35581  0.25061  0.23074  1.0000 0.7963257664
Zn  Zn2       1.0  0.14419  0.74939  0.73074  1.0000 0.7963257664
Zn  Zn3       1.0  0.64419  0.75061  0.26926  1.0000 0.7963257664
Zn  Zn4       1.0  0.85581  0.24939  0.76926  1.0000 0.7963257664
Zn  Zn5       1.0  0.23074  0.35581  0.25061  1.0000 0.7963257664
Zn  Zn6       1.0  0.73074  0.14419  0.74939  1.0000 0.7963257664
Zn  Zn7       1.0  0.26926  0.64419  0.75061  1.0000 0.7963257664
Zn  Zn8       1.0  0.76926  0.85581  0.24939  1.0000 0.7963257664
Zn  Zn9       1.0  0.25061  0.23074  0.35581  1.0000 0.7963257664
Zn  Zn10      1.0  0.74939  0.73074  0.14419  1.0000 0.7963257664
Zn  Zn11      1.0  0.75061  0.26926  0.64419  1.0000 0.7963257664
Zn  Zn12      1.0  0.24939  0.76926  0.85581  1.0000 0.7963257664
Zn  Zn13      1.0  0.64419  0.74939  0.76926  1.0000 0.7963257664
Zn  Zn14      1.0  0.85581  0.25061  0.26926  1.0000 0.7963257664
Zn  Zn15      1.0  0.35581  0.24939  0.73074  1.0000 0.7963257664
Zn  Zn16      1.0  0.14419  0.75061  0.23074  1.0000 0.7963257664
Zn  Zn17      1.0  0.76926  0.64419  0.74939  1.0000 0.7963257664
Zn  Zn18      1.0  0.26926  0.85581  0.25061  1.0000 0.7963257664
Zn  Zn19      1.0  0.73074  0.35581  0.24939  1.0000 0.7963257664
Zn  Zn20      1.0  0.23074  0.14419  0.75061  1.0000 0.7963257664
Zn  Zn21      1.0  0.74939  0.76926  0.64419  1.0000 0.7963257664
Zn  Zn22      1.0  0.25061  0.26926  0.85581  1.0000 0.7963257664
Zn  Zn23      1.0  0.24939  0.73074  0.35581  1.0000 0.7963257664
Zn  Zn24      1.0  0.75061  0.23074  0.14419  1.0000 0.7963257664
H   H1        1.0  0.59180  0.19730  0.12810  1.0000 0.1385659683
H   H2        1.0  0.90820  0.80270  0.62810  1.0000 0.1385659683
H   H3        1.0  0.40820  0.69730  0.37190  1.0000 0.1385659683
H   H4        1.0  0.09180  0.30270  0.87190  1.0000 0.1385659683
H   H5        1.0  0.12810  0.59180  0.19730  1.0000 0.1385659683
H   H6        1.0  0.62810  0.90820  0.80270  1.0000 0.1385659683
H   H7        1.0  0.37190  0.40820  0.69730  1.0000 0.1385659683
H   H8        1.0  0.87190  0.09180  0.30270  1.0000 0.1385659683
H   H9        1.0  0.19730  0.12810  0.59180  1.0000 0.1385659683
H   H10       1.0  0.80270  0.62810  0.90820  1.0000 0.1385659683
H   H11       1.0  0.69730  0.37190  0.40820  1.0000 0.1385659683
H   H12       1.0  0.30270  0.87190  0.09180  1.0000 0.1385659683
H   H13       1.0  0.40820  0.80270  0.87190  1.0000 0.1385659683
H   H14       1.0  0.09180  0.19730  0.37190  1.0000 0.1385659683
H   H15       1.0  0.59180  0.30270  0.62810  1.0000 0.1385659683
H   H16       1.0  0.90820  0.69730  0.12810  1.0000 0.1385659683
H   H17       1.0  0.87190  0.40820  0.80270  1.0000 0.1385659683
H   H18       1.0  0.37190  0.09180  0.19730  1.0000 0.1385659683
H   H19       1.0  0.62810  0.59180  0.30270  1.0000 0.1385659683
H   H20       1.0  0.12810  0.90820  0.69730  1.0000 0.1385659683
H   H21       1.0  0.80270  0.87190  0.40820  1.0000 0.1385659683
H   H22       1.0  0.19730  0.37190  0.09180  1.0000 0.1385659683
H   H23       1.0  0.30270  0.62810  0.59180  1.0000 0.1385659683
H   H24       1.0  0.69730  0.12810  0.90820  1.0000 0.1385659683
H   H25       1.0  0.56900  0.33910  0.26280  1.0000 0.1385659683
H   H26       1.0  0.93100  0.66090  0.76280  1.0000 0.1385659683
H   H27       1.0  0.43100  0.83910  0.23720  1.0000 0.1385659683
H   H28       1.0  0.06900  0.16090  0.73720  1.0000 0.1385659683
H   H29       1.0  0.26280  0.56900  0.33910  1.0000 0.1385659683
H   H30       1.0  0.76280  0.93100  0.66090  1.0000 0.1385659683
H   H31       1.0  0.23720  0.43100  0.83910  1.0000 0.1385659683
H   H32       1.0  0.73720  0.06900  0.16090  1.0000 0.1385659683
H   H33       1.0  0.33910  0.26280  0.56900  1.0000 0.1385659683
H   H34       1.0  0.66090  0.76280  0.93100  1.0000 0.1385659683
H   H35       1.0  0.83910  0.23720  0.43100  1.0000 0.1385659683
H   H36       1.0  0.16090  0.73720  0.06900  1.0000 0.1385659683
H   H37       1.0  0.43100  0.66090  0.73720  1.0000 0.1385659683
H   H38       1.0  0.06900  0.33910  0.23720  1.0000 0.1385659683
H   H39       1.0  0.56900  0.16090  0.76280  1.0000 0.1385659683
H   H40       1.0  0.93100  0.83910  0.26280  1.0000 0.1385659683
H   H41       1.0  0.73720  0.43100  0.66090  1.0000 0.1385659683
H   H42       1.0  0.23720  0.06900  0.33910  1.0000 0.1385659683
H   H43       1.0  0.76280  0.56900  0.16090  1.0000 0.1385659683
H   H44       1.0  0.26280  0.93100  0.83910  1.0000 0.1385659683
H   H45       1.0  0.66090  0.73720  0.43100  1.0000 0.1385659683
H   H46       1.0  0.33910  0.23720  0.06900  1.0000 0.1385659683
H   H47       1.0  0.16090  0.76280  0.56900  1.0000 0.1385659683
H   H48       1.0  0.83910  0.26280  0.93100  1.0000 0.1385659683
C   C1        1.0  0.47960  0.25000  0.19930  1.0000 0.5727338675
C   C2        1.0  0.02040  0.75000  0.69930  1.0000 0.5727338675
C   C3        1.0  0.52040  0.75000  0.30070  1.0000 0.5727338675
C   C4        1.0  0.97960  0.25000  0.80070  1.0000 0.5727338675
C   C5        1.0  0.19930  0.47960  0.25000  1.0000 0.5727338675
C   C6        1.0  0.69930  0.02040  0.75000  1.0000 0.5727338675
C   C7        1.0  0.30070  0.52040  0.75000  1.0000 0.5727338675
C   C8        1.0  0.80070  0.97960  0.25000  1.0000 0.5727338675
C   C9        1.0  0.25000  0.19930  0.47960  1.0000 0.5727338675
C   C10       1.0  0.75000  0.69930  0.02040  1.0000 0.5727338675
C   C11       1.0  0.75000  0.30070  0.52040  1.0000 0.5727338675
C   C12       1.0  0.25000  0.80070  0.97960  1.0000 0.5727338675
C   C13       1.0  0.52040  0.75000  0.80070  1.0000 0.5727338675
C   C14       1.0  0.97960  0.25000  0.30070  1.0000 0.5727338675
C   C15       1.0  0.47960  0.25000  0.69930  1.0000 0.5727338675
C   C16       1.0  0.02040  0.75000  0.19930  1.0000 0.5727338675
C   C17       1.0  0.80070  0.52040  0.75000  1.0000 0.5727338675
C   C18       1.0  0.30070  0.97960  0.25000  1.0000 0.5727338675
C   C19       1.0  0.69930  0.47960  0.25000  1.0000 0.5727338675
C   C20       1.0  0.19930  0.02040  0.75000  1.0000 0.5727338675
C   C21       1.0  0.75000  0.80070  0.52040  1.0000 0.5727338675
C   C22       1.0  0.25000  0.30070  0.97960  1.0000 0.5727338675
C   C23       1.0  0.25000  0.69930  0.47960  1.0000 0.5727338675
C   C24       1.0  0.75000  0.19930  0.02040  1.0000 0.5727338675
C   C25       1.0  0.59990  0.23180  0.15780  1.0000 0.018161491
C   C26       1.0  0.90010  0.76820  0.65780  1.0000 0.018161491
C   C27       1.0  0.40010  0.73180  0.34220  1.0000 0.018161491
C   C28       1.0  0.09990  0.26820  0.84220  1.0000 0.018161491
C   C29       1.0  0.15780  0.59990  0.23180  1.0000 0.018161491
C   C30       1.0  0.65780  0.90010  0.76820  1.0000 0.018161491
C   C31       1.0  0.34220  0.40010  0.73180  1.0000 0.018161491
C   C32       1.0  0.84220  0.09990  0.26820  1.0000 0.018161491
C   C33       1.0  0.23180  0.15780  0.59990  1.0000 0.018161491
C   C34       1.0  0.76820  0.65780  0.90010  1.0000 0.018161491
C   C35       1.0  0.73180  0.34220  0.40010  1.0000 0.018161491
C   C36       1.0  0.26820  0.84220  0.09990  1.0000 0.018161491
C   C37       1.0  0.40010  0.76820  0.84220  1.0000 0.018161491
C   C38       1.0  0.09990  0.23180  0.34220  1.0000 0.018161491
C   C39       1.0  0.59990  0.26820  0.65780  1.0000 0.018161491
C   C40       1.0  0.90010  0.73180  0.15780  1.0000 0.018161491
C   C41       1.0  0.84220  0.40010  0.76820  1.0000 0.018161491
C   C42       1.0  0.34220  0.09990  0.23180  1.0000 0.018161491
C   C43       1.0  0.65780  0.59990  0.26820  1.0000 0.018161491
C   C44       1.0  0.15780  0.90010  0.73180  1.0000 0.018161491
C   C45       1.0  0.76820  0.84220  0.40010  1.0000 0.018161491
C   C46       1.0  0.23180  0.34220  0.09990  1.0000 0.018161491
C   C47       1.0  0.26820  0.65780  0.59990  1.0000 0.018161491
C   C48       1.0  0.73180  0.15780  0.90010  1.0000 0.018161491
C   C49       1.0  0.55130  0.26340  0.19580  1.0000 -0.1134765401
C   C50       1.0  0.94870  0.73660  0.69580  1.0000 -0.1134765401
C   C51       1.0  0.44870  0.76340  0.30420  1.0000 -0.1134765401
C   C52       1.0  0.05130  0.23660  0.80420  1.0000 -0.1134765401
C   C53       1.0  0.19580  0.55130  0.26340  1.0000 -0.1134765401
C   C54       1.0  0.69580  0.94870  0.73660  1.0000 -0.1134765401
C   C55       1.0  0.30420  0.44870  0.76340  1.0000 -0.1134765401
C   C56       1.0  0.80420  0.05130  0.23660  1.0000 -0.1134765401
C   C57       1.0  0.26340  0.19580  0.55130  1.0000 -0.1134765401
C   C58       1.0  0.73660  0.69580  0.94870  1.0000 -0.1134765401
C   C59       1.0  0.76340  0.30420  0.44870  1.0000 -0.1134765401
C   C60       1.0  0.23660  0.80420  0.05130  1.0000 -0.1134765401
C   C61       1.0  0.44870  0.73660  0.80420  1.0000 -0.1134765401
C   C62       1.0  0.05130  0.26340  0.30420  1.0000 -0.1134765401
C   C63       1.0  0.55130  0.23660  0.69580  1.0000 -0.1134765401
C   C64       1.0  0.94870  0.76340  0.19580  1.0000 -0.1134765401
C   C65       1.0  0.80420  0.44870  0.73660  1.0000 -0.1134765401
C   C66       1.0  0.30420  0.05130  0.26340  1.0000 -0.1134765401
C   C67       1.0  0.69580  0.55130  0.23660  1.0000 -0.1134765401
C   C68       1.0  0.19580  0.94870  0.76340  1.0000 -0.1134765401
C   C69       1.0  0.73660  0.80420  0.44870  1.0000 -0.1134765401
C   C70       1.0  0.26340  0.30420  0.05130  1.0000 -0.1134765401
C   C71       1.0  0.23660  0.69580  0.55130  1.0000 -0.1134765401
C   C72       1.0  0.76340  0.19580  0.94870  1.0000 -0.1134765401
C   C73       1.0  0.58720  0.31000  0.23190  1.0000 0.018161491
C   C74       1.0  0.91280  0.69000  0.73190  1.0000 0.018161491
C   C75       1.0  0.41280  0.81000  0.26810  1.0000 0.018161491
C   C76       1.0  0.08720  0.19000  0.76810  1.0000 0.018161491
C   C77       1.0  0.23190  0.58720  0.31000  1.0000 0.018161491
C   C78       1.0  0.73190  0.91280  0.69000  1.0000 0.018161491
C   C79       1.0  0.26810  0.41280  0.81000  1.0000 0.018161491
C   C80       1.0  0.76810  0.08720  0.19000  1.0000 0.018161491
C   C81       1.0  0.31000  0.23190  0.58720  1.0000 0.018161491
C   C82       1.0  0.69000  0.73190  0.91280  1.0000 0.018161491
C   C83       1.0  0.81000  0.26810  0.41280  1.0000 0.018161491
C   C84       1.0  0.19000  0.76810  0.08720  1.0000 0.018161491
C   C85       1.0  0.41280  0.69000  0.76810  1.0000 0.018161491
C   C86       1.0  0.08720  0.31000  0.26810  1.0000 0.018161491
C   C87       1.0  0.58720  0.19000  0.73190  1.0000 0.018161491
C   C88       1.0  0.91280  0.81000  0.23190  1.0000 0.018161491
C   C89       1.0  0.76810  0.41280  0.69000  1.0000 0.018161491
C   C90       1.0  0.26810  0.08720  0.31000  1.0000 0.018161491
C   C91       1.0  0.73190  0.58720  0.19000  1.0000 0.018161491
C   C92       1.0  0.23190  0.91280  0.81000  1.0000 0.018161491
C   C93       1.0  0.69000  0.76810  0.41280  1.0000 0.018161491
C   C94       1.0  0.31000  0.26810  0.08720  1.0000 0.018161491
C   C95       1.0  0.19000  0.73190  0.58720  1.0000 0.018161491
C   C96       1.0  0.81000  0.23190  0.91280  1.0000 0.018161491
N   N1        1.0  0.65100  0.30700  0.21610  1.0000 -0.1717277943
N   N2        1.0  0.84900  0.69300  0.71610  1.0000 -0.1717277943
N   N3        1.0  0.34900  0.80700  0.28390  1.0000 -0.1717277943
N   N4        1.0  0.15100  0.19300  0.78390  1.0000 -0.1717277943
N   N5        1.0  0.21610  0.65100  0.30700  1.0000 -0.1717277943
N   N6        1.0  0.71610  0.84900  0.69300  1.0000 -0.1717277943
N   N7        1.0  0.28390  0.34900  0.80700  1.0000 -0.1717277943
N   N8        1.0  0.78390  0.15100  0.19300  1.0000 -0.1717277943
N   N9        1.0  0.30700  0.21610  0.65100  1.0000 -0.1717277943
N   N10       1.0  0.69300  0.71610  0.84900  1.0000 -0.1717277943
N   N11       1.0  0.80700  0.28390  0.34900  1.0000 -0.1717277943
N   N12       1.0  0.19300  0.78390  0.15100  1.0000 -0.1717277943
N   N13       1.0  0.34900  0.69300  0.78390  1.0000 -0.1717277943
N   N14       1.0  0.15100  0.30700  0.28390  1.0000 -0.1717277943
N   N15       1.0  0.65100  0.19300  0.71610  1.0000 -0.1717277943
N   N16       1.0  0.84900  0.80700  0.21610  1.0000 -0.1717277943
N   N17       1.0  0.78390  0.34900  0.69300  1.0000 -0.1717277943
N   N18       1.0  0.28390  0.15100  0.30700  1.0000 -0.1717277943
N   N19       1.0  0.71610  0.65100  0.19300  1.0000 -0.1717277943
N   N20       1.0  0.21610  0.84900  0.80700  1.0000 -0.1717277943
N   N21       1.0  0.69300  0.78390  0.34900  1.0000 -0.1717277943
N   N22       1.0  0.30700  0.28390  0.15100  1.0000 -0.1717277943
N   N23       1.0  0.19300  0.71610  0.65100  1.0000 -0.1717277943
N   N24       1.0  0.80700  0.21610  0.84900  1.0000 -0.1717277943
N   N25       1.0  0.65900  0.25760  0.16980  1.0000 -0.1717277943
N   N26       1.0  0.84100  0.74240  0.66980  1.0000 -0.1717277943
N   N27       1.0  0.34100  0.75760  0.33020  1.0000 -0.1717277943
N   N28       1.0  0.15900  0.24240  0.83020  1.0000 -0.1717277943
N   N29       1.0  0.16980  0.65900  0.25760  1.0000 -0.1717277943
N   N30       1.0  0.66980  0.84100  0.74240  1.0000 -0.1717277943
N   N31       1.0  0.33020  0.34100  0.75760  1.0000 -0.1717277943
N   N32       1.0  0.83020  0.15900  0.24240  1.0000 -0.1717277943
N   N33       1.0  0.25760  0.16980  0.65900  1.0000 -0.1717277943
N   N34       1.0  0.74240  0.66980  0.84100  1.0000 -0.1717277943
N   N35       1.0  0.75760  0.33020  0.34100  1.0000 -0.1717277943
N   N36       1.0  0.24240  0.83020  0.15900  1.0000 -0.1717277943
N   N37       1.0  0.34100  0.74240  0.83020  1.0000 -0.1717277943
N   N38       1.0  0.15900  0.25760  0.33020  1.0000 -0.1717277943
N   N39       1.0  0.65900  0.24240  0.66980  1.0000 -0.1717277943
N   N40       1.0  0.84100  0.75760  0.16980  1.0000 -0.1717277943
N   N41       1.0  0.83020  0.34100  0.74240  1.0000 -0.1717277943
N   N42       1.0  0.33020  0.15900  0.25760  1.0000 -0.1717277943
N   N43       1.0  0.66980  0.65900  0.24240  1.0000 -0.1717277943
N   N44       1.0  0.16980  0.84100  0.75760  1.0000 -0.1717277943
N   N45       1.0  0.74240  0.83020  0.34100  1.0000 -0.1717277943
N   N46       1.0  0.25760  0.33020  0.15900  1.0000 -0.1717277943
N   N47       1.0  0.24240  0.66980  0.65900  1.0000 -0.1717277943
N   N48       1.0  0.75760  0.16980  0.84100  1.0000 -0.1717277943
O   O1        1.0  0.30003  0.30003  0.30003  1.0000 -0.7914834089
O   O2        1.0  0.19997  0.69997  0.80003  1.0000 -0.7914834089
O   O3        1.0  0.69997  0.80003  0.19997  1.0000 -0.7914834089
O   O4        1.0  0.80003  0.19997  0.69997  1.0000 -0.7914834089
O   O5        1.0  0.69997  0.69997  0.69997  1.0000 -0.7914834089
O   O6        1.0  0.80003  0.30003  0.19997  1.0000 -0.7914834089
O   O7        1.0  0.30003  0.19997  0.80003  1.0000 -0.7914834089
O   O8        1.0  0.19997  0.80003  0.30003  1.0000 -0.7914834089
O   O9        1.0  0.44670  0.28270  0.24230  1.0000 -0.4941938511
O   O10       1.0  0.05330  0.71730  0.74230  1.0000 -0.4941938511
O   O11       1.0  0.55330  0.78270  0.25770  1.0000 -0.4941938511
O   O12       1.0  0.94670  0.21730  0.75770  1.0000 -0.4941938511
O   O13       1.0  0.24230  0.44670  0.28270  1.0000 -0.4941938511
O   O14       1.0  0.74230  0.05330  0.71730  1.0000 -0.4941938511
O   O15       1.0  0.25770  0.55330  0.78270  1.0000 -0.4941938511
O   O16       1.0  0.75770  0.94670  0.21730  1.0000 -0.4941938511
O   O17       1.0  0.28270  0.24230  0.44670  1.0000 -0.4941938511
O   O18       1.0  0.71730  0.74230  0.05330  1.0000 -0.4941938511
O   O19       1.0  0.78270  0.25770  0.55330  1.0000 -0.4941938511
O   O20       1.0  0.21730  0.75770  0.94670  1.0000 -0.4941938511
O   O21       1.0  0.55330  0.71730  0.75770  1.0000 -0.4941938511
O   O22       1.0  0.94670  0.28270  0.25770  1.0000 -0.4941938511
O   O23       1.0  0.44670  0.21730  0.74230  1.0000 -0.4941938511
O   O24       1.0  0.05330  0.78270  0.24230  1.0000 -0.4941938511
O   O25       1.0  0.75770  0.55330  0.71730  1.0000 -0.4941938511
O   O26       1.0  0.25770  0.94670  0.28270  1.0000 -0.4941938511
O   O27       1.0  0.74230  0.44670  0.21730  1.0000 -0.4941938511
O   O28       1.0  0.24230  0.05330  0.78270  1.0000 -0.4941938511
O   O29       1.0  0.71730  0.75770  0.55330  1.0000 -0.4941938511
O   O30       1.0  0.28270  0.25770  0.94670  1.0000 -0.4941938511
O   O31       1.0  0.21730  0.74230  0.44670  1.0000 -0.4941938511
O   O32       1.0  0.78270  0.24230  0.05330  1.0000 -0.4941938511
O   O33       1.0  0.45320  0.20720  0.16380  1.0000 -0.4675607698
O   O34       1.0  0.04680  0.79280  0.66380  1.0000 -0.4675607698
O   O35       1.0  0.54680  0.70720  0.33620  1.0000 -0.4675607698
O   O36       1.0  0.95320  0.29280  0.83620  1.0000 -0.4675607698
O   O37       1.0  0.16380  0.45320  0.20720  1.0000 -0.4675607698
O   O38       1.0  0.66380  0.04680  0.79280  1.0000 -0.4675607698
O   O39       1.0  0.33620  0.54680  0.70720  1.0000 -0.4675607698
O   O40       1.0  0.83620  0.95320  0.29280  1.0000 -0.4675607698
O   O41       1.0  0.20720  0.16380  0.45320  1.0000 -0.4675607698
O   O42       1.0  0.79280  0.66380  0.04680  1.0000 -0.4675607698
O   O43       1.0  0.70720  0.33620  0.54680  1.0000 -0.4675607698
O   O44       1.0  0.29280  0.83620  0.95320  1.0000 -0.4675607698
O   O45       1.0  0.54680  0.79280  0.83620  1.0000 -0.4675607698
O   O46       1.0  0.95320  0.20720  0.33620  1.0000 -0.4675607698
O   O47       1.0  0.45320  0.29280  0.66380  1.0000 -0.4675607698
O   O48       1.0  0.04680  0.70720  0.16380  1.0000 -0.4675607698
O   O49       1.0  0.83620  0.54680  0.79280  1.0000 -0.4675607698
O   O50       1.0  0.33620  0.95320  0.20720  1.0000 -0.4675607698
O   O51       1.0  0.66380  0.45320  0.29280  1.0000 -0.4675607698
O   O52       1.0  0.16380  0.04680  0.70720  1.0000 -0.4675607698
O   O53       1.0  0.79280  0.83620  0.54680  1.0000 -0.4675607698
O   O54       1.0  0.20720  0.33620  0.95320  1.0000 -0.4675607698
O   O55       1.0  0.29280  0.66380  0.45320  1.0000 -0.4675607698
O   O56       1.0  0.70720  0.16380  0.04680  1.0000 -0.4675607698
