# DDEC6 charges by PACMAN v1.1 (https://github.com/mtap-research/PACMAN-charge/)
data_2012[Co][msq]3[ASR]1
_chemical_formula_sum              "Co30 H120 C312 N24 O104"
_cell_length_a       30.163
_cell_length_b       30.163
_cell_length_c       15.484
_cell_angle_alpha    90
_cell_angle_beta     90
_cell_angle_gamma    90

_symmetry_space_group_name_H-M    "P 1"
_symmetry_Int_Tables_number       1

loop_
  _symmetry_equiv_pos_as_xyz
  'x, y, z'

loop_
  _atom_site_type_symbol
  _atom_site_label
  _atom_site_symmetry_multiplicity
  _atom_site_fract_x
  _atom_site_fract_y
  _atom_site_fract_z
  _atom_site_occupancy
  _atom_site_charge
Co  Co1       1.0  0.00000  0.50000  0.00000  1.0000 0.5965358376
Co  Co2       1.0  0.50000  0.00000  0.00000  1.0000 0.5965358376
Co  Co3       1.0  0.01704  0.24720  0.37749  1.0000 1.0336066934
Co  Co4       1.0  0.98296  0.75280  0.37749  1.0000 1.0336066934
Co  Co5       1.0  0.24720  0.98296  0.37749  1.0000 1.0336066934
Co  Co6       1.0  0.75280  0.01704  0.37749  1.0000 1.0336066934
Co  Co7       1.0  0.51704  0.25280  0.62251  1.0000 1.0355792128
Co  Co8       1.0  0.48296  0.74720  0.62251  1.0000 1.0336066934
Co  Co9       1.0  0.74720  0.51704  0.62251  1.0000 1.0336066934
Co  Co10      1.0  0.25280  0.48296  0.62251  1.0000 1.0355792128
Co  Co11      1.0  0.98296  0.75280  0.62251  1.0000 1.0336066934
Co  Co12      1.0  0.01704  0.24720  0.62251  1.0000 1.0336066934
Co  Co13      1.0  0.75280  0.01704  0.62251  1.0000 1.0355792128
Co  Co14      1.0  0.24720  0.98296  0.62251  1.0000 1.0336066934
Co  Co15      1.0  0.48296  0.74720  0.37749  1.0000 1.0336066934
Co  Co16      1.0  0.51704  0.25280  0.37749  1.0000 1.0336066934
Co  Co17      1.0  0.25280  0.48296  0.37749  1.0000 1.0336066934
Co  Co18      1.0  0.74720  0.51704  0.37749  1.0000 1.0336066934
Co  Co19      1.0  0.01030  0.16133  0.50000  1.0000 1.0728675806
Co  Co20      1.0  0.98970  0.83867  0.50000  1.0000 1.0728675806
Co  Co21      1.0  0.16133  0.98970  0.50000  1.0000 1.0728675806
Co  Co22      1.0  0.83867  0.01030  0.50000  1.0000 1.0728675806
Co  Co23      1.0  0.51030  0.33867  0.50000  1.0000 1.0728675806
Co  Co24      1.0  0.48970  0.66133  0.50000  1.0000 1.0728675806
Co  Co25      1.0  0.66133  0.51030  0.50000  1.0000 1.0728675806
Co  Co26      1.0  0.33867  0.48970  0.50000  1.0000 1.0728675806
Co  Co27      1.0  0.75943  0.25943  0.00000  1.0000 0.6628180676
Co  Co28      1.0  0.24057  0.74057  0.00000  1.0000 0.6628180676
Co  Co29      1.0  0.25943  0.24057  0.00000  1.0000 0.6628180676
Co  Co30      1.0  0.74057  0.75943  0.00000  1.0000 0.6628180676
H   H1        1.0  0.11600  0.38400  0.07950  1.0000 0.1240047252
H   H2        1.0  0.88400  0.61600  0.07950  1.0000 0.1240047252
H   H3        1.0  0.38400  0.88400  0.07950  1.0000 0.1240047252
H   H4        1.0  0.61600  0.11600  0.07950  1.0000 0.1240047252
H   H5        1.0  0.61600  0.11600  0.92050  1.0000 0.1240047252
H   H6        1.0  0.38400  0.88400  0.92050  1.0000 0.1240047252
H   H7        1.0  0.88400  0.61600  0.92050  1.0000 0.1240047252
H   H8        1.0  0.11600  0.38400  0.92050  1.0000 0.1240047252
H   H9        1.0  0.02930  0.47070  0.32290  1.0000 0.1240047252
H   H10       1.0  0.97070  0.52930  0.32290  1.0000 0.1240047252
H   H11       1.0  0.47070  0.97070  0.32290  1.0000 0.1240047252
H   H12       1.0  0.52930  0.02930  0.32290  1.0000 0.1240047252
H   H13       1.0  0.52930  0.02930  0.67710  1.0000 0.1240047252
H   H14       1.0  0.47070  0.97070  0.67710  1.0000 0.1240047252
H   H15       1.0  0.97070  0.52930  0.67710  1.0000 0.1240047252
H   H16       1.0  0.02930  0.47070  0.67710  1.0000 0.1240047252
H   H17       1.0  0.03670  0.36950  0.23780  1.0000 0.130117777
H   H18       1.0  0.96330  0.63050  0.23780  1.0000 0.130117777
H   H19       1.0  0.36950  0.96330  0.23780  1.0000 0.130117777
H   H20       1.0  0.63050  0.03670  0.23780  1.0000 0.130117777
H   H21       1.0  0.53670  0.13050  0.76220  1.0000 0.130117777
H   H22       1.0  0.46330  0.86950  0.76220  1.0000 0.130117777
H   H23       1.0  0.86950  0.53670  0.76220  1.0000 0.130117777
H   H24       1.0  0.13050  0.46330  0.76220  1.0000 0.130117777
H   H25       1.0  0.96330  0.63050  0.76220  1.0000 0.130117777
H   H26       1.0  0.03670  0.36950  0.76220  1.0000 0.130117777
H   H27       1.0  0.63050  0.03670  0.76220  1.0000 0.130117777
H   H28       1.0  0.36950  0.96330  0.76220  1.0000 0.130117777
H   H29       1.0  0.46330  0.86950  0.23780  1.0000 0.130117777
H   H30       1.0  0.53670  0.13050  0.23780  1.0000 0.130117777
H   H31       1.0  0.13050  0.46330  0.23780  1.0000 0.130117777
H   H32       1.0  0.86950  0.53670  0.23780  1.0000 0.130117777
H   H33       1.0  0.13630  0.36370  0.40580  1.0000 0.1423492088
H   H34       1.0  0.86370  0.63630  0.40580  1.0000 0.1423492088
H   H35       1.0  0.36370  0.86370  0.40580  1.0000 0.1423492088
H   H36       1.0  0.63630  0.13630  0.40580  1.0000 0.1423492088
H   H37       1.0  0.63630  0.13630  0.59420  1.0000 0.1423492088
H   H38       1.0  0.36370  0.86370  0.59420  1.0000 0.1423492088
H   H39       1.0  0.86370  0.63630  0.59420  1.0000 0.1423492088
H   H40       1.0  0.13630  0.36370  0.59420  1.0000 0.1423492088
H   H41       1.0  0.90090  0.11760  0.39450  1.0000 0.1423492088
H   H42       1.0  0.09910  0.88240  0.39450  1.0000 0.1479944222
H   H43       1.0  0.11760  0.09910  0.39450  1.0000 0.1479944222
H   H44       1.0  0.88240  0.90090  0.39450  1.0000 0.1423492088
H   H45       1.0  0.40090  0.38240  0.60550  1.0000 0.1479944222
H   H46       1.0  0.59910  0.61760  0.60550  1.0000 0.1479944222
H   H47       1.0  0.61760  0.40090  0.60550  1.0000 0.1479944222
H   H48       1.0  0.38240  0.59910  0.60550  1.0000 0.1479944222
H   H49       1.0  0.09910  0.88240  0.60550  1.0000 0.1479944222
H   H50       1.0  0.90090  0.11760  0.60550  1.0000 0.1423492088
H   H51       1.0  0.88240  0.90090  0.60550  1.0000 0.1423492088
H   H52       1.0  0.11760  0.09910  0.60550  1.0000 0.1479944222
H   H53       1.0  0.59910  0.61760  0.39450  1.0000 0.1479944222
H   H54       1.0  0.40090  0.38240  0.39450  1.0000 0.1423492088
H   H55       1.0  0.38240  0.59910  0.39450  1.0000 0.1479944222
H   H56       1.0  0.61760  0.40090  0.39450  1.0000 0.1423492088
H   H57       1.0  0.79590  0.13030  0.23400  1.0000 0.130117777
H   H58       1.0  0.20410  0.86970  0.23400  1.0000 0.130117777
H   H59       1.0  0.13030  0.20410  0.23400  1.0000 0.130117777
H   H60       1.0  0.86970  0.79590  0.23400  1.0000 0.130117777
H   H61       1.0  0.29590  0.36970  0.76600  1.0000 0.130117777
H   H62       1.0  0.70410  0.63030  0.76600  1.0000 0.130117777
H   H63       1.0  0.63030  0.29590  0.76600  1.0000 0.130117777
H   H64       1.0  0.36970  0.70410  0.76600  1.0000 0.130117777
H   H65       1.0  0.20410  0.86970  0.76600  1.0000 0.130117777
H   H66       1.0  0.79590  0.13030  0.76600  1.0000 0.130117777
H   H67       1.0  0.86970  0.79590  0.76600  1.0000 0.130117777
H   H68       1.0  0.13030  0.20410  0.76600  1.0000 0.130117777
H   H69       1.0  0.70410  0.63030  0.23400  1.0000 0.130117777
H   H70       1.0  0.29590  0.36970  0.23400  1.0000 0.130117777
H   H71       1.0  0.36970  0.70410  0.23400  1.0000 0.130117777
H   H72       1.0  0.63030  0.29590  0.23400  1.0000 0.130117777
H   H73       1.0  0.89250  0.22150  0.23540  1.0000 0.130117777
H   H74       1.0  0.10750  0.77850  0.23540  1.0000 0.130117777
H   H75       1.0  0.22150  0.10750  0.23540  1.0000 0.130117777
H   H76       1.0  0.77850  0.89250  0.23540  1.0000 0.130117777
H   H77       1.0  0.39250  0.27850  0.76460  1.0000 0.130117777
H   H78       1.0  0.60750  0.72150  0.76460  1.0000 0.130117777
H   H79       1.0  0.72150  0.39250  0.76460  1.0000 0.130117777
H   H80       1.0  0.27850  0.60750  0.76460  1.0000 0.130117777
H   H81       1.0  0.10750  0.77850  0.76460  1.0000 0.130117777
H   H82       1.0  0.89250  0.22150  0.76460  1.0000 0.130117777
H   H83       1.0  0.77850  0.89250  0.76460  1.0000 0.130117777
H   H84       1.0  0.22150  0.10750  0.76460  1.0000 0.130117777
H   H85       1.0  0.60750  0.72150  0.23540  1.0000 0.130117777
H   H86       1.0  0.39250  0.27850  0.23540  1.0000 0.130117777
H   H87       1.0  0.27850  0.60750  0.23540  1.0000 0.130117777
H   H88       1.0  0.72150  0.39250  0.23540  1.0000 0.130117777
H   H89       1.0  0.79300  0.23430  0.31830  1.0000 0.130117777
H   H90       1.0  0.20700  0.76570  0.31830  1.0000 0.130117777
H   H91       1.0  0.23430  0.20700  0.31830  1.0000 0.130117777
H   H92       1.0  0.76570  0.79300  0.31830  1.0000 0.130117777
H   H93       1.0  0.29300  0.26570  0.68170  1.0000 0.130117777
H   H94       1.0  0.70700  0.73430  0.68170  1.0000 0.130117777
H   H95       1.0  0.73430  0.29300  0.68170  1.0000 0.130117777
H   H96       1.0  0.26570  0.70700  0.68170  1.0000 0.130117777
H   H97       1.0  0.20700  0.76570  0.68170  1.0000 0.130117777
H   H98       1.0  0.79300  0.23430  0.68170  1.0000 0.130117777
H   H99       1.0  0.76570  0.79300  0.68170  1.0000 0.130117777
H   H100      1.0  0.23430  0.20700  0.68170  1.0000 0.130117777
H   H101      1.0  0.70700  0.73430  0.31830  1.0000 0.130117777
H   H102      1.0  0.29300  0.26570  0.31830  1.0000 0.130117777
H   H103      1.0  0.26570  0.70700  0.31830  1.0000 0.130117777
H   H104      1.0  0.73430  0.29300  0.31830  1.0000 0.130117777
H   H105      1.0  0.87420  0.14310  0.08040  1.0000 0.130117777
H   H106      1.0  0.12580  0.85690  0.08040  1.0000 0.130117777
H   H107      1.0  0.14310  0.12580  0.08040  1.0000 0.130117777
H   H108      1.0  0.85690  0.87420  0.08040  1.0000 0.130117777
H   H109      1.0  0.37420  0.35690  0.91960  1.0000 0.130117777
H   H110      1.0  0.62580  0.64310  0.91960  1.0000 0.130117777
H   H111      1.0  0.64310  0.37420  0.91960  1.0000 0.130117777
H   H112      1.0  0.35690  0.62580  0.91960  1.0000 0.130117777
H   H113      1.0  0.12580  0.85690  0.91960  1.0000 0.130117777
H   H114      1.0  0.87420  0.14310  0.91960  1.0000 0.130117777
H   H115      1.0  0.85690  0.87420  0.91960  1.0000 0.130117777
H   H116      1.0  0.14310  0.12580  0.91960  1.0000 0.130117777
H   H117      1.0  0.62580  0.64310  0.08040  1.0000 0.130117777
H   H118      1.0  0.37420  0.35690  0.08040  1.0000 0.130117777
H   H119      1.0  0.35690  0.62580  0.08040  1.0000 0.130117777
H   H120      1.0  0.64310  0.37420  0.08040  1.0000 0.130117777
C   C1        1.0  0.09800  0.40200  0.04330  1.0000 -0.1721640184
C   C2        1.0  0.90200  0.59800  0.04330  1.0000 -0.1721640184
C   C3        1.0  0.40200  0.90200  0.04330  1.0000 -0.1721640184
C   C4        1.0  0.59800  0.09800  0.04330  1.0000 -0.1721640184
C   C5        1.0  0.59800  0.09800  0.95670  1.0000 -0.1721640184
C   C6        1.0  0.40200  0.90200  0.95670  1.0000 -0.1721640184
C   C7        1.0  0.90200  0.59800  0.95670  1.0000 -0.1721640184
C   C8        1.0  0.09800  0.40200  0.95670  1.0000 -0.1721640184
C   C9        1.0  0.06610  0.43390  0.07140  1.0000 0.1479944222
C   C10       1.0  0.93390  0.56610  0.07140  1.0000 0.1479944222
C   C11       1.0  0.43390  0.93390  0.07140  1.0000 0.1479944222
C   C12       1.0  0.56610  0.06610  0.07140  1.0000 0.1479944222
C   C13       1.0  0.56610  0.06610  0.92860  1.0000 0.1479944222
C   C14       1.0  0.43390  0.93390  0.92860  1.0000 0.1479944222
C   C15       1.0  0.93390  0.56610  0.92860  1.0000 0.1479944222
C   C16       1.0  0.06610  0.43390  0.92860  1.0000 0.1479944222
C   C17       1.0  0.05730  0.44270  0.15710  1.0000 -0.0804588725
C   C18       1.0  0.94270  0.55730  0.15710  1.0000 -0.0804588725
C   C19       1.0  0.44270  0.94270  0.15710  1.0000 -0.0804588725
C   C20       1.0  0.55730  0.05730  0.15710  1.0000 -0.0804588725
C   C21       1.0  0.55730  0.05730  0.84290  1.0000 -0.0804588725
C   C22       1.0  0.44270  0.94270  0.84290  1.0000 -0.0804588725
C   C23       1.0  0.94270  0.55730  0.84290  1.0000 -0.0804588725
C   C24       1.0  0.05730  0.44270  0.84290  1.0000 -0.0804588725
C   C25       1.0  0.02580  0.47420  0.18330  1.0000 0.1647115581
C   C26       1.0  0.97420  0.52580  0.18330  1.0000 0.1647115581
C   C27       1.0  0.47420  0.97420  0.18330  1.0000 0.1647115581
C   C28       1.0  0.52580  0.02580  0.18330  1.0000 0.1711716834
C   C29       1.0  0.52580  0.02580  0.81670  1.0000 0.1711716834
C   C30       1.0  0.47420  0.97420  0.81670  1.0000 0.1711716834
C   C31       1.0  0.97420  0.52580  0.81670  1.0000 0.1711716834
C   C32       1.0  0.02580  0.47420  0.81670  1.0000 0.1711716834
C   C33       1.0  0.01600  0.48400  0.27370  1.0000 -0.1830900761
C   C34       1.0  0.98400  0.51600  0.27370  1.0000 -0.1830900761
C   C35       1.0  0.48400  0.98400  0.27370  1.0000 -0.1830900761
C   C36       1.0  0.51600  0.01600  0.27370  1.0000 -0.1830900761
C   C37       1.0  0.51600  0.01600  0.72630  1.0000 -0.1830900761
C   C38       1.0  0.48400  0.98400  0.72630  1.0000 -0.1830900761
C   C39       1.0  0.98400  0.51600  0.72630  1.0000 -0.1830900761
C   C40       1.0  0.01600  0.48400  0.72630  1.0000 -0.1830900761
C   C41       1.0  0.08210  0.41790  0.22290  1.0000 0.0679906773
C   C42       1.0  0.91790  0.58210  0.22290  1.0000 0.0679906773
C   C43       1.0  0.41790  0.91790  0.22290  1.0000 0.0679906773
C   C44       1.0  0.58210  0.08210  0.22290  1.0000 0.0679906773
C   C45       1.0  0.58210  0.08210  0.77710  1.0000 0.0679906773
C   C46       1.0  0.41790  0.91790  0.77710  1.0000 0.0679906773
C   C47       1.0  0.91790  0.58210  0.77710  1.0000 0.0679906773
C   C48       1.0  0.08210  0.41790  0.77710  1.0000 0.0679906773
C   C49       1.0  0.06410  0.38070  0.25910  1.0000 -0.1299391493
C   C50       1.0  0.93590  0.61930  0.25910  1.0000 -0.1299391493
C   C51       1.0  0.38070  0.93590  0.25910  1.0000 -0.1299391493
C   C52       1.0  0.61930  0.06410  0.25910  1.0000 -0.1299391493
C   C53       1.0  0.56410  0.11930  0.74090  1.0000 -0.1299391493
C   C54       1.0  0.43590  0.88070  0.74090  1.0000 -0.1299391493
C   C55       1.0  0.88070  0.56410  0.74090  1.0000 -0.1299391493
C   C56       1.0  0.11930  0.43590  0.74090  1.0000 -0.1299391493
C   C57       1.0  0.93590  0.61930  0.74090  1.0000 -0.1299391493
C   C58       1.0  0.06410  0.38070  0.74090  1.0000 -0.1299391493
C   C59       1.0  0.61930  0.06410  0.74090  1.0000 -0.1299391493
C   C60       1.0  0.38070  0.93590  0.74090  1.0000 -0.1299391493
C   C61       1.0  0.43590  0.88070  0.25910  1.0000 -0.1299391493
C   C62       1.0  0.56410  0.11930  0.25910  1.0000 -0.1299391493
C   C63       1.0  0.11930  0.43590  0.25910  1.0000 -0.1299391493
C   C64       1.0  0.88070  0.56410  0.25910  1.0000 -0.1299391493
C   C65       1.0  0.08450  0.35960  0.32420  1.0000 0.0049283741
C   C66       1.0  0.91550  0.64040  0.32420  1.0000 0.0049283741
C   C67       1.0  0.35960  0.91550  0.32420  1.0000 0.0049283741
C   C68       1.0  0.64040  0.08450  0.32420  1.0000 0.0058819978
C   C69       1.0  0.58450  0.14040  0.67580  1.0000 0.0058819978
C   C70       1.0  0.41550  0.85960  0.67580  1.0000 0.0058819978
C   C71       1.0  0.85960  0.58450  0.67580  1.0000 0.0058819978
C   C72       1.0  0.14040  0.41550  0.67580  1.0000 0.0058819978
C   C73       1.0  0.91550  0.64040  0.67580  1.0000 0.0058819978
C   C74       1.0  0.08450  0.35960  0.67580  1.0000 0.0058819978
C   C75       1.0  0.64040  0.08450  0.67580  1.0000 0.0058819978
C   C76       1.0  0.35960  0.91550  0.67580  1.0000 0.0058819978
C   C77       1.0  0.41550  0.85960  0.32420  1.0000 0.0049283741
C   C78       1.0  0.58450  0.14040  0.32420  1.0000 0.0049283741
C   C79       1.0  0.14040  0.41550  0.32420  1.0000 0.0049283741
C   C80       1.0  0.85960  0.58450  0.32420  1.0000 0.0049283741
C   C81       1.0  0.12240  0.37760  0.35810  1.0000 -0.1369102589
C   C82       1.0  0.87760  0.62240  0.35810  1.0000 -0.1369102589
C   C83       1.0  0.37760  0.87760  0.35810  1.0000 -0.1369102589
C   C84       1.0  0.62240  0.12240  0.35810  1.0000 -0.1369102589
C   C85       1.0  0.62240  0.12240  0.64190  1.0000 -0.1369102589
C   C86       1.0  0.37760  0.87760  0.64190  1.0000 -0.1369102589
C   C87       1.0  0.87760  0.62240  0.64190  1.0000 -0.1369102589
C   C88       1.0  0.12240  0.37760  0.64190  1.0000 -0.1369102589
C   C89       1.0  0.06590  0.31650  0.35980  1.0000 0.5264892958
C   C90       1.0  0.93410  0.68350  0.35980  1.0000 0.5264892958
C   C91       1.0  0.31650  0.93410  0.35980  1.0000 0.5264892958
C   C92       1.0  0.68350  0.06590  0.35980  1.0000 0.5264892958
C   C93       1.0  0.56590  0.18350  0.64020  1.0000 0.5264892958
C   C94       1.0  0.43410  0.81650  0.64020  1.0000 0.5264892958
C   C95       1.0  0.81650  0.56590  0.64020  1.0000 0.5264892958
C   C96       1.0  0.18350  0.43410  0.64020  1.0000 0.5264892958
C   C97       1.0  0.93410  0.68350  0.64020  1.0000 0.5264892958
C   C98       1.0  0.06590  0.31650  0.64020  1.0000 0.5264892958
C   C99       1.0  0.68350  0.06590  0.64020  1.0000 0.5264892958
C   C100      1.0  0.31650  0.93410  0.64020  1.0000 0.5264892958
C   C101      1.0  0.43410  0.81650  0.35980  1.0000 0.5264892958
C   C102      1.0  0.56590  0.18350  0.35980  1.0000 0.5264892958
C   C103      1.0  0.18350  0.43410  0.35980  1.0000 0.5264892958
C   C104      1.0  0.81650  0.56590  0.35980  1.0000 0.5264892958
C   C105      1.0  0.94580  0.19010  0.35400  1.0000 0.5877100454
C   C106      1.0  0.05420  0.80990  0.35400  1.0000 0.5965358376
C   C107      1.0  0.19010  0.05420  0.35400  1.0000 0.5965358376
C   C108      1.0  0.80990  0.94580  0.35400  1.0000 0.5877100454
C   C109      1.0  0.44580  0.30990  0.64600  1.0000 0.5965358376
C   C110      1.0  0.55420  0.69010  0.64600  1.0000 0.5965358376
C   C111      1.0  0.69010  0.44580  0.64600  1.0000 0.5965358376
C   C112      1.0  0.30990  0.55420  0.64600  1.0000 0.5965358376
C   C113      1.0  0.05420  0.80990  0.64600  1.0000 0.5965358376
C   C114      1.0  0.94580  0.19010  0.64600  1.0000 0.5877100454
C   C115      1.0  0.80990  0.94580  0.64600  1.0000 0.5877100454
C   C116      1.0  0.19010  0.05420  0.64600  1.0000 0.5965358376
C   C117      1.0  0.55420  0.69010  0.35400  1.0000 0.5965358376
C   C118      1.0  0.44580  0.30990  0.35400  1.0000 0.5877100454
C   C119      1.0  0.30990  0.55420  0.35400  1.0000 0.5965358376
C   C120      1.0  0.69010  0.44580  0.35400  1.0000 0.5965358376
C   C121      1.0  0.90250  0.17160  0.32040  1.0000 -0.0125421771
C   C122      1.0  0.09750  0.82840  0.32040  1.0000 -0.0125421771
C   C123      1.0  0.17160  0.09750  0.32040  1.0000 -0.0125421771
C   C124      1.0  0.82840  0.90250  0.32040  1.0000 -0.0125421771
C   C125      1.0  0.40250  0.32840  0.67960  1.0000 -0.0125421771
C   C126      1.0  0.59750  0.67160  0.67960  1.0000 -0.0125421771
C   C127      1.0  0.67160  0.40250  0.67960  1.0000 -0.0125421771
C   C128      1.0  0.32840  0.59750  0.67960  1.0000 -0.0125421771
C   C129      1.0  0.09750  0.82840  0.67960  1.0000 -0.0125421771
C   C130      1.0  0.90250  0.17160  0.67960  1.0000 -0.0125421771
C   C131      1.0  0.82840  0.90250  0.67960  1.0000 -0.0125421771
C   C132      1.0  0.17160  0.09750  0.67960  1.0000 -0.0125421771
C   C133      1.0  0.59750  0.67160  0.32040  1.0000 -0.0125421771
C   C134      1.0  0.40250  0.32840  0.32040  1.0000 -0.0125421771
C   C135      1.0  0.32840  0.59750  0.32040  1.0000 -0.0125421771
C   C136      1.0  0.67160  0.40250  0.32040  1.0000 -0.0125421771
C   C137      1.0  0.88580  0.13350  0.35050  1.0000 -0.110122041
C   C138      1.0  0.11420  0.86650  0.35050  1.0000 -0.110122041
C   C139      1.0  0.13350  0.11420  0.35050  1.0000 -0.110122041
C   C140      1.0  0.86650  0.88580  0.35050  1.0000 -0.110122041
C   C141      1.0  0.38580  0.36650  0.64950  1.0000 -0.110122041
C   C142      1.0  0.61420  0.63350  0.64950  1.0000 -0.110122041
C   C143      1.0  0.63350  0.38580  0.64950  1.0000 -0.110122041
C   C144      1.0  0.36650  0.61420  0.64950  1.0000 -0.110122041
C   C145      1.0  0.11420  0.86650  0.64950  1.0000 -0.110122041
C   C146      1.0  0.88580  0.13350  0.64950  1.0000 -0.110122041
C   C147      1.0  0.86650  0.88580  0.64950  1.0000 -0.110122041
C   C148      1.0  0.13350  0.11420  0.64950  1.0000 -0.110122041
C   C149      1.0  0.61420  0.63350  0.35050  1.0000 -0.110122041
C   C150      1.0  0.38580  0.36650  0.35050  1.0000 -0.110122041
C   C151      1.0  0.36650  0.61420  0.35050  1.0000 -0.110122041
C   C152      1.0  0.63350  0.38580  0.35050  1.0000 -0.110122041
C   C153      1.0  0.84620  0.11730  0.31700  1.0000 -0.0211585331
C   C154      1.0  0.15380  0.88270  0.31700  1.0000 -0.0211585331
C   C155      1.0  0.11730  0.15380  0.31700  1.0000 -0.0211585331
C   C156      1.0  0.88270  0.84620  0.31700  1.0000 -0.0211585331
C   C157      1.0  0.34620  0.38270  0.68300  1.0000 -0.0211585331
C   C158      1.0  0.65380  0.61730  0.68300  1.0000 -0.0211585331
C   C159      1.0  0.61730  0.34620  0.68300  1.0000 -0.0211585331
C   C160      1.0  0.38270  0.65380  0.68300  1.0000 -0.0211585331
C   C161      1.0  0.15380  0.88270  0.68300  1.0000 -0.0211585331
C   C162      1.0  0.84620  0.11730  0.68300  1.0000 -0.0211585331
C   C163      1.0  0.88270  0.84620  0.68300  1.0000 -0.0211585331
C   C164      1.0  0.11730  0.15380  0.68300  1.0000 -0.0211585331
C   C165      1.0  0.65380  0.61730  0.31700  1.0000 -0.0211585331
C   C166      1.0  0.34620  0.38270  0.31700  1.0000 -0.0211585331
C   C167      1.0  0.38270  0.65380  0.31700  1.0000 -0.0211585331
C   C168      1.0  0.61730  0.34620  0.31700  1.0000 -0.0211585331
C   C169      1.0  0.82360  0.14080  0.25480  1.0000 -0.1299391493
C   C170      1.0  0.17640  0.85920  0.25480  1.0000 -0.1299391493
C   C171      1.0  0.14080  0.17640  0.25480  1.0000 -0.1299391493
C   C172      1.0  0.85920  0.82360  0.25480  1.0000 -0.1299391493
C   C173      1.0  0.32360  0.35920  0.74520  1.0000 -0.1299391493
C   C174      1.0  0.67640  0.64080  0.74520  1.0000 -0.1299391493
C   C175      1.0  0.64080  0.32360  0.74520  1.0000 -0.1299391493
C   C176      1.0  0.35920  0.67640  0.74520  1.0000 -0.1299391493
C   C177      1.0  0.17640  0.85920  0.74520  1.0000 -0.1299391493
C   C178      1.0  0.82360  0.14080  0.74520  1.0000 -0.1299391493
C   C179      1.0  0.85920  0.82360  0.74520  1.0000 -0.1299391493
C   C180      1.0  0.14080  0.17640  0.74520  1.0000 -0.1299391493
C   C181      1.0  0.67640  0.64080  0.25480  1.0000 -0.1299391493
C   C182      1.0  0.32360  0.35920  0.25480  1.0000 -0.1299391493
C   C183      1.0  0.35920  0.67640  0.25480  1.0000 -0.1299391493
C   C184      1.0  0.64080  0.32360  0.25480  1.0000 -0.1299391493
C   C185      1.0  0.84110  0.17890  0.22350  1.0000 0.0679906773
C   C186      1.0  0.15890  0.82110  0.22350  1.0000 0.0679906773
C   C187      1.0  0.17890  0.15890  0.22350  1.0000 0.0679906773
C   C188      1.0  0.82110  0.84110  0.22350  1.0000 0.0679906773
C   C189      1.0  0.34110  0.32110  0.77650  1.0000 0.0679906773
C   C190      1.0  0.65890  0.67890  0.77650  1.0000 0.0679906773
C   C191      1.0  0.67890  0.34110  0.77650  1.0000 0.0679906773
C   C192      1.0  0.32110  0.65890  0.77650  1.0000 0.0679906773
C   C193      1.0  0.15890  0.82110  0.77650  1.0000 0.0679906773
C   C194      1.0  0.84110  0.17890  0.77650  1.0000 0.0679906773
C   C195      1.0  0.82110  0.84110  0.77650  1.0000 0.0679906773
C   C196      1.0  0.17890  0.15890  0.77650  1.0000 0.0679906773
C   C197      1.0  0.65890  0.67890  0.22350  1.0000 0.0679906773
C   C198      1.0  0.34110  0.32110  0.22350  1.0000 0.0679906773
C   C199      1.0  0.32110  0.65890  0.22350  1.0000 0.0679906773
C   C200      1.0  0.67890  0.34110  0.22350  1.0000 0.0679906773
C   C201      1.0  0.88040  0.19450  0.25670  1.0000 -0.1502064393
C   C202      1.0  0.11960  0.80550  0.25670  1.0000 -0.1502064393
C   C203      1.0  0.19450  0.11960  0.25670  1.0000 -0.1502064393
C   C204      1.0  0.80550  0.88040  0.25670  1.0000 -0.1502064393
C   C205      1.0  0.38040  0.30550  0.74330  1.0000 -0.1502064393
C   C206      1.0  0.61960  0.69450  0.74330  1.0000 -0.1502064393
C   C207      1.0  0.69450  0.38040  0.74330  1.0000 -0.1502064393
C   C208      1.0  0.30550  0.61960  0.74330  1.0000 -0.1502064393
C   C209      1.0  0.11960  0.80550  0.74330  1.0000 -0.1502064393
C   C210      1.0  0.88040  0.19450  0.74330  1.0000 -0.1502064393
C   C211      1.0  0.80550  0.88040  0.74330  1.0000 -0.1502064393
C   C212      1.0  0.19450  0.11960  0.74330  1.0000 -0.1502064393
C   C213      1.0  0.61960  0.69450  0.25670  1.0000 -0.1502064393
C   C214      1.0  0.38040  0.30550  0.25670  1.0000 -0.1502064393
C   C215      1.0  0.30550  0.61960  0.25670  1.0000 -0.1502064393
C   C216      1.0  0.69450  0.38040  0.25670  1.0000 -0.1502064393
C   C217      1.0  0.82690  0.07640  0.35460  1.0000 0.5877100454
C   C218      1.0  0.17310  0.92360  0.35460  1.0000 0.5877100454
C   C219      1.0  0.07640  0.17310  0.35460  1.0000 0.5877100454
C   C220      1.0  0.92360  0.82690  0.35460  1.0000 0.5877100454
C   C221      1.0  0.32690  0.42360  0.64540  1.0000 0.5877100454
C   C222      1.0  0.67310  0.57640  0.64540  1.0000 0.5877100454
C   C223      1.0  0.57640  0.32690  0.64540  1.0000 0.5877100454
C   C224      1.0  0.42360  0.67310  0.64540  1.0000 0.5877100454
C   C225      1.0  0.17310  0.92360  0.64540  1.0000 0.5877100454
C   C226      1.0  0.82690  0.07640  0.64540  1.0000 0.5877100454
C   C227      1.0  0.92360  0.82690  0.64540  1.0000 0.5877100454
C   C228      1.0  0.07640  0.17310  0.64540  1.0000 0.5877100454
C   C229      1.0  0.67310  0.57640  0.35460  1.0000 0.5877100454
C   C230      1.0  0.32690  0.42360  0.35460  1.0000 0.5877100454
C   C231      1.0  0.42360  0.67310  0.35460  1.0000 0.5877100454
C   C232      1.0  0.57640  0.32690  0.35460  1.0000 0.5877100454
C   C233      1.0  0.81710  0.20300  0.15700  1.0000 -0.0804588725
C   C234      1.0  0.18290  0.79700  0.15700  1.0000 -0.0804588725
C   C235      1.0  0.20300  0.18290  0.15700  1.0000 -0.0804588725
C   C236      1.0  0.79700  0.81710  0.15700  1.0000 -0.0804588725
C   C237      1.0  0.31710  0.29700  0.84300  1.0000 -0.0804588725
C   C238      1.0  0.68290  0.70300  0.84300  1.0000 -0.0804588725
C   C239      1.0  0.70300  0.31710  0.84300  1.0000 -0.0804588725
C   C240      1.0  0.29700  0.68290  0.84300  1.0000 -0.0804588725
C   C241      1.0  0.18290  0.79700  0.84300  1.0000 -0.0804588725
C   C242      1.0  0.81710  0.20300  0.84300  1.0000 -0.0804588725
C   C243      1.0  0.79700  0.81710  0.84300  1.0000 -0.0804588725
C   C244      1.0  0.20300  0.18290  0.84300  1.0000 -0.0804588725
C   C245      1.0  0.68290  0.70300  0.15700  1.0000 -0.0804588725
C   C246      1.0  0.31710  0.29700  0.15700  1.0000 -0.0804588725
C   C247      1.0  0.29700  0.68290  0.15700  1.0000 -0.0804588725
C   C248      1.0  0.70300  0.31710  0.15700  1.0000 -0.0804588725
C   C249      1.0  0.78880  0.23620  0.18160  1.0000 0.1711716834
C   C250      1.0  0.21120  0.76380  0.18160  1.0000 0.1711716834
C   C251      1.0  0.23620  0.21120  0.18160  1.0000 0.1711716834
C   C252      1.0  0.76380  0.78880  0.18160  1.0000 0.1711716834
C   C253      1.0  0.28880  0.26380  0.81840  1.0000 0.1711716834
C   C254      1.0  0.71120  0.73620  0.81840  1.0000 0.1711716834
C   C255      1.0  0.73620  0.28880  0.81840  1.0000 0.1711716834
C   C256      1.0  0.26380  0.71120  0.81840  1.0000 0.1711716834
C   C257      1.0  0.21120  0.76380  0.81840  1.0000 0.1711716834
C   C258      1.0  0.78880  0.23620  0.81840  1.0000 0.1711716834
C   C259      1.0  0.76380  0.78880  0.81840  1.0000 0.1711716834
C   C260      1.0  0.23620  0.21120  0.81840  1.0000 0.1711716834
C   C261      1.0  0.71120  0.73620  0.18160  1.0000 0.1711716834
C   C262      1.0  0.28880  0.26380  0.18160  1.0000 0.1711716834
C   C263      1.0  0.26380  0.71120  0.18160  1.0000 0.1711716834
C   C264      1.0  0.73620  0.28880  0.18160  1.0000 0.1711716834
C   C265      1.0  0.77950  0.24700  0.26880  1.0000 -0.1830900761
C   C266      1.0  0.22050  0.75300  0.26880  1.0000 -0.1913608489
C   C267      1.0  0.24700  0.22050  0.26880  1.0000 -0.1830900761
C   C268      1.0  0.75300  0.77950  0.26880  1.0000 -0.1830900761
C   C269      1.0  0.27950  0.25300  0.73120  1.0000 -0.1830900761
C   C270      1.0  0.72050  0.74700  0.73120  1.0000 -0.1830900761
C   C271      1.0  0.74700  0.27950  0.73120  1.0000 -0.1830900761
C   C272      1.0  0.25300  0.72050  0.73120  1.0000 -0.1830900761
C   C273      1.0  0.22050  0.75300  0.73120  1.0000 -0.1913608489
C   C274      1.0  0.77950  0.24700  0.73120  1.0000 -0.1830900761
C   C275      1.0  0.75300  0.77950  0.73120  1.0000 -0.1830900761
C   C276      1.0  0.24700  0.22050  0.73120  1.0000 -0.1830900761
C   C277      1.0  0.72050  0.74700  0.26880  1.0000 -0.1830900761
C   C278      1.0  0.27950  0.25300  0.26880  1.0000 -0.1830900761
C   C279      1.0  0.25300  0.72050  0.26880  1.0000 -0.1913608489
C   C280      1.0  0.74700  0.27950  0.26880  1.0000 -0.1830900761
C   C281      1.0  0.82500  0.19320  0.07230  1.0000 0.1882822735
C   C282      1.0  0.17500  0.80680  0.07230  1.0000 0.1882822735
C   C283      1.0  0.19320  0.17500  0.07230  1.0000 0.1882822735
C   C284      1.0  0.80680  0.82500  0.07230  1.0000 0.1882822735
C   C285      1.0  0.32500  0.30680  0.92770  1.0000 0.1882822735
C   C286      1.0  0.67500  0.69320  0.92770  1.0000 0.1882822735
C   C287      1.0  0.69320  0.32500  0.92770  1.0000 0.1882822735
C   C288      1.0  0.30680  0.67500  0.92770  1.0000 0.1882822735
C   C289      1.0  0.17500  0.80680  0.92770  1.0000 0.1882822735
C   C290      1.0  0.82500  0.19320  0.92770  1.0000 0.1882822735
C   C291      1.0  0.80680  0.82500  0.92770  1.0000 0.1882822735
C   C292      1.0  0.19320  0.17500  0.92770  1.0000 0.1882822735
C   C293      1.0  0.67500  0.69320  0.07230  1.0000 0.1882822735
C   C294      1.0  0.32500  0.30680  0.07230  1.0000 0.1882822735
C   C295      1.0  0.30680  0.67500  0.07230  1.0000 0.1882822735
C   C296      1.0  0.69320  0.32500  0.07230  1.0000 0.1882822735
C   C297      1.0  0.85640  0.16130  0.04430  1.0000 -0.1913608489
C   C298      1.0  0.14360  0.83870  0.04430  1.0000 -0.1913608489
C   C299      1.0  0.16130  0.14360  0.04430  1.0000 -0.1913608489
C   C300      1.0  0.83870  0.85640  0.04430  1.0000 -0.1913608489
C   C301      1.0  0.35640  0.33870  0.95570  1.0000 -0.1913608489
C   C302      1.0  0.64360  0.66130  0.95570  1.0000 -0.1913608489
C   C303      1.0  0.66130  0.35640  0.95570  1.0000 -0.1913608489
C   C304      1.0  0.33870  0.64360  0.95570  1.0000 -0.1913608489
C   C305      1.0  0.14360  0.83870  0.95570  1.0000 -0.1913608489
C   C306      1.0  0.85640  0.16130  0.95570  1.0000 -0.1913608489
C   C307      1.0  0.83870  0.85640  0.95570  1.0000 -0.1913608489
C   C308      1.0  0.16130  0.14360  0.95570  1.0000 -0.1913608489
C   C309      1.0  0.64360  0.66130  0.04430  1.0000 -0.1913608489
C   C310      1.0  0.35640  0.33870  0.04430  1.0000 -0.1913608489
C   C311      1.0  0.33870  0.64360  0.04430  1.0000 -0.1913608489
C   C312      1.0  0.66130  0.35640  0.04430  1.0000 -0.1913608489
N   N1        1.0  0.00000  0.50000  0.12310  1.0000 -0.3408765711
N   N2        1.0  0.50000  0.00000  0.12310  1.0000 -0.3408765711
N   N3        1.0  0.50000  0.00000  0.87690  1.0000 -0.3408765711
N   N4        1.0  0.00000  0.50000  0.87690  1.0000 -0.3408765711
N   N5        1.0  0.04480  0.45520  0.00000  1.0000 -0.3097711794
N   N6        1.0  0.95520  0.54480  0.00000  1.0000 -0.3097711794
N   N7        1.0  0.45520  0.95520  0.00000  1.0000 -0.3097711794
N   N8        1.0  0.54480  0.04480  0.00000  1.0000 -0.3097711794
N   N9        1.0  0.76100  0.26100  0.12590  1.0000 -0.3677935369
N   N10       1.0  0.23900  0.73900  0.12590  1.0000 -0.3677935369
N   N11       1.0  0.26100  0.23900  0.12590  1.0000 -0.3677935369
N   N12       1.0  0.73900  0.76100  0.12590  1.0000 -0.3677935369
N   N13       1.0  0.26100  0.23900  0.87410  1.0000 -0.3611861981
N   N14       1.0  0.73900  0.76100  0.87410  1.0000 -0.3611861981
N   N15       1.0  0.76100  0.26100  0.87410  1.0000 -0.3611861981
N   N16       1.0  0.23900  0.73900  0.87410  1.0000 -0.3611861981
N   N17       1.0  0.80640  0.21250  0.00000  1.0000 -0.3611861981
N   N18       1.0  0.19360  0.78750  0.00000  1.0000 -0.3611861981
N   N19       1.0  0.21250  0.19360  0.00000  1.0000 -0.3611861981
N   N20       1.0  0.78750  0.80640  0.00000  1.0000 -0.3611861981
N   N21       1.0  0.30640  0.28750  0.00000  1.0000 -0.3611861981
N   N22       1.0  0.69360  0.71250  0.00000  1.0000 -0.3611861981
N   N23       1.0  0.71250  0.30640  0.00000  1.0000 -0.3611861981
N   N24       1.0  0.28750  0.69360  0.00000  1.0000 -0.3611861981
O   O1        1.0  0.02790  0.30230  0.33290  1.0000 -0.4796701522
O   O2        1.0  0.97210  0.69770  0.33290  1.0000 -0.4796701522
O   O3        1.0  0.30230  0.97210  0.33290  1.0000 -0.4796701522
O   O4        1.0  0.69770  0.02790  0.33290  1.0000 -0.4796701522
O   O5        1.0  0.52790  0.19770  0.66710  1.0000 -0.4796701522
O   O6        1.0  0.47210  0.80230  0.66710  1.0000 -0.4796701522
O   O7        1.0  0.80230  0.52790  0.66710  1.0000 -0.4796701522
O   O8        1.0  0.19770  0.47210  0.66710  1.0000 -0.4796701522
O   O9        1.0  0.97210  0.69770  0.66710  1.0000 -0.4796701522
O   O10       1.0  0.02790  0.30230  0.66710  1.0000 -0.4796701522
O   O11       1.0  0.69770  0.02790  0.66710  1.0000 -0.4796701522
O   O12       1.0  0.30230  0.97210  0.66710  1.0000 -0.4796701522
O   O13       1.0  0.47210  0.80230  0.33290  1.0000 -0.4796701522
O   O14       1.0  0.52790  0.19770  0.33290  1.0000 -0.4796701522
O   O15       1.0  0.19770  0.47210  0.33290  1.0000 -0.4796701522
O   O16       1.0  0.80230  0.52790  0.33290  1.0000 -0.4796701522
O   O17       1.0  0.08240  0.29270  0.41170  1.0000 -0.3775648914
O   O18       1.0  0.91760  0.70730  0.41170  1.0000 -0.3775648914
O   O19       1.0  0.29270  0.91760  0.41170  1.0000 -0.3775648914
O   O20       1.0  0.70730  0.08240  0.41170  1.0000 -0.3775648914
O   O21       1.0  0.58240  0.20730  0.58830  1.0000 -0.3775648914
O   O22       1.0  0.41760  0.79270  0.58830  1.0000 -0.3775648914
O   O23       1.0  0.79270  0.58240  0.58830  1.0000 -0.3775648914
O   O24       1.0  0.20730  0.41760  0.58830  1.0000 -0.3775648914
O   O25       1.0  0.91760  0.70730  0.58830  1.0000 -0.3775648914
O   O26       1.0  0.08240  0.29270  0.58830  1.0000 -0.3775648914
O   O27       1.0  0.70730  0.08240  0.58830  1.0000 -0.3775648914
O   O28       1.0  0.29270  0.91760  0.58830  1.0000 -0.3775648914
O   O29       1.0  0.41760  0.79270  0.41170  1.0000 -0.3775648914
O   O30       1.0  0.58240  0.20730  0.41170  1.0000 -0.3775648914
O   O31       1.0  0.20730  0.41760  0.41170  1.0000 -0.3775648914
O   O32       1.0  0.79270  0.58240  0.41170  1.0000 -0.3775648914
O   O33       1.0  0.02070  0.22940  0.50000  1.0000 -0.8476839431
O   O34       1.0  0.97930  0.77060  0.50000  1.0000 -0.8476839431
O   O35       1.0  0.22940  0.97930  0.50000  1.0000 -0.8476839431
O   O36       1.0  0.77060  0.02070  0.50000  1.0000 -0.8476839431
O   O37       1.0  0.52070  0.27060  0.50000  1.0000 -0.8476839431
O   O38       1.0  0.47930  0.72940  0.50000  1.0000 -0.8476839431
O   O39       1.0  0.72940  0.52070  0.50000  1.0000 -0.8476839431
O   O40       1.0  0.27060  0.47930  0.50000  1.0000 -0.8476839431
O   O41       1.0  0.96140  0.22590  0.33570  1.0000 -0.4796701522
O   O42       1.0  0.03860  0.77410  0.33570  1.0000 -0.4796701522
O   O43       1.0  0.22590  0.03860  0.33570  1.0000 -0.4796701522
O   O44       1.0  0.77410  0.96140  0.33570  1.0000 -0.4796701522
O   O45       1.0  0.46140  0.27410  0.66430  1.0000 -0.4796701522
O   O46       1.0  0.53860  0.72590  0.66430  1.0000 -0.4796701522
O   O47       1.0  0.72590  0.46140  0.66430  1.0000 -0.4796701522
O   O48       1.0  0.27410  0.53860  0.66430  1.0000 -0.4796701522
O   O49       1.0  0.03860  0.77410  0.66430  1.0000 -0.4796701522
O   O50       1.0  0.96140  0.22590  0.66430  1.0000 -0.4796701522
O   O51       1.0  0.77410  0.96140  0.66430  1.0000 -0.4796701522
O   O52       1.0  0.22590  0.03860  0.66430  1.0000 -0.4796701522
O   O53       1.0  0.53860  0.72590  0.33570  1.0000 -0.4796701522
O   O54       1.0  0.46140  0.27410  0.33570  1.0000 -0.4796701522
O   O55       1.0  0.27410  0.53860  0.33570  1.0000 -0.4796701522
O   O56       1.0  0.72590  0.46140  0.33570  1.0000 -0.4796701522
O   O57       1.0  0.96500  0.16240  0.40450  1.0000 -0.5621816247
O   O58       1.0  0.03500  0.83760  0.40450  1.0000 -0.5621816247
O   O59       1.0  0.16240  0.03500  0.40450  1.0000 -0.5621816247
O   O60       1.0  0.83760  0.96500  0.40450  1.0000 -0.5621816247
O   O61       1.0  0.46500  0.33760  0.59550  1.0000 -0.5621816247
O   O62       1.0  0.53500  0.66240  0.59550  1.0000 -0.5621816247
O   O63       1.0  0.66240  0.46500  0.59550  1.0000 -0.5621816247
O   O64       1.0  0.33760  0.53500  0.59550  1.0000 -0.5621816247
O   O65       1.0  0.03500  0.83760  0.59550  1.0000 -0.5621816247
O   O66       1.0  0.96500  0.16240  0.59550  1.0000 -0.5621816247
O   O67       1.0  0.83760  0.96500  0.59550  1.0000 -0.5621816247
O   O68       1.0  0.16240  0.03500  0.59550  1.0000 -0.5621816247
O   O69       1.0  0.53500  0.66240  0.40450  1.0000 -0.5621816247
O   O70       1.0  0.46500  0.33760  0.40450  1.0000 -0.5621816247
O   O71       1.0  0.33760  0.53500  0.40450  1.0000 -0.5621816247
O   O72       1.0  0.66240  0.46500  0.40450  1.0000 -0.5621816247
O   O73       1.0  0.84850  0.05830  0.41020  1.0000 -0.4954319164
O   O74       1.0  0.15150  0.94170  0.41020  1.0000 -0.4954319164
O   O75       1.0  0.05830  0.15150  0.41020  1.0000 -0.4954319164
O   O76       1.0  0.94170  0.84850  0.41020  1.0000 -0.4954319164
O   O77       1.0  0.34850  0.44170  0.58980  1.0000 -0.4954319164
O   O78       1.0  0.65150  0.55830  0.58980  1.0000 -0.4954319164
O   O79       1.0  0.55830  0.34850  0.58980  1.0000 -0.4954319164
O   O80       1.0  0.44170  0.65150  0.58980  1.0000 -0.4954319164
O   O81       1.0  0.15150  0.94170  0.58980  1.0000 -0.4954319164
O   O82       1.0  0.84850  0.05830  0.58980  1.0000 -0.4954319164
O   O83       1.0  0.94170  0.84850  0.58980  1.0000 -0.4954319164
O   O84       1.0  0.05830  0.15150  0.58980  1.0000 -0.4954319164
O   O85       1.0  0.65150  0.55830  0.41020  1.0000 -0.4954319164
O   O86       1.0  0.34850  0.44170  0.41020  1.0000 -0.4954319164
O   O87       1.0  0.44170  0.65150  0.41020  1.0000 -0.4954319164
O   O88       1.0  0.55830  0.34850  0.41020  1.0000 -0.4954319164
O   O89       1.0  0.79050  0.06350  0.32880  1.0000 -0.4947366334
O   O90       1.0  0.20950  0.93650  0.32880  1.0000 -0.4947366334
O   O91       1.0  0.06350  0.20950  0.32880  1.0000 -0.4947366334
O   O92       1.0  0.93650  0.79050  0.32880  1.0000 -0.4954319164
O   O93       1.0  0.29050  0.43650  0.67120  1.0000 -0.4954319164
O   O94       1.0  0.70950  0.56350  0.67120  1.0000 -0.4947366334
O   O95       1.0  0.56350  0.29050  0.67120  1.0000 -0.4954319164
O   O96       1.0  0.43650  0.70950  0.67120  1.0000 -0.4954319164
O   O97       1.0  0.20950  0.93650  0.67120  1.0000 -0.4954319164
O   O98       1.0  0.79050  0.06350  0.67120  1.0000 -0.4954319164
O   O99       1.0  0.93650  0.79050  0.67120  1.0000 -0.4954319164
O   O100      1.0  0.06350  0.20950  0.67120  1.0000 -0.4947366334
O   O101      1.0  0.70950  0.56350  0.32880  1.0000 -0.4947366334
O   O102      1.0  0.29050  0.43650  0.32880  1.0000 -0.4947366334
O   O103      1.0  0.43650  0.70950  0.32880  1.0000 -0.4947366334
O   O104      1.0  0.56350  0.29050  0.32880  1.0000 -0.4947366334
