# DDEC6 charges by PACMAN v1.1 (https://github.com/mtap-research/PACMAN-charge/)
data_2012[Cu][nbo]3[ASR]2
_chemical_formula_sum              "Cu12 H192 C216 O48"
_cell_length_a       21.7289
_cell_length_b       21.7289
_cell_length_c       30.0021
_cell_angle_alpha    81.9302
_cell_angle_beta     98.0698
_cell_angle_gamma    62.5598

_symmetry_space_group_name_H-M    "P 1"
_symmetry_Int_Tables_number       1

loop_
  _symmetry_equiv_pos_as_xyz
  'x, y, z'

loop_
  _atom_site_type_symbol
  _atom_site_label
  _atom_site_symmetry_multiplicity
  _atom_site_fract_x
  _atom_site_fract_y
  _atom_site_fract_z
  _atom_site_occupancy
  _atom_site_charge
Cu  Cu1       1.0  0.75219  0.30273  0.73259  1.0000 0.8586638737
Cu  Cu2       1.0  0.30273  0.75219  0.76741  1.0000 0.8586638737
Cu  Cu3       1.0  0.24781  0.69727  0.26741  1.0000 0.8586638737
Cu  Cu4       1.0  0.69727  0.24781  0.23259  1.0000 0.8586638737
Cu  Cu5       1.0  0.77071  0.17359  0.74246  1.0000 0.8586638737
Cu  Cu6       1.0  0.17359  0.77071  0.75754  1.0000 0.8586638737
Cu  Cu7       1.0  0.22929  0.82641  0.25754  1.0000 0.8586638737
Cu  Cu8       1.0  0.82641  0.22929  0.24246  1.0000 0.8586638737
Cu  Cu9       1.0  0.97444  0.53228  0.53230  1.0000 0.868273111
Cu  Cu10      1.0  0.53228  0.97444  0.96770  1.0000 0.868273111
Cu  Cu11      1.0  0.02556  0.46772  0.46770  1.0000 0.868273111
Cu  Cu12      1.0  0.46772  0.02556  0.03230  1.0000 0.868273111
H   H1        1.0  0.54690  0.22970  0.71430  1.0000 0.1311034538
H   H2        1.0  0.22970  0.54690  0.78570  1.0000 0.1311034538
H   H3        1.0  0.45310  0.77030  0.28570  1.0000 0.1311034538
H   H4        1.0  0.77030  0.45310  0.21430  1.0000 0.1311034538
H   H5        1.0  0.53350  0.41650  0.65780  1.0000 0.1388110496
H   H6        1.0  0.41650  0.53350  0.84220  1.0000 0.1388110496
H   H7        1.0  0.46650  0.58350  0.34220  1.0000 0.1388110496
H   H8        1.0  0.58350  0.46650  0.15780  1.0000 0.1311034538
H   H9        1.0  0.44730  0.21310  0.70510  1.0000 0.1311034538
H   H10       1.0  0.21310  0.44730  0.79490  1.0000 0.1311034538
H   H11       1.0  0.55270  0.78690  0.29490  1.0000 0.1311034538
H   H12       1.0  0.78690  0.55270  0.20510  1.0000 0.1311034538
H   H13       1.0  0.36980  0.28200  0.68870  1.0000 0.1311034538
H   H14       1.0  0.28200  0.36980  0.81130  1.0000 0.1311034538
H   H15       1.0  0.63020  0.71800  0.31130  1.0000 0.1311034538
H   H16       1.0  0.71800  0.63020  0.18870  1.0000 0.1311034538
H   H17       1.0  0.40650  0.24030  0.65160  1.0000 0.1311034538
H   H18       1.0  0.24030  0.40650  0.84840  1.0000 0.1311034538
H   H19       1.0  0.59350  0.75970  0.34840  1.0000 0.1311034538
H   H20       1.0  0.75970  0.59350  0.15160  1.0000 0.1311034538
H   H21       1.0  0.40870  0.51910  0.62660  1.0000 0.1388110496
H   H22       1.0  0.51910  0.40870  0.87340  1.0000 0.1388110496
H   H23       1.0  0.59130  0.48090  0.37340  1.0000 0.1388110496
H   H24       1.0  0.48090  0.59130  0.12660  1.0000 0.1388110496
H   H25       1.0  0.40540  0.49100  0.58020  1.0000 0.1388110496
H   H26       1.0  0.49100  0.40540  0.91980  1.0000 0.1388110496
H   H27       1.0  0.59460  0.50900  0.41980  1.0000 0.1388110496
H   H28       1.0  0.50900  0.59460  0.08020  1.0000 0.1388110496
H   H29       1.0  0.34610  0.50250  0.60920  1.0000 0.1388110496
H   H30       1.0  0.50250  0.34610  0.89080  1.0000 0.1388110496
H   H31       1.0  0.65390  0.49750  0.39080  1.0000 0.1388110496
H   H32       1.0  0.49750  0.65390  0.10920  1.0000 0.1388110496
H   H33       1.0  0.24590  0.40650  0.51900  1.0000 0.1388110496
H   H34       1.0  0.40650  0.24590  0.98100  1.0000 0.1388110496
H   H35       1.0  0.75410  0.59350  0.48100  1.0000 0.1388110496
H   H36       1.0  0.59350  0.75410  0.01900  1.0000 0.1388110496
H   H37       1.0  0.17120  0.47660  0.62560  1.0000 0.1388110496
H   H38       1.0  0.47660  0.17120  0.87440  1.0000 0.1388110496
H   H39       1.0  0.82880  0.52340  0.37440  1.0000 0.1388110496
H   H40       1.0  0.52340  0.82880  0.12560  1.0000 0.1388110496
H   H41       1.0  0.42200  0.36420  0.56680  1.0000 0.1311034538
H   H42       1.0  0.36420  0.42200  0.93320  1.0000 0.1311034538
H   H43       1.0  0.57800  0.63580  0.43320  1.0000 0.1311034538
H   H44       1.0  0.63580  0.57800  0.06680  1.0000 0.1311034538
H   H45       1.0  0.36930  0.37330  0.52030  1.0000 0.1311034538
H   H46       1.0  0.37330  0.36930  0.97970  1.0000 0.1311034538
H   H47       1.0  0.63070  0.62670  0.47970  1.0000 0.1311034538
H   H48       1.0  0.62670  0.63070  0.02030  1.0000 0.1311034538
H   H49       1.0  0.40500  0.30140  0.55990  1.0000 0.1311034538
H   H50       1.0  0.30140  0.40500  0.94010  1.0000 0.1311034538
H   H51       1.0  0.59500  0.69860  0.44010  1.0000 0.1311034538
H   H52       1.0  0.69860  0.59500  0.05990  1.0000 0.1311034538
H   H53       1.0  0.24580  0.48160  0.69040  1.0000 0.1388110496
H   H54       1.0  0.48160  0.24580  0.80960  1.0000 0.1388110496
H   H55       1.0  0.75420  0.51840  0.30960  1.0000 0.1472181795
H   H56       1.0  0.51840  0.75420  0.19040  1.0000 0.1388110496
H   H57       1.0  0.32700  0.45760  0.68930  1.0000 0.1388110496
H   H58       1.0  0.45760  0.32700  0.81070  1.0000 0.1388110496
H   H59       1.0  0.67300  0.54240  0.31070  1.0000 0.1388110496
H   H60       1.0  0.54240  0.67300  0.18930  1.0000 0.1388110496
H   H61       1.0  0.30570  0.39950  0.70900  1.0000 0.1388110496
H   H62       1.0  0.39950  0.30570  0.79100  1.0000 0.1388110496
H   H63       1.0  0.69430  0.60050  0.29100  1.0000 0.1388110496
H   H64       1.0  0.60050  0.69430  0.20900  1.0000 0.1388110496
H   H65       1.0  0.96480  0.25060  0.79350  1.0000 0.1388110496
H   H66       1.0  0.25060  0.96480  0.70650  1.0000 0.1388110496
H   H67       1.0  0.03520  0.74940  0.20650  1.0000 0.1388110496
H   H68       1.0  0.74940  0.03520  0.29350  1.0000 0.1311034538
H   H69       1.0  0.00040  0.05080  0.79330  1.0000 0.1311034538
H   H70       1.0  0.05080  0.00040  0.70670  1.0000 0.1311034538
H   H71       1.0  0.99960  0.94920  0.20670  1.0000 0.1311034538
H   H72       1.0  0.94920  0.99960  0.29330  1.0000 0.1311034538
H   H73       1.0  0.05970  0.27210  0.81810  1.0000 0.1311034538
H   H74       1.0  0.27210  0.05970  0.68190  1.0000 0.1311034538
H   H75       1.0  0.94030  0.72790  0.18190  1.0000 0.1311034538
H   H76       1.0  0.72790  0.94030  0.31810  1.0000 0.1311034538
H   H77       1.0  0.09210  0.22630  0.87050  1.0000 0.1311034538
H   H78       1.0  0.22630  0.09210  0.62950  1.0000 0.1311034538
H   H79       1.0  0.90790  0.77370  0.12950  1.0000 0.1311034538
H   H80       1.0  0.77370  0.90790  0.37050  1.0000 0.1311034538
H   H81       1.0  0.14020  0.20800  0.83340  1.0000 0.1311034538
H   H82       1.0  0.20800  0.14020  0.66667  1.0000 0.1311034538
H   H83       1.0  0.85980  0.79200  0.16660  1.0000 0.1311034538
H   H84       1.0  0.79200  0.85980  0.33340  1.0000 0.1311034538
H   H85       1.0  0.11480  0.94940  0.82320  1.0000 0.1472181795
H   H86       1.0  0.94940  0.11480  0.67680  1.0000 0.1472181795
H   H87       1.0  0.88520  0.05060  0.17680  1.0000 0.1472181795
H   H88       1.0  0.05060  0.88520  0.32320  1.0000 0.1472181795
H   H89       1.0  0.18130  0.96330  0.82980  1.0000 0.1388110496
H   H90       1.0  0.96330  0.18130  0.67020  1.0000 0.1388110496
H   H91       1.0  0.81870  0.03670  0.17020  1.0000 0.1388110496
H   H92       1.0  0.03670  0.81870  0.32980  1.0000 0.1388110496
H   H93       1.0  0.14710  0.95550  0.87260  1.0000 0.1388110496
H   H94       1.0  0.95550  0.14710  0.62740  1.0000 0.1388110496
H   H95       1.0  0.85290  0.04450  0.12740  1.0000 0.1388110496
H   H96       1.0  0.04450  0.85290  0.37260  1.0000 0.1388110496
H   H97       1.0  0.34670  0.02990  0.86350  1.0000 0.1388110496
H   H98       1.0  0.02990  0.34670  0.63650  1.0000 0.1388110496
H   H99       1.0  0.65330  0.97010  0.13650  1.0000 0.1388110496
H   H100      1.0  0.97010  0.65330  0.36350  1.0000 0.1388110496
H   H101      1.0  0.26440  0.04020  0.97610  1.0000 0.1311034538
H   H102      1.0  0.04020  0.26440  0.52390  1.0000 0.1311034538
H   H103      1.0  0.73560  0.95980  0.02390  1.0000 0.1311034538
H   H104      1.0  0.95980  0.73560  0.47610  1.0000 0.1311034538
H   H105      1.0  0.20140  0.05240  0.78330  1.0000 0.1311034538
H   H106      1.0  0.05240  0.20140  0.71670  1.0000 0.1311034538
H   H107      1.0  0.79860  0.94760  0.21670  1.0000 0.1311034538
H   H108      1.0  0.94760  0.79860  0.28330  1.0000 0.1311034538
H   H109      1.0  0.21460  0.11940  0.78150  1.0000 0.1388110496
H   H110      1.0  0.11940  0.21460  0.71850  1.0000 0.1388110496
H   H111      1.0  0.78540  0.88060  0.21850  1.0000 0.1388110496
H   H112      1.0  0.88060  0.78540  0.28150  1.0000 0.1388110496
H   H113      1.0  0.28080  0.04080  0.78980  1.0000 0.1472181795
H   H114      1.0  0.04080  0.28080  0.71020  1.0000 0.1388110496
H   H115      1.0  0.71920  0.95920  0.21020  1.0000 0.1388110496
H   H116      1.0  0.95920  0.71920  0.28980  1.0000 0.1388110496
H   H117      1.0  0.10210  0.05730  0.92430  1.0000 0.1388110496
H   H118      1.0  0.05730  0.10210  0.57570  1.0000 0.1388110496
H   H119      1.0  0.89790  0.94270  0.07570  1.0000 0.1388110496
H   H120      1.0  0.94270  0.89790  0.42430  1.0000 0.1388110496
H   H121      1.0  0.14930  0.05190  0.97230  1.0000 0.1311034538
H   H122      1.0  0.05190  0.14930  0.52770  1.0000 0.1311034538
H   H123      1.0  0.85070  0.94810  0.02770  1.0000 0.1311034538
H   H124      1.0  0.94810  0.85070  0.47230  1.0000 0.1311034538
H   H125      1.0  0.10150  0.12730  0.93600  1.0000 0.1388110496
H   H126      1.0  0.12730  0.10150  0.56400  1.0000 0.1388110496
H   H127      1.0  0.89850  0.87270  0.06400  1.0000 0.1388110496
H   H128      1.0  0.87270  0.89850  0.43600  1.0000 0.1388110496
H   H129      1.0  0.87250  0.21210  0.38960  1.0000 0.1388110496
H   H130      1.0  0.21210  0.87250  0.11040  1.0000 0.1388110496
H   H131      1.0  0.12750  0.78790  0.61040  1.0000 0.1388110496
H   H132      1.0  0.78790  0.12750  0.88960  1.0000 0.1388110496
H   H133      1.0  0.65710  0.31750  0.36090  1.0000 0.1311034538
H   H134      1.0  0.31750  0.65710  0.13910  1.0000 0.1311034538
H   H135      1.0  0.34290  0.68250  0.63910  1.0000 0.1311034538
H   H136      1.0  0.68250  0.34290  0.86090  1.0000 0.1311034538
H   H137      1.0  0.94170  0.17390  0.46410  1.0000 0.1388110496
H   H138      1.0  0.17390  0.94170  0.03590  1.0000 0.1388110496
H   H139      1.0  0.05830  0.82610  0.53590  1.0000 0.1388110496
H   H140      1.0  0.82610  0.05830  0.96410  1.0000 0.1388110496
H   H141      1.0  0.90540  0.16580  0.50570  1.0000 0.1388110496
H   H142      1.0  0.16580  0.90540  0.99430  1.0000 0.1388110496
H   H143      1.0  0.09460  0.83420  0.49430  1.0000 0.1388110496
H   H144      1.0  0.83420  0.09460  0.00570  1.0000 0.1388110496
H   H145      1.0  0.90970  0.23690  0.49040  1.0000 0.1388110496
H   H146      1.0  0.23690  0.90970  0.00960  1.0000 0.1388110496
H   H147      1.0  0.09030  0.76310  0.50960  1.0000 0.1388110496
H   H148      1.0  0.76310  0.09030  0.99040  1.0000 0.1388110496
H   H149      1.0  0.64380  0.34140  0.47470  1.0000 0.1311034538
H   H150      1.0  0.34140  0.64380  0.02530  1.0000 0.1311034538
H   H151      1.0  0.35620  0.65860  0.52530  1.0000 0.1311034538
H   H152      1.0  0.65860  0.35620  0.97470  1.0000 0.1311034538
H   H153      1.0  0.61240  0.30100  0.44630  1.0000 0.1388110496
H   H154      1.0  0.30100  0.61240  0.05370  1.0000 0.1388110496
H   H155      1.0  0.38760  0.69900  0.55370  1.0000 0.1388110496
H   H156      1.0  0.69900  0.38760  0.94630  1.0000 0.1388110496
H   H157      1.0  0.60200  0.37640  0.42160  1.0000 0.1311034538
H   H158      1.0  0.37640  0.60200  0.07840  1.0000 0.1311034538
H   H159      1.0  0.39800  0.62360  0.57840  1.0000 0.1311034538
H   H160      1.0  0.62360  0.39800  0.92160  1.0000 0.1311034538
H   H161      1.0  0.77340  0.15500  0.60360  1.0000 0.1388110496
H   H162      1.0  0.15500  0.77340  0.89640  1.0000 0.1388110496
H   H163      1.0  0.22660  0.84500  0.39640  1.0000 0.1388110496
H   H164      1.0  0.84500  0.22660  0.10360  1.0000 0.1388110496
H   H165      1.0  0.78200  0.33780  0.59400  1.0000 0.1388110496
H   H166      1.0  0.33780  0.78200  0.90600  1.0000 0.1388110496
H   H167      1.0  0.21800  0.66220  0.40600  1.0000 0.1388110496
H   H168      1.0  0.66220  0.21800  0.09400  1.0000 0.1388110496
H   H169      1.0  0.73270  0.16670  0.48450  1.0000 0.1311034538
H   H170      1.0  0.16670  0.73270  0.01550  1.0000 0.1311034538
H   H171      1.0  0.26730  0.83330  0.51550  1.0000 0.1311034538
H   H172      1.0  0.83330  0.26730  0.98450  1.0000 0.1311034538
H   H173      1.0  0.81290  0.10990  0.51160  1.0000 0.1311034538
H   H174      1.0  0.10990  0.81290  0.98840  1.0000 0.1311034538
H   H175      1.0  0.18710  0.89010  0.48840  1.0000 0.1311034538
H   H176      1.0  0.89010  0.18710  0.01160  1.0000 0.1311034538
H   H177      1.0  0.74800  0.11860  0.53460  1.0000 0.1311034538
H   H178      1.0  0.11860  0.74800  0.96540  1.0000 0.1311034538
H   H179      1.0  0.25200  0.88140  0.46540  1.0000 0.1311034538
H   H180      1.0  0.88140  0.25200  0.03460  1.0000 0.1311034538
H   H181      1.0  0.76190  0.41210  0.52020  1.0000 0.1388110496
H   H182      1.0  0.41210  0.76190  0.97980  1.0000 0.1388110496
H   H183      1.0  0.23810  0.58790  0.47980  1.0000 0.1388110496
H   H184      1.0  0.58790  0.23810  0.02020  1.0000 0.1388110496
H   H185      1.0  0.82790  0.35710  0.50270  1.0000 0.1388110496
H   H186      1.0  0.35710  0.82790  0.99730  1.0000 0.1388110496
H   H187      1.0  0.17210  0.64290  0.49730  1.0000 0.1388110496
H   H188      1.0  0.64290  0.17210  0.00270  1.0000 0.1388110496
H   H189      1.0  0.74820  0.38820  0.47330  1.0000 0.1388110496
H   H190      1.0  0.38820  0.74820  0.02670  1.0000 0.1388110496
H   H191      1.0  0.25180  0.61180  0.52670  1.0000 0.1388110496
H   H192      1.0  0.61180  0.25180  0.97330  1.0000 0.1388110496
C   C1        1.0  0.62850  0.29010  0.70750  1.0000 0.5804829541
C   C2        1.0  0.29010  0.62850  0.79250  1.0000 0.5804829541
C   C3        1.0  0.37150  0.70990  0.29250  1.0000 0.5804829541
C   C4        1.0  0.70990  0.37150  0.20750  1.0000 0.5804829541
C   C5        1.0  0.55180  0.31880  0.68750  1.0000 -0.0308020386
C   C6        1.0  0.31880  0.55180  0.81250  1.0000 -0.0308020386
C   C7        1.0  0.44820  0.68120  0.31250  1.0000 -0.0308020386
C   C8        1.0  0.68120  0.44820  0.18750  1.0000 -0.0308020386
C   C9        1.0  0.52020  0.27620  0.69450  1.0000 -0.1699121931
C   C10       1.0  0.27620  0.52020  0.80550  1.0000 -0.1699121931
C   C11       1.0  0.47980  0.72380  0.30550  1.0000 -0.1699121931
C   C12       1.0  0.72380  0.47980  0.19450  1.0000 -0.1699121931
C   C13       1.0  0.44900  0.30240  0.67230  1.0000 0.109845826
C   C14       1.0  0.30240  0.44900  0.82770  1.0000 0.109845826
C   C15       1.0  0.55100  0.69760  0.32770  1.0000 0.109845826
C   C16       1.0  0.69760  0.55100  0.17230  1.0000 0.109845826
C   C17       1.0  0.40930  0.36950  0.64400  1.0000 -0.0497902227
C   C18       1.0  0.36950  0.40930  0.85600  1.0000 -0.0497902227
C   C19       1.0  0.59070  0.63050  0.35600  1.0000 -0.0497902227
C   C20       1.0  0.63050  0.59070  0.14400  1.0000 -0.0497902227
C   C21       1.0  0.44010  0.41470  0.63830  1.0000 0.109845826
C   C22       1.0  0.41470  0.44010  0.86170  1.0000 0.109845826
C   C23       1.0  0.55990  0.58530  0.36170  1.0000 0.109845826
C   C24       1.0  0.58530  0.55990  0.13830  1.0000 0.109845826
C   C25       1.0  0.51210  0.38710  0.66100  1.0000 -0.1699121931
C   C26       1.0  0.38710  0.51210  0.83900  1.0000 -0.1699121931
C   C27       1.0  0.48790  0.61290  0.33900  1.0000 -0.1699121931
C   C28       1.0  0.61290  0.48790  0.16100  1.0000 -0.1699121931
C   C29       1.0  0.41510  0.25530  0.68010  1.0000 -0.4415552151
C   C30       1.0  0.25530  0.41510  0.81990  1.0000 -0.4415552151
C   C31       1.0  0.58490  0.74470  0.31990  1.0000 -0.4415552151
C   C32       1.0  0.74470  0.58490  0.18010  1.0000 -0.4415552151
C   C33       1.0  0.39660  0.48780  0.61140  1.0000 -0.4673435546
C   C34       1.0  0.48780  0.39660  0.88860  1.0000 -0.4673435546
C   C35       1.0  0.60340  0.51220  0.38860  1.0000 -0.4673435546
C   C36       1.0  0.51220  0.60340  0.11140  1.0000 -0.4673435546
C   C37       1.0  0.12350  0.46710  0.54280  1.0000 0.5868138242
C   C38       1.0  0.46710  0.12350  0.95720  1.0000 0.5868138242
C   C39       1.0  0.87650  0.53290  0.45720  1.0000 0.5868138242
C   C40       1.0  0.53290  0.87650  0.04280  1.0000 0.5868138242
C   C41       1.0  0.19780  0.44460  0.56860  1.0000 -0.0087559457
C   C42       1.0  0.44460  0.19780  0.93140  1.0000 -0.0087559457
C   C43       1.0  0.80220  0.55540  0.43140  1.0000 -0.0087559457
C   C44       1.0  0.55540  0.80220  0.06860  1.0000 -0.0087559457
C   C45       1.0  0.25400  0.41160  0.54990  1.0000 -0.1699121931
C   C46       1.0  0.41160  0.25400  0.95010  1.0000 -0.1699121931
C   C47       1.0  0.74600  0.58840  0.45010  1.0000 -0.1699121931
C   C48       1.0  0.58840  0.74600  0.04990  1.0000 -0.1699121931
C   C49       1.0  0.32440  0.38420  0.57520  1.0000 0.109845826
C   C50       1.0  0.38420  0.32440  0.92480  1.0000 0.109845826
C   C51       1.0  0.67560  0.61580  0.42480  1.0000 0.109845826
C   C52       1.0  0.61580  0.67560  0.07520  1.0000 0.109845826
C   C53       1.0  0.33540  0.39600  0.61790  1.0000 -0.0418863367
C   C54       1.0  0.39600  0.33540  0.88210  1.0000 -0.0418863367
C   C55       1.0  0.66460  0.60400  0.38210  1.0000 -0.0418863367
C   C56       1.0  0.60400  0.66460  0.11790  1.0000 -0.0418863367
C   C57       1.0  0.27720  0.43160  0.63860  1.0000 0.1194025119
C   C58       1.0  0.43160  0.27720  0.86140  1.0000 0.1194025119
C   C59       1.0  0.72280  0.56840  0.36140  1.0000 0.1194025119
C   C60       1.0  0.56840  0.72280  0.13860  1.0000 0.1194025119
C   C61       1.0  0.21080  0.45360  0.61240  1.0000 -0.178718244
C   C62       1.0  0.45360  0.21080  0.88760  1.0000 -0.178718244
C   C63       1.0  0.78920  0.54640  0.38760  1.0000 -0.178718244
C   C64       1.0  0.54640  0.78920  0.11240  1.0000 -0.178718244
C   C65       1.0  0.38520  0.35320  0.55380  1.0000 -0.4415552151
C   C66       1.0  0.35320  0.38520  0.94620  1.0000 -0.4415552151
C   C67       1.0  0.61480  0.64680  0.44620  1.0000 -0.4415552151
C   C68       1.0  0.64680  0.61480  0.05380  1.0000 -0.4415552151
C   C69       1.0  0.29000  0.44360  0.68590  1.0000 -0.4617210497
C   C70       1.0  0.44360  0.29000  0.81410  1.0000 -0.4617210497
C   C71       1.0  0.71000  0.55640  0.31410  1.0000 -0.4617210497
C   C72       1.0  0.55640  0.71000  0.18590  1.0000 -0.4617210497
C   C73       1.0  0.89380  0.18480  0.76860  1.0000 0.5704430062
C   C74       1.0  0.18480  0.89380  0.73140  1.0000 0.5704430062
C   C75       1.0  0.10620  0.81520  0.23140  1.0000 0.5704430062
C   C76       1.0  0.81520  0.10620  0.26860  1.0000 0.5704430062
C   C77       1.0  0.97100  0.15400  0.79040  1.0000 -0.0191294432
C   C78       1.0  0.15400  0.97100  0.70960  1.0000 -0.0191294432
C   C79       1.0  0.02900  0.84600  0.20960  1.0000 -0.0191294432
C   C80       1.0  0.84600  0.02900  0.29040  1.0000 -0.0191294432
C   C81       1.0  0.99590  0.20050  0.80190  1.0000 -0.178718244
C   C82       1.0  0.20050  0.99590  0.69810  1.0000 -0.178718244
C   C83       1.0  0.00410  0.79950  0.19810  1.0000 -0.178718244
C   C84       1.0  0.79950  0.00410  0.30190  1.0000 -0.178718244
C   C85       1.0  0.06630  0.17270  0.82570  1.0000 0.109845826
C   C86       1.0  0.17270  0.06630  0.67430  1.0000 0.109845826
C   C87       1.0  0.93370  0.82730  0.17430  1.0000 0.109845826
C   C88       1.0  0.82730  0.93370  0.32570  1.0000 0.109845826
C   C89       1.0  0.11020  0.10000  0.83890  1.0000 -0.0191294432
C   C90       1.0  0.10000  0.11020  0.66110  1.0000 -0.0191294432
C   C91       1.0  0.88980  0.90000  0.16110  1.0000 -0.0191294432
C   C92       1.0  0.90000  0.88980  0.33890  1.0000 -0.0191294432
C   C93       1.0  0.08700  0.05180  0.82640  1.0000 0.1311034538
C   C94       1.0  0.05180  0.08700  0.67360  1.0000 0.1311034538
C   C95       1.0  0.91300  0.94820  0.17360  1.0000 0.1311034538
C   C96       1.0  0.94820  0.91300  0.32640  1.0000 0.1311034538
C   C97       1.0  0.01730  0.08150  0.80220  1.0000 -0.178718244
C   C98       1.0  0.08150  0.01730  0.69780  1.0000 -0.178718244
C   C99       1.0  0.98270  0.91850  0.19780  1.0000 -0.178718244
C   C100      1.0  0.91850  0.98270  0.30220  1.0000 -0.178718244
C   C101      1.0  0.09180  0.22440  0.83800  1.0000 -0.431895597
C   C102      1.0  0.22440  0.09180  0.66200  1.0000 -0.431895597
C   C103      1.0  0.90820  0.77560  0.16200  1.0000 -0.431895597
C   C104      1.0  0.77560  0.90820  0.33800  1.0000 -0.431895597
C   C105      1.0  0.13680  0.97320  0.83910  1.0000 -0.4673435546
C   C106      1.0  0.97320  0.13680  0.66090  1.0000 -0.4673435546
C   C107      1.0  0.86320  0.02680  0.16090  1.0000 -0.4673435546
C   C108      1.0  0.02680  0.86320  0.33910  1.0000 -0.4673435546
C   C109      1.0  0.38720  0.01460  0.95340  1.0000 0.5804829541
C   C110      1.0  0.01460  0.38720  0.54660  1.0000 0.5804829541
C   C111      1.0  0.61280  0.98540  0.04660  1.0000 0.5804829541
C   C112      1.0  0.98540  0.61280  0.45340  1.0000 0.5804829541
C   C113      1.0  0.31560  0.03200  0.92430  1.0000 -0.0035975043
C   C114      1.0  0.03200  0.31560  0.57570  1.0000 -0.0035975043
C   C115      1.0  0.68440  0.96800  0.07570  1.0000 -0.0035975043
C   C116      1.0  0.96800  0.68440  0.42430  1.0000 -0.0035975043
C   C117      1.0  0.30710  0.03910  0.87680  1.0000 -0.1864330279
C   C118      1.0  0.03910  0.30710  0.62320  1.0000 -0.1864330279
C   C119      1.0  0.69290  0.96090  0.12320  1.0000 -0.1864330279
C   C120      1.0  0.96090  0.69290  0.37680  1.0000 -0.1864330279
C   C121      1.0  0.24110  0.05950  0.84830  1.0000 0.1311034538
C   C122      1.0  0.05950  0.24110  0.65170  1.0000 0.1311034538
C   C123      1.0  0.75890  0.94050  0.15170  1.0000 0.1311034538
C   C124      1.0  0.94050  0.75890  0.34830  1.0000 0.1311034538
C   C125      1.0  0.18440  0.07100  0.86940  1.0000 -0.0308020386
C   C126      1.0  0.07100  0.18440  0.63060  1.0000 -0.0308020386
C   C127      1.0  0.81560  0.92900  0.13060  1.0000 -0.0308020386
C   C128      1.0  0.92900  0.81560  0.36940  1.0000 -0.0308020386
C   C129      1.0  0.19340  0.06180  0.91660  1.0000 0.109845826
C   C130      1.0  0.06180  0.19340  0.58340  1.0000 0.109845826
C   C131      1.0  0.80660  0.93820  0.08340  1.0000 0.109845826
C   C132      1.0  0.93820  0.80660  0.41660  1.0000 0.109845826
C   C133      1.0  0.25880  0.04400  0.94370  1.0000 -0.1864330279
C   C134      1.0  0.04400  0.25880  0.55630  1.0000 -0.1864330279
C   C135      1.0  0.74120  0.95600  0.05630  1.0000 -0.1864330279
C   C136      1.0  0.95600  0.74120  0.44370  1.0000 -0.1864330279
C   C137      1.0  0.23380  0.06880  0.79600  1.0000 -0.4617210497
C   C138      1.0  0.06880  0.23380  0.70400  1.0000 -0.4617210497
C   C139      1.0  0.76620  0.93120  0.20400  1.0000 -0.4617210497
C   C140      1.0  0.93120  0.76620  0.29600  1.0000 -0.4617210497
C   C141      1.0  0.13090  0.07590  0.93930  1.0000 -0.4415552151
C   C142      1.0  0.07590  0.13090  0.56070  1.0000 -0.4415552151
C   C143      1.0  0.86910  0.92410  0.06070  1.0000 -0.4415552151
C   C144      1.0  0.92410  0.86910  0.43930  1.0000 -0.4415552151
C   C145      1.0  0.76250  0.25510  0.31880  1.0000 0.5804829541
C   C146      1.0  0.25510  0.76250  0.18120  1.0000 0.5804829541
C   C147      1.0  0.23750  0.74490  0.68120  1.0000 0.5804829541
C   C148      1.0  0.74490  0.23750  0.81880  1.0000 0.5804829541
C   C149      1.0  0.76460  0.26000  0.36800  1.0000 -0.0191294432
C   C150      1.0  0.26000  0.76460  0.13200  1.0000 -0.0191294432
C   C151      1.0  0.23540  0.74000  0.63200  1.0000 -0.0191294432
C   C152      1.0  0.74000  0.23540  0.86800  1.0000 -0.0191294432
C   C153      1.0  0.82930  0.23190  0.39980  1.0000 -0.1699121931
C   C154      1.0  0.23190  0.82930  0.10020  1.0000 -0.1699121931
C   C155      1.0  0.17070  0.76810  0.60020  1.0000 -0.1699121931
C   C156      1.0  0.76810  0.17070  0.89980  1.0000 -0.1699121931
C   C157      1.0  0.83200  0.23240  0.44530  1.0000 0.1194025119
C   C158      1.0  0.23240  0.83200  0.05470  1.0000 0.1194025119
C   C159      1.0  0.16800  0.76760  0.55470  1.0000 0.1194025119
C   C160      1.0  0.76760  0.16800  0.94530  1.0000 0.1194025119
C   C161      1.0  0.76850  0.26170  0.46090  1.0000 -0.0418863367
C   C162      1.0  0.26170  0.76850  0.03910  1.0000 -0.0418863367
C   C163      1.0  0.23150  0.73830  0.53910  1.0000 -0.0418863367
C   C164      1.0  0.73830  0.23150  0.96090  1.0000 -0.0418863367
C   C165      1.0  0.70450  0.29350  0.42950  1.0000 0.109845826
C   C166      1.0  0.29350  0.70450  0.07050  1.0000 0.109845826
C   C167      1.0  0.29550  0.70650  0.57050  1.0000 0.109845826
C   C168      1.0  0.70650  0.29550  0.92950  1.0000 0.109845826
C   C169      1.0  0.70180  0.29400  0.38270  1.0000 -0.178718244
C   C170      1.0  0.29400  0.70180  0.11730  1.0000 -0.178718244
C   C171      1.0  0.29820  0.70600  0.61730  1.0000 -0.178718244
C   C172      1.0  0.70600  0.29820  0.88270  1.0000 -0.178718244
C   C173      1.0  0.90350  0.19930  0.47940  1.0000 -0.4504819941
C   C174      1.0  0.19930  0.90350  0.02060  1.0000 -0.4504819941
C   C175      1.0  0.09650  0.80070  0.52060  1.0000 -0.4504819941
C   C176      1.0  0.80070  0.09650  0.97940  1.0000 -0.4504819941
C   C177      1.0  0.63430  0.33150  0.44440  1.0000 -0.4415552151
C   C178      1.0  0.33150  0.63430  0.05560  1.0000 -0.4415552151
C   C179      1.0  0.36570  0.66850  0.55560  1.0000 -0.4415552151
C   C180      1.0  0.66850  0.36570  0.94440  1.0000 -0.4415552151
C   C181      1.0  0.77280  0.24280  0.65510  1.0000 0.5804829541
C   C182      1.0  0.24280  0.77280  0.84490  1.0000 0.5804829541
C   C183      1.0  0.22720  0.75720  0.34490  1.0000 0.5804829541
C   C184      1.0  0.75720  0.22720  0.15510  1.0000 0.5804829541
C   C185      1.0  0.77590  0.24710  0.60490  1.0000 -0.0087559457
C   C186      1.0  0.24710  0.77590  0.89510  1.0000 -0.0087559457
C   C187      1.0  0.22410  0.75290  0.39510  1.0000 -0.0087559457
C   C188      1.0  0.75290  0.22410  0.10490  1.0000 -0.0087559457
C   C189      1.0  0.77340  0.19440  0.58530  1.0000 -0.178718244
C   C190      1.0  0.19440  0.77340  0.91470  1.0000 -0.178718244
C   C191      1.0  0.22660  0.80560  0.41470  1.0000 -0.178718244
C   C192      1.0  0.80560  0.22660  0.08530  1.0000 -0.178718244
C   C193      1.0  0.77100  0.19980  0.53720  1.0000 0.1194025119
C   C194      1.0  0.19980  0.77100  0.96280  1.0000 0.1194025119
C   C195      1.0  0.22900  0.80020  0.46280  1.0000 0.1194025119
C   C196      1.0  0.80020  0.22900  0.03720  1.0000 0.1194025119
C   C197      1.0  0.77140  0.25800  0.51090  1.0000 -0.0497902227
C   C198      1.0  0.25800  0.77140  0.98910  1.0000 -0.0497902227
C   C199      1.0  0.22860  0.74200  0.48910  1.0000 -0.0497902227
C   C200      1.0  0.74200  0.22860  0.01090  1.0000 -0.0497902227
C   C201      1.0  0.77430  0.30990  0.53220  1.0000 0.1194025119
C   C202      1.0  0.30990  0.77430  0.96780  1.0000 0.1194025119
C   C203      1.0  0.22570  0.69010  0.46780  1.0000 0.1194025119
C   C204      1.0  0.69010  0.22570  0.03220  1.0000 0.1194025119
C   C205      1.0  0.77800  0.30340  0.57940  1.0000 -0.1864330279
C   C206      1.0  0.30340  0.77800  0.92060  1.0000 -0.1864330279
C   C207      1.0  0.22200  0.69660  0.42060  1.0000 -0.1864330279
C   C208      1.0  0.69660  0.22200  0.07940  1.0000 -0.1864330279
C   C209      1.0  0.76570  0.14390  0.51510  1.0000 -0.431895597
C   C210      1.0  0.14390  0.76570  0.98490  1.0000 -0.431895597
C   C211      1.0  0.23430  0.85610  0.48490  1.0000 -0.431895597
C   C212      1.0  0.85610  0.23430  0.01510  1.0000 -0.431895597
C   C213      1.0  0.77850  0.37250  0.50460  1.0000 -0.4673435546
C   C214      1.0  0.37250  0.77850  0.99540  1.0000 -0.4673435546
C   C215      1.0  0.22150  0.62750  0.49540  1.0000 -0.4673435546
C   C216      1.0  0.62750  0.22150  0.00460  1.0000 -0.4673435546
O   O1        1.0  0.65210  0.33333  0.70430  1.0000 -0.5079853517
O   O2        1.0  0.33333  0.65210  0.79570  1.0000 -0.5079853517
O   O3        1.0  0.34790  0.66667  0.29570  1.0000 -0.5079853517
O   O4        1.0  0.66667  0.34790  0.20430  1.0000 -0.5079853517
O   O5        1.0  0.66667  0.22350  0.72570  1.0000 -0.5187553075
O   O6        1.0  0.22350  0.66667  0.77430  1.0000 -0.5187553075
O   O7        1.0  0.33333  0.77650  0.27430  1.0000 -0.5187553075
O   O8        1.0  0.77650  0.33333  0.22570  1.0000 -0.5187553075
O   O9        1.0  0.85460  0.25080  0.76150  1.0000 -0.5079853517
O   O10       1.0  0.25080  0.85460  0.73850  1.0000 -0.5079853517
O   O11       1.0  0.14540  0.74920  0.23850  1.0000 -0.5079853517
O   O12       1.0  0.74920  0.14540  0.26150  1.0000 -0.5079853517
O   O13       1.0  0.87350  0.14050  0.75890  1.0000 -0.5187553075
O   O14       1.0  0.14050  0.87350  0.74110  1.0000 -0.5187553075
O   O15       1.0  0.12650  0.85950  0.24110  1.0000 -0.5187553075
O   O16       1.0  0.85950  0.12650  0.25890  1.0000 -0.5187553075
O   O17       1.0  0.70440  0.26860  0.29410  1.0000 -0.5004513321
O   O18       1.0  0.26860  0.70440  0.20590  1.0000 -0.5004513321
O   O19       1.0  0.29560  0.73140  0.70590  1.0000 -0.5004513321
O   O20       1.0  0.73140  0.29560  0.79410  1.0000 -0.5004513321
O   O21       1.0  0.82060  0.23320  0.30670  1.0000 -0.5004513321
O   O22       1.0  0.23320  0.82060  0.19330  1.0000 -0.5004513321
O   O23       1.0  0.17940  0.76680  0.69330  1.0000 -0.5004513321
O   O24       1.0  0.76680  0.17940  0.80670  1.0000 -0.5004513321
O   O25       1.0  0.77320  0.29320  0.67210  1.0000 -0.5187553075
O   O26       1.0  0.29320  0.77320  0.82790  1.0000 -0.5187553075
O   O27       1.0  0.22680  0.70680  0.32790  1.0000 -0.5187553075
O   O28       1.0  0.70680  0.22680  0.17210  1.0000 -0.5187553075
O   O29       1.0  0.77080  0.19020  0.67670  1.0000 -0.5079853517
O   O30       1.0  0.19020  0.77080  0.82330  1.0000 -0.5079853517
O   O31       1.0  0.22920  0.80980  0.32330  1.0000 -0.5079853517
O   O32       1.0  0.80980  0.22920  0.17670  1.0000 -0.5079853517
O   O33       1.0  0.38460  0.03240  0.99240  1.0000 -0.5289469641
O   O34       1.0  0.03240  0.38460  0.50760  1.0000 -0.5289469641
O   O35       1.0  0.61540  0.96760  0.00760  1.0000 -0.5289469641
O   O36       1.0  0.96760  0.61540  0.49240  1.0000 -0.5289469641
O   O37       1.0  0.43950  0.99070  0.93600  1.0000 -0.4824437034
O   O38       1.0  0.99070  0.43950  0.56400  1.0000 -0.4824437034
O   O39       1.0  0.56050  0.00930  0.06400  1.0000 -0.4824437034
O   O40       1.0  0.00930  0.56050  0.43600  1.0000 -0.4824437034
O   O41       1.0  0.07250  0.50270  0.56130  1.0000 -0.5187553075
O   O42       1.0  0.50270  0.07250  0.93870  1.0000 -0.5187553075
O   O43       1.0  0.92750  0.49730  0.43870  1.0000 -0.5187553075
O   O44       1.0  0.49730  0.92750  0.06130  1.0000 -0.5187553075
O   O45       1.0  0.11630  0.44850  0.50550  1.0000 -0.5079853517
O   O46       1.0  0.44850  0.11630  0.99450  1.0000 -0.5079853517
O   O47       1.0  0.88370  0.55150  0.49450  1.0000 -0.5079853517
O   O48       1.0  0.55150  0.88370  0.00550  1.0000 -0.5079853517
