# DDEC6 charges by PACMAN v1.1 (https://github.com/mtap-research/PACMAN-charge/)
data_2012[CuMn][dia]3[ASR]1
_chemical_formula_sum              "Mn8 Cu16 H72 C96 I16 N16 O40"
_cell_length_a       18.0043
_cell_length_b       21.1164
_cell_length_c       18.1594
_cell_angle_alpha    90
_cell_angle_beta     93.344
_cell_angle_gamma    90

_symmetry_space_group_name_H-M    "P 1"
_symmetry_Int_Tables_number       1

loop_
  _symmetry_equiv_pos_as_xyz
  'x, y, z'

loop_
  _atom_site_type_symbol
  _atom_site_label
  _atom_site_symmetry_multiplicity
  _atom_site_fract_x
  _atom_site_fract_y
  _atom_site_fract_z
  _atom_site_occupancy
  _atom_site_charge
Mn  Mn1       1.0  0.69477  0.93726  0.98574  1.0000 0.9659261444
Mn  Mn2       1.0  0.30523  0.43726  0.51426  1.0000 0.9659261444
Mn  Mn3       1.0  0.34604  0.31497  0.64740  1.0000 1.1590445974
Mn  Mn4       1.0  0.65396  0.81497  0.85260  1.0000 1.1590445974
Mn  Mn5       1.0  0.30523  0.06274  0.01426  1.0000 0.9646071532
Mn  Mn6       1.0  0.69477  0.56274  0.48574  1.0000 0.9659261444
Mn  Mn7       1.0  0.65396  0.68503  0.35260  1.0000 1.1590445974
Mn  Mn8       1.0  0.34604  0.18503  0.14740  1.0000 1.1590445974
Cu  Cu1       1.0  0.73132  0.23000  0.48801  1.0000 0.1713252342
Cu  Cu2       1.0  0.26868  0.73000  0.01199  1.0000 0.1713252342
Cu  Cu3       1.0  0.79499  0.13660  0.40871  1.0000 0.2030912279
Cu  Cu4       1.0  0.20501  0.63660  0.09129  1.0000 0.2030912279
Cu  Cu5       1.0  0.79197  0.12981  0.55948  1.0000 0.1713252342
Cu  Cu6       1.0  0.20803  0.62981  0.94052  1.0000 0.1713252342
Cu  Cu7       1.0  0.88018  0.20922  0.49051  1.0000 0.1713252342
Cu  Cu8       1.0  0.11982  0.70922  0.00949  1.0000 0.1713252342
Cu  Cu9       1.0  0.26868  0.77000  0.51199  1.0000 0.1713252342
Cu  Cu10      1.0  0.73132  0.27000  0.98801  1.0000 0.1713252342
Cu  Cu11      1.0  0.20501  0.86340  0.59129  1.0000 0.205528442
Cu  Cu12      1.0  0.79499  0.36340  0.90871  1.0000 0.2030912279
Cu  Cu13      1.0  0.20803  0.87019  0.44052  1.0000 0.1713252342
Cu  Cu14      1.0  0.79197  0.37019  0.05948  1.0000 0.1713252342
Cu  Cu15      1.0  0.11982  0.79078  0.50949  1.0000 0.1713252342
Cu  Cu16      1.0  0.88018  0.29078  0.99051  1.0000 0.1713252342
H   H1        1.0  0.37630  0.21570  0.56490  1.0000 0.3966274598
H   H2        1.0  0.62370  0.71570  0.93510  1.0000 0.3966274598
H   H3        1.0  0.29890  0.29830  0.78070  1.0000 0.4169790336
H   H4        1.0  0.70110  0.79830  0.71930  1.0000 0.4169790336
H   H5        1.0  0.75710  0.00890  0.35850  1.0000 0.1179123597
H   H6        1.0  0.24290  0.50890  0.14150  1.0000 0.1179123597
H   H7        1.0  0.08940  0.35360  0.44830  1.0000 0.1481848109
H   H8        1.0  0.91060  0.85360  0.05170  1.0000 0.1481848109
H   H9        1.0  0.57550  0.21430  0.51510  1.0000 0.1117206292
H   H10       1.0  0.42450  0.71430  0.98490  1.0000 0.1117206292
H   H11       1.0  0.97340  0.30800  0.42870  1.0000 0.1117206292
H   H12       1.0  0.02660  0.80800  0.07130  1.0000 0.1117206292
H   H13       1.0  0.72250  0.95480  0.25290  1.0000 0.1481848109
H   H14       1.0  0.27750  0.45480  0.24710  1.0000 0.1481848109
H   H15       1.0  0.77730  0.10460  0.13700  1.0000 0.1365066098
H   H16       1.0  0.22270  0.60460  0.36300  1.0000 0.1365066098
H   H17       1.0  0.68130  0.36790  0.48700  1.0000 0.1257134864
H   H18       1.0  0.31870  0.86790  0.01300  1.0000 0.1257134864
H   H19       1.0  0.01510  0.19180  0.58500  1.0000 0.1117206292
H   H20       1.0  0.98490  0.69180  0.91500  1.0000 0.1117206292
H   H21       1.0  0.75450  0.99800  0.59290  1.0000 0.1179123597
H   H22       1.0  0.24550  0.49800  0.90710  1.0000 0.1179123597
H   H23       1.0  0.77470  0.14240  0.72060  1.0000 0.1117206292
H   H24       1.0  0.22530  0.64240  0.77940  1.0000 0.1117206292
H   H25       1.0  0.73190  0.08170  0.81790  1.0000 0.1481848109
H   H26       1.0  0.26810  0.58170  0.68210  1.0000 0.1481848109
H   H27       1.0  0.71920  0.93430  0.68560  1.0000 0.1481848109
H   H28       1.0  0.28080  0.43430  0.81440  1.0000 0.1481848109
H   H29       1.0  0.57660  0.42680  0.49670  1.0000 0.1606953034
H   H30       1.0  0.42340  0.92680  0.00330  1.0000 0.1606953034
H   H31       1.0  0.13040  0.23440  0.60950  1.0000 0.1606953034
H   H32       1.0  0.86960  0.73440  0.89050  1.0000 0.1606953034
H   H33       1.0  0.46750  0.26630  0.53590  1.0000 0.1365066098
H   H34       1.0  0.53250  0.76630  0.96410  1.0000 0.1365066098
H   H35       1.0  0.80520  0.15730  0.24460  1.0000 0.1117206292
H   H36       1.0  0.19480  0.65730  0.25540  1.0000 0.1117206292
H   H37       1.0  0.62370  0.78430  0.43510  1.0000 0.3966274598
H   H38       1.0  0.37630  0.28430  0.06490  1.0000 0.3966274598
H   H39       1.0  0.70110  0.70170  0.21930  1.0000 0.4169790336
H   H40       1.0  0.29890  0.20170  0.28070  1.0000 0.4169790336
H   H41       1.0  0.24290  0.99110  0.64150  1.0000 0.1179123597
H   H42       1.0  0.75710  0.49110  0.85850  1.0000 0.1179123597
H   H43       1.0  0.91060  0.64640  0.55170  1.0000 0.1481848109
H   H44       1.0  0.08940  0.14640  0.94830  1.0000 0.1481848109
H   H45       1.0  0.42450  0.78570  0.48490  1.0000 0.1117206292
H   H46       1.0  0.57550  0.28570  0.01510  1.0000 0.1117206292
H   H47       1.0  0.02660  0.69200  0.57130  1.0000 0.1117206292
H   H48       1.0  0.97340  0.19200  0.92870  1.0000 0.1117206292
H   H49       1.0  0.27750  0.04520  0.74710  1.0000 0.1481848109
H   H50       1.0  0.72250  0.54520  0.75290  1.0000 0.1481848109
H   H51       1.0  0.22270  0.89540  0.86300  1.0000 0.1365066098
H   H52       1.0  0.77730  0.39540  0.63700  1.0000 0.1365066098
H   H53       1.0  0.31870  0.63210  0.51300  1.0000 0.1257134864
H   H54       1.0  0.68130  0.13210  0.98700  1.0000 0.1257134864
H   H55       1.0  0.98490  0.80820  0.41500  1.0000 0.1117206292
H   H56       1.0  0.01510  0.30820  0.08500  1.0000 0.1117206292
H   H57       1.0  0.24550  0.00200  0.40710  1.0000 0.1179123597
H   H58       1.0  0.75450  0.50200  0.09290  1.0000 0.1179123597
H   H59       1.0  0.22530  0.85760  0.27940  1.0000 0.1117206292
H   H60       1.0  0.77470  0.35760  0.22060  1.0000 0.1117206292
H   H61       1.0  0.26810  0.91830  0.18210  1.0000 0.1481848109
H   H62       1.0  0.73190  0.41830  0.31790  1.0000 0.1481848109
H   H63       1.0  0.28080  0.06570  0.31440  1.0000 0.1481848109
H   H64       1.0  0.71920  0.56570  0.18560  1.0000 0.1481848109
H   H65       1.0  0.42340  0.57320  0.50330  1.0000 0.1606953034
H   H66       1.0  0.57660  0.07320  0.99670  1.0000 0.1606953034
H   H67       1.0  0.86960  0.76560  0.39050  1.0000 0.1606953034
H   H68       1.0  0.13040  0.26560  0.10950  1.0000 0.1606953034
H   H69       1.0  0.53250  0.73370  0.46410  1.0000 0.1365066098
H   H70       1.0  0.46750  0.23370  0.03590  1.0000 0.1365066098
H   H71       1.0  0.19480  0.84270  0.75540  1.0000 0.1117206292
H   H72       1.0  0.80520  0.34270  0.74460  1.0000 0.1117206292
C   C1        1.0  0.76030  0.02920  0.31340  1.0000 0.0908674685
C   C2        1.0  0.23970  0.52920  0.18660  1.0000 0.0908674685
C   C3        1.0  0.07490  0.32120  0.47900  1.0000 -0.1401066393
C   C4        1.0  0.92510  0.82120  0.02100  1.0000 -0.1401066393
C   C5        1.0  0.57580  0.25830  0.51280  1.0000 0.097949506
C   C6        1.0  0.42420  0.75830  0.98720  1.0000 0.097949506
C   C7        1.0  0.00520  0.29270  0.46680  1.0000 0.0908674685
C   C8        1.0  0.99480  0.79270  0.03320  1.0000 0.0908674685
C   C9        1.0  0.74000  0.99600  0.24960  1.0000 -0.1401066393
C   C10       1.0  0.26000  0.49600  0.25040  1.0000 -0.1401066393
C   C11       1.0  0.77150  0.08410  0.18160  1.0000 -0.1286101396
C   C12       1.0  0.22850  0.58410  0.31840  1.0000 -0.1286101396
C   C13       1.0  0.43710  0.38510  0.52350  1.0000 0.5717187563
C   C14       1.0  0.56290  0.88510  0.97650  1.0000 0.5717187563
C   C15       1.0  0.63690  0.34730  0.49510  1.0000 0.0654775837
C   C16       1.0  0.36310  0.84730  0.00490  1.0000 0.0654775837
C   C17       1.0  0.02910  0.22610  0.55670  1.0000 0.097949506
C   C18       1.0  0.97090  0.72610  0.94330  1.0000 0.097949506
C   C19       1.0  0.69710  0.95920  0.82450  1.0000 0.5980489069
C   C20       1.0  0.30290  0.45920  0.67550  1.0000 0.5980489069
C   C21       1.0  0.75120  0.01570  0.63950  1.0000 0.0908674685
C   C22       1.0  0.24880  0.51570  0.86050  1.0000 0.0908674685
C   C23       1.0  0.76220  0.10010  0.71290  1.0000 0.0908674685
C   C24       1.0  0.23780  0.60010  0.78710  1.0000 0.0908674685
C   C25       1.0  0.73790  0.06310  0.77220  1.0000 -0.1214194229
C   C26       1.0  0.26210  0.56310  0.72780  1.0000 -0.1214194229
C   C27       1.0  0.72460  0.98940  0.11020  1.0000 0.5326748082
C   C28       1.0  0.27540  0.48940  0.38980  1.0000 0.5326748082
C   C29       1.0  0.72950  0.97680  0.69490  1.0000 -0.1286101396
C   C30       1.0  0.27050  0.47680  0.80510  1.0000 -0.1401066393
C   C31       1.0  0.74550  0.02320  0.18170  1.0000 0.02764407
C   C32       1.0  0.25450  0.52320  0.31830  1.0000 0.02764407
C   C33       1.0  0.72350  0.00080  0.76210  1.0000 0.020856979
C   C34       1.0  0.27650  0.50080  0.73790  1.0000 0.020856979
C   C35       1.0  0.57470  0.38290  0.50120  1.0000 -0.1286101396
C   C36       1.0  0.42530  0.88290  0.99880  1.0000 -0.1214194229
C   C37       1.0  0.09880  0.25180  0.57260  1.0000 -0.1401066393
C   C38       1.0  0.90120  0.75180  0.92740  1.0000 -0.1401066393
C   C39       1.0  0.50970  0.28830  0.52330  1.0000 -0.1561215928
C   C40       1.0  0.49030  0.78830  0.97670  1.0000 -0.1561215928
C   C41       1.0  0.19760  0.33500  0.54960  1.0000 0.5980489069
C   C42       1.0  0.80240  0.83500  0.95040  1.0000 0.5980489069
C   C43       1.0  0.78910  0.11560  0.24690  1.0000 0.0908674685
C   C44       1.0  0.21090  0.61560  0.25310  1.0000 0.0908674685
C   C45       1.0  0.50960  0.35320  0.51400  1.0000 0.02764407
C   C46       1.0  0.49040  0.85320  0.98600  1.0000 0.020856979
C   C47       1.0  0.12030  0.30160  0.53480  1.0000 0.020856979
C   C48       1.0  0.87970  0.80160  0.96520  1.0000 0.02764407
C   C49       1.0  0.23970  0.97080  0.68660  1.0000 0.0908674685
C   C50       1.0  0.76030  0.47080  0.81340  1.0000 0.0908674685
C   C51       1.0  0.92510  0.67880  0.52100  1.0000 -0.1401066393
C   C52       1.0  0.07490  0.17880  0.97900  1.0000 -0.1401066393
C   C53       1.0  0.42420  0.74170  0.48720  1.0000 0.097949506
C   C54       1.0  0.57580  0.24170  0.01280  1.0000 0.097949506
C   C55       1.0  0.99480  0.70730  0.53320  1.0000 0.0908674685
C   C56       1.0  0.00520  0.20730  0.96680  1.0000 0.0908674685
C   C57       1.0  0.26000  0.00400  0.75040  1.0000 -0.1401066393
C   C58       1.0  0.74000  0.50400  0.74960  1.0000 -0.1401066393
C   C59       1.0  0.22850  0.91590  0.81840  1.0000 -0.1286101396
C   C60       1.0  0.77150  0.41590  0.68160  1.0000 -0.1286101396
C   C61       1.0  0.56290  0.61490  0.47650  1.0000 0.5717187563
C   C62       1.0  0.43710  0.11490  0.02350  1.0000 0.5717187563
C   C63       1.0  0.36310  0.65270  0.50490  1.0000 0.0654775837
C   C64       1.0  0.63690  0.15270  0.99510  1.0000 0.0648775736
C   C65       1.0  0.97090  0.77390  0.44330  1.0000 0.097949506
C   C66       1.0  0.02910  0.27390  0.05670  1.0000 0.097949506
C   C67       1.0  0.30290  0.04080  0.17550  1.0000 0.5980489069
C   C68       1.0  0.69710  0.54080  0.32450  1.0000 0.5980489069
C   C69       1.0  0.24880  0.98430  0.36050  1.0000 0.0908674685
C   C70       1.0  0.75120  0.48430  0.13950  1.0000 0.0908674685
C   C71       1.0  0.23780  0.89990  0.28710  1.0000 0.0908674685
C   C72       1.0  0.76220  0.39990  0.21290  1.0000 0.0908674685
C   C73       1.0  0.26210  0.93690  0.22780  1.0000 -0.1214194229
C   C74       1.0  0.73790  0.43690  0.27220  1.0000 -0.1214194229
C   C75       1.0  0.27540  0.01060  0.88980  1.0000 0.5326748082
C   C76       1.0  0.72460  0.51060  0.61020  1.0000 0.5326748082
C   C77       1.0  0.27050  0.02320  0.30510  1.0000 -0.1401066393
C   C78       1.0  0.72950  0.52320  0.19490  1.0000 -0.1401066393
C   C79       1.0  0.25450  0.97680  0.81830  1.0000 0.02764407
C   C80       1.0  0.74550  0.47680  0.68170  1.0000 0.02764407
C   C81       1.0  0.27650  0.99920  0.23790  1.0000 0.020856979
C   C82       1.0  0.72350  0.49920  0.26210  1.0000 0.020856979
C   C83       1.0  0.42530  0.61710  0.49880  1.0000 -0.1286101396
C   C84       1.0  0.57470  0.11710  0.00120  1.0000 -0.1286101396
C   C85       1.0  0.90120  0.74820  0.42740  1.0000 -0.1401066393
C   C86       1.0  0.09880  0.24820  0.07260  1.0000 -0.1401066393
C   C87       1.0  0.49030  0.71170  0.47670  1.0000 -0.1561215928
C   C88       1.0  0.50970  0.21170  0.02330  1.0000 -0.1561215928
C   C89       1.0  0.80240  0.66500  0.45040  1.0000 0.5980489069
C   C90       1.0  0.19760  0.16500  0.04960  1.0000 0.5980489069
C   C91       1.0  0.21090  0.88440  0.75310  1.0000 0.0908674685
C   C92       1.0  0.78910  0.38440  0.74690  1.0000 0.0908674685
C   C93       1.0  0.49040  0.64680  0.48600  1.0000 0.020856979
C   C94       1.0  0.50960  0.14680  0.01400  1.0000 0.020856979
C   C95       1.0  0.87970  0.69840  0.46520  1.0000 0.02764407
C   C96       1.0  0.12030  0.19840  0.03480  1.0000 0.020856979
I   I1        1.0  0.80872  0.26045  0.37244  1.0000 -0.3105887434
I   I2        1.0  0.19128  0.76045  0.12756  1.0000 -0.3105887434
I   I3        1.0  0.81538  0.24517  0.61466  1.0000 -0.3180848694
I   I4        1.0  0.18462  0.74517  0.88534  1.0000 -0.3180848694
I   I5        1.0  0.90610  0.08198  0.49038  1.0000 -0.2941209039
I   I6        1.0  0.09390  0.58198  0.00962  1.0000 -0.2962757012
I   I7        1.0  0.66760  0.11056  0.47037  1.0000 -0.3267758748
I   I8        1.0  0.33240  0.61056  0.02963  1.0000 -0.3267758748
I   I9        1.0  0.19128  0.73955  0.62756  1.0000 -0.3105887434
I   I10       1.0  0.80872  0.23955  0.87244  1.0000 -0.3105887434
I   I11       1.0  0.18462  0.75483  0.38534  1.0000 -0.3180848694
I   I12       1.0  0.81538  0.25483  0.11466  1.0000 -0.3180848694
I   I13       1.0  0.09390  0.91802  0.50962  1.0000 -0.2962757012
I   I14       1.0  0.90610  0.41802  0.99038  1.0000 -0.2941209039
I   I15       1.0  0.33240  0.88944  0.52963  1.0000 -0.3267758748
I   I16       1.0  0.66760  0.38944  0.97037  1.0000 -0.3267758748
N   N1        1.0  0.98250  0.24590  0.50610  1.0000 -0.1700442544
N   N2        1.0  0.01750  0.74590  0.99390  1.0000 -0.1700442544
N   N3        1.0  0.78410  0.08910  0.31300  1.0000 -0.1481072392
N   N4        1.0  0.21590  0.58910  0.18700  1.0000 -0.1481072392
N   N5        1.0  0.76720  0.07490  0.64730  1.0000 -0.1481072392
N   N6        1.0  0.23280  0.57490  0.85270  1.0000 -0.1481072392
N   N7        1.0  0.63760  0.28450  0.50010  1.0000 -0.1481072392
N   N8        1.0  0.36240  0.78450  0.99990  1.0000 -0.1481072392
N   N9        1.0  0.01750  0.75410  0.49390  1.0000 -0.1700442544
N   N10       1.0  0.98250  0.25410  0.00610  1.0000 -0.1700442544
N   N11       1.0  0.21590  0.91090  0.68700  1.0000 -0.1481072392
N   N12       1.0  0.78410  0.41090  0.81300  1.0000 -0.1481072392
N   N13       1.0  0.23280  0.92510  0.35270  1.0000 -0.1481072392
N   N14       1.0  0.76720  0.42510  0.14730  1.0000 -0.1481072392
N   N15       1.0  0.36240  0.71550  0.49990  1.0000 -0.1481072392
N   N16       1.0  0.63760  0.21550  0.00010  1.0000 -0.1481072392
O   O1        1.0  0.36150  0.21480  0.60680  1.0000 -0.8565343729
O   O2        1.0  0.63850  0.71480  0.89320  1.0000 -0.8565343729
O   O3        1.0  0.30970  0.27050  0.75170  1.0000 -0.8687955401
O   O4        1.0  0.69030  0.77050  0.74830  1.0000 -0.8687955401
O   O5        1.0  0.23740  0.30770  0.59890  1.0000 -0.5388766638
O   O6        1.0  0.76260  0.80770  0.90110  1.0000 -0.5388766638
O   O7        1.0  0.70140  0.98500  0.88620  1.0000 -0.5107351867
O   O8        1.0  0.29860  0.48500  0.61380  1.0000 -0.5107351867
O   O9        1.0  0.70480  0.93250  0.11370  1.0000 -0.5107351867
O   O10       1.0  0.29520  0.43250  0.38630  1.0000 -0.5107351867
O   O11       1.0  0.67560  0.90600  0.80710  1.0000 -0.5634934714
O   O12       1.0  0.32440  0.40600  0.69290  1.0000 -0.5634934714
O   O13       1.0  0.43170  0.44240  0.50150  1.0000 -0.486025255
O   O14       1.0  0.56830  0.94240  0.99850  1.0000 -0.486025255
O   O15       1.0  0.72860  0.01830  0.05260  1.0000 -0.5002501696
O   O16       1.0  0.27140  0.51830  0.44740  1.0000 -0.5002501696
O   O17       1.0  0.21030  0.38380  0.51690  1.0000 -0.5002501696
O   O18       1.0  0.78970  0.88380  0.98310  1.0000 -0.5107351867
O   O19       1.0  0.38110  0.35720  0.54340  1.0000 -0.5807217023
O   O20       1.0  0.61890  0.85720  0.95660  1.0000 -0.5807217023
O   O21       1.0  0.63850  0.78520  0.39320  1.0000 -0.8565343729
O   O22       1.0  0.36150  0.28520  0.10680  1.0000 -0.8565343729
O   O23       1.0  0.69030  0.72950  0.24830  1.0000 -0.8687955401
O   O24       1.0  0.30970  0.22950  0.25170  1.0000 -0.8687955401
O   O25       1.0  0.76260  0.69230  0.40110  1.0000 -0.5388766638
O   O26       1.0  0.23740  0.19230  0.09890  1.0000 -0.5388766638
O   O27       1.0  0.29860  0.01500  0.11380  1.0000 -0.5107351867
O   O28       1.0  0.70140  0.51500  0.38620  1.0000 -0.5107351867
O   O29       1.0  0.29520  0.06750  0.88630  1.0000 -0.5107351867
O   O30       1.0  0.70480  0.56750  0.61370  1.0000 -0.5107351867
O   O31       1.0  0.32440  0.09400  0.19290  1.0000 -0.5634934714
O   O32       1.0  0.67560  0.59400  0.30710  1.0000 -0.5634934714
O   O33       1.0  0.56830  0.55760  0.49850  1.0000 -0.486025255
O   O34       1.0  0.43170  0.05760  0.00150  1.0000 -0.486025255
O   O35       1.0  0.27140  0.98170  0.94740  1.0000 -0.5002501696
O   O36       1.0  0.72860  0.48170  0.55260  1.0000 -0.5002501696
O   O37       1.0  0.78970  0.61620  0.48310  1.0000 -0.5002501696
O   O38       1.0  0.21030  0.11620  0.01690  1.0000 -0.5002501696
O   O39       1.0  0.61890  0.64280  0.45660  1.0000 -0.5807217023
O   O40       1.0  0.38110  0.14280  0.04340  1.0000 -0.5807217023
