# DDEC6 charges by PACMAN v1.1 (https://github.com/mtap-research/PACMAN-charge/)
data_2012[Cu][tbo]3[ASR]8
_chemical_formula_sum              "Cu12 H24 C72 O48"
_cell_length_a       18.598
_cell_length_b       18.598
_cell_length_c       18.598
_cell_angle_alpha    60
_cell_angle_beta     60
_cell_angle_gamma    60

_symmetry_space_group_name_H-M    "P 1"
_symmetry_Int_Tables_number       1

loop_
  _symmetry_equiv_pos_as_xyz
  'x, y, z'

loop_
  _atom_site_type_symbol
  _atom_site_label
  _atom_site_symmetry_multiplicity
  _atom_site_fract_x
  _atom_site_fract_y
  _atom_site_fract_z
  _atom_site_occupancy
  _atom_site_charge
Cu  Cu1       1.0  0.00000  0.00000  0.42948  1.0000 0.8518009455
Cu  Cu2       1.0  0.00000  0.42948  0.00000  1.0000 0.8518009455
Cu  Cu3       1.0  0.42948  0.00000  0.00000  1.0000 0.8518009455
Cu  Cu4       1.0  0.00000  0.00000  0.57052  1.0000 0.8518009455
Cu  Cu5       1.0  0.42948  0.00000  0.57052  1.0000 0.8518009455
Cu  Cu6       1.0  1.00000  0.42948  0.57052  1.0000 0.8518009455
Cu  Cu7       1.0  0.57052  0.00000  0.42948  1.0000 0.8518009455
Cu  Cu8       1.0  0.57052  0.00000  0.00000  1.0000 0.8518009455
Cu  Cu9       1.0  0.00000  0.57052  0.42948  1.0000 0.8518009455
Cu  Cu10      1.0  0.42948  0.57052  0.00000  1.0000 0.8518009455
Cu  Cu11      1.0  0.00000  0.57052  0.00000  1.0000 0.8518009455
Cu  Cu12      1.0  0.57052  0.42948  0.00000  1.0000 0.8518009455
H   H1        1.0  0.27120  0.96820  0.48940  1.0000 0.1382292729
H   H2        1.0  0.96820  0.48940  0.27120  1.0000 0.1382292729
H   H3        1.0  0.48940  0.27120  0.96820  1.0000 0.1382292729
H   H4        1.0  0.96820  0.27120  0.27120  1.0000 0.1382292729
H   H5        1.0  0.48940  0.96820  0.27120  1.0000 0.1382292729
H   H6        1.0  0.27120  0.48940  0.27120  1.0000 0.1382292729
H   H7        1.0  0.27120  0.27120  0.48940  1.0000 0.1382292729
H   H8        1.0  0.27120  0.96820  0.27120  1.0000 0.1382292729
H   H9        1.0  0.96820  0.27120  0.48940  1.0000 0.1382292729
H   H10       1.0  0.48940  0.27120  0.27120  1.0000 0.1382292729
H   H11       1.0  0.27120  0.27120  0.96820  1.0000 0.1382292729
H   H12       1.0  0.27120  0.48940  0.96820  1.0000 0.1382292729
H   H13       1.0  0.03180  0.72880  0.51060  1.0000 0.1382292729
H   H14       1.0  0.51060  0.03180  0.72880  1.0000 0.1382292729
H   H15       1.0  0.72880  0.51060  0.03180  1.0000 0.1382292729
H   H16       1.0  0.72880  0.03180  0.72880  1.0000 0.1382292729
H   H17       1.0  0.03180  0.51060  0.72880  1.0000 0.1382292729
H   H18       1.0  0.51060  0.72880  0.72880  1.0000 0.1382292729
H   H19       1.0  0.72880  0.72880  0.51060  1.0000 0.1382292729
H   H20       1.0  0.03180  0.72880  0.72880  1.0000 0.1382292729
H   H21       1.0  0.72880  0.03180  0.51060  1.0000 0.1382292729
H   H22       1.0  0.72880  0.51060  0.72880  1.0000 0.1382292729
H   H23       1.0  0.72880  0.72880  0.03180  1.0000 0.1382292729
H   H24       1.0  0.51060  0.72880  0.03180  1.0000 0.1382292729
C   C1        1.0  0.30058  0.96856  0.43028  1.0000 -0.0884612231
C   C2        1.0  0.96856  0.43028  0.30058  1.0000 -0.0884612231
C   C3        1.0  0.43028  0.30058  0.96856  1.0000 -0.0884612231
C   C4        1.0  0.96856  0.30058  0.30058  1.0000 -0.0884612231
C   C5        1.0  0.43028  0.96856  0.30058  1.0000 -0.0884612231
C   C6        1.0  0.30058  0.43028  0.30058  1.0000 -0.0884612231
C   C7        1.0  0.30058  0.30058  0.43028  1.0000 -0.0884612231
C   C8        1.0  0.30058  0.96856  0.30058  1.0000 -0.0884612231
C   C9        1.0  0.96856  0.30058  0.43028  1.0000 -0.0884612231
C   C10       1.0  0.43028  0.30058  0.30058  1.0000 -0.0884612231
C   C11       1.0  0.30058  0.30058  0.96856  1.0000 -0.0884612231
C   C12       1.0  0.30058  0.43028  0.96856  1.0000 -0.0884612231
C   C13       1.0  0.03144  0.69942  0.56972  1.0000 -0.0884612231
C   C14       1.0  0.56972  0.03144  0.69942  1.0000 -0.0884612231
C   C15       1.0  0.69942  0.56972  0.03144  1.0000 -0.0884612231
C   C16       1.0  0.69942  0.03144  0.69942  1.0000 -0.0884612231
C   C17       1.0  0.03144  0.56972  0.69942  1.0000 -0.0884612231
C   C18       1.0  0.56972  0.69942  0.69942  1.0000 -0.0884612231
C   C19       1.0  0.69942  0.69942  0.56972  1.0000 -0.0884612231
C   C20       1.0  0.03144  0.69942  0.69942  1.0000 -0.0884612231
C   C21       1.0  0.69942  0.03144  0.56972  1.0000 -0.0884612231
C   C22       1.0  0.69942  0.56972  0.69942  1.0000 -0.0884612231
C   C23       1.0  0.69942  0.69942  0.03144  1.0000 -0.0884612231
C   C24       1.0  0.56972  0.69942  0.03144  1.0000 -0.0884612231
C   C25       1.0  0.25739  0.96887  0.38687  1.0000 -0.0244114837
C   C26       1.0  0.96887  0.38687  0.25739  1.0000 -0.0244114837
C   C27       1.0  0.38687  0.25739  0.96887  1.0000 -0.0244114837
C   C28       1.0  0.96887  0.25739  0.38687  1.0000 -0.0244114837
C   C29       1.0  0.38687  0.96887  0.38687  1.0000 -0.0244114837
C   C30       1.0  0.25739  0.38687  0.38687  1.0000 -0.0244114837
C   C31       1.0  0.38687  0.25739  0.38687  1.0000 -0.0244114837
C   C32       1.0  0.38687  0.96887  0.25739  1.0000 -0.0244114837
C   C33       1.0  0.96887  0.38687  0.38687  1.0000 -0.0244114837
C   C34       1.0  0.38687  0.38687  0.25739  1.0000 -0.0244114837
C   C35       1.0  0.25739  0.38687  0.96887  1.0000 -0.0244114837
C   C36       1.0  0.38687  0.38687  0.96887  1.0000 -0.0244114837
C   C37       1.0  0.03113  0.74261  0.61313  1.0000 -0.0244114837
C   C38       1.0  0.61313  0.03113  0.74261  1.0000 -0.0244114837
C   C39       1.0  0.74261  0.61313  0.03113  1.0000 -0.0244114837
C   C40       1.0  0.74261  0.03113  0.61313  1.0000 -0.0244114837
C   C41       1.0  0.03113  0.61313  0.61313  1.0000 -0.0244114837
C   C42       1.0  0.61313  0.74261  0.61313  1.0000 -0.0244114837
C   C43       1.0  0.74261  0.61313  0.61313  1.0000 -0.0244114837
C   C44       1.0  0.03113  0.61313  0.74261  1.0000 -0.0244114837
C   C45       1.0  0.61313  0.03113  0.61313  1.0000 -0.0244114837
C   C46       1.0  0.61313  0.61313  0.74261  1.0000 -0.0244114837
C   C47       1.0  0.61313  0.74261  0.03113  1.0000 -0.0244114837
C   C48       1.0  0.61313  0.61313  0.03113  1.0000 -0.0244114837
C   C49       1.0  0.16203  0.97599  0.43099  1.0000 0.5791634789
C   C50       1.0  0.97599  0.43099  0.16203  1.0000 0.5791634789
C   C51       1.0  0.43099  0.16203  0.97599  1.0000 0.5791634789
C   C52       1.0  0.97599  0.16203  0.43099  1.0000 0.5791634789
C   C53       1.0  0.43099  0.97599  0.43099  1.0000 0.5791634789
C   C54       1.0  0.16203  0.43099  0.43099  1.0000 0.5791634789
C   C55       1.0  0.43099  0.16203  0.43099  1.0000 0.5791634789
C   C56       1.0  0.43099  0.97599  0.16203  1.0000 0.5791634789
C   C57       1.0  0.97599  0.43099  0.43099  1.0000 0.5791634789
C   C58       1.0  0.43099  0.43099  0.16203  1.0000 0.5791634789
C   C59       1.0  0.16203  0.43099  0.97599  1.0000 0.5791634789
C   C60       1.0  0.43099  0.43099  0.97599  1.0000 0.5791634789
C   C61       1.0  0.02401  0.83797  0.56901  1.0000 0.5791634789
C   C62       1.0  0.56901  0.02401  0.83797  1.0000 0.5791634789
C   C63       1.0  0.83797  0.56901  0.02401  1.0000 0.5791634789
C   C64       1.0  0.83797  0.02401  0.56901  1.0000 0.5791634789
C   C65       1.0  0.02401  0.56901  0.56901  1.0000 0.5791634789
C   C66       1.0  0.56901  0.83797  0.56901  1.0000 0.5791634789
C   C67       1.0  0.83797  0.56901  0.56901  1.0000 0.5791634789
C   C68       1.0  0.02401  0.56901  0.83797  1.0000 0.5791634789
C   C69       1.0  0.56901  0.02401  0.56901  1.0000 0.5791634789
C   C70       1.0  0.56901  0.56901  0.83797  1.0000 0.5791634789
C   C71       1.0  0.56901  0.83797  0.02401  1.0000 0.5791634789
C   C72       1.0  0.56901  0.56901  0.02401  1.0000 0.5791634789
O   O1        1.0  0.12615  0.97867  0.38759  1.0000 -0.5152102588
O   O2        1.0  0.97867  0.38759  0.12615  1.0000 -0.5152102588
O   O3        1.0  0.38759  0.12615  0.97867  1.0000 -0.5152102588
O   O4        1.0  0.97867  0.12615  0.50759  1.0000 -0.5152102588
O   O5        1.0  0.38759  0.97867  0.50759  1.0000 -0.5152102588
O   O6        1.0  0.12615  0.38759  0.50759  1.0000 -0.5152102588
O   O7        1.0  0.50759  0.12615  0.38759  1.0000 -0.5152102588
O   O8        1.0  0.50759  0.97867  0.12615  1.0000 -0.5152102588
O   O9        1.0  0.97867  0.50759  0.38759  1.0000 -0.5152102588
O   O10       1.0  0.38759  0.50759  0.12615  1.0000 -0.5152102588
O   O11       1.0  0.12615  0.50759  0.97867  1.0000 -0.5152102588
O   O12       1.0  0.50759  0.38759  0.97867  1.0000 -0.5152102588
O   O13       1.0  0.02133  0.87385  0.61241  1.0000 -0.5152102588
O   O14       1.0  0.61241  0.02133  0.87385  1.0000 -0.5152102588
O   O15       1.0  0.87385  0.61241  0.02133  1.0000 -0.5152102588
O   O16       1.0  0.87385  0.02133  0.49241  1.0000 -0.5152102588
O   O17       1.0  0.02133  0.61241  0.49241  1.0000 -0.5152102588
O   O18       1.0  0.61241  0.87385  0.49241  1.0000 -0.5152102588
O   O19       1.0  0.87385  0.49241  0.61241  1.0000 -0.5152102588
O   O20       1.0  0.02133  0.49241  0.87385  1.0000 -0.5152102588
O   O21       1.0  0.49241  0.02133  0.61241  1.0000 -0.5152102588
O   O22       1.0  0.49241  0.61241  0.87385  1.0000 -0.5152102588
O   O23       1.0  0.49241  0.87385  0.02133  1.0000 -0.5152102588
O   O24       1.0  0.61241  0.49241  0.02133  1.0000 -0.5152102588
O   O25       1.0  0.87385  0.02133  0.61241  1.0000 -0.5152102588
O   O26       1.0  0.02133  0.61241  0.87385  1.0000 -0.5152102588
O   O27       1.0  0.61241  0.87385  0.02133  1.0000 -0.5152102588
O   O28       1.0  0.02133  0.87385  0.49241  1.0000 -0.5152102588
O   O29       1.0  0.61241  0.02133  0.49241  1.0000 -0.5152102588
O   O30       1.0  0.87385  0.61241  0.49241  1.0000 -0.5152102588
O   O31       1.0  0.49241  0.87385  0.61241  1.0000 -0.5152102588
O   O32       1.0  0.49241  0.02133  0.87385  1.0000 -0.5152102588
O   O33       1.0  0.02133  0.49241  0.61241  1.0000 -0.5152102588
O   O34       1.0  0.61241  0.49241  0.87385  1.0000 -0.5152102588
O   O35       1.0  0.87385  0.49241  0.02133  1.0000 -0.5152102588
O   O36       1.0  0.49241  0.61241  0.02133  1.0000 -0.5152102588
O   O37       1.0  0.97867  0.12615  0.38759  1.0000 -0.5152102588
O   O38       1.0  0.38759  0.97867  0.12615  1.0000 -0.5152102588
O   O39       1.0  0.12615  0.38759  0.97867  1.0000 -0.5152102588
O   O40       1.0  0.12615  0.97867  0.50759  1.0000 -0.5152102588
O   O41       1.0  0.97867  0.38759  0.50759  1.0000 -0.5152102588
O   O42       1.0  0.38759  0.12615  0.50759  1.0000 -0.5152102588
O   O43       1.0  0.12615  0.50759  0.38759  1.0000 -0.5152102588
O   O44       1.0  0.97867  0.50759  0.12615  1.0000 -0.5152102588
O   O45       1.0  0.50759  0.97867  0.38759  1.0000 -0.5152102588
O   O46       1.0  0.50759  0.38759  0.12615  1.0000 -0.5152102588
O   O47       1.0  0.50759  0.12615  0.97867  1.0000 -0.5152102588
O   O48       1.0  0.38759  0.50759  0.97867  1.0000 -0.5152102588
