# DDEC6 charges by PACMAN v1.1 (https://github.com/mtap-research/PACMAN-charge/)
data_2012[FeZr][csq]3[ASR]2
_chemical_formula_sum              "Zr18 Fe6 H144 C288 N24 Cl12 O72"
_cell_length_a       42.68
_cell_length_b       42.68
_cell_length_c       16.66
_cell_angle_alpha    90
_cell_angle_beta     90
_cell_angle_gamma    120

_symmetry_space_group_name_H-M    "P 1"
_symmetry_Int_Tables_number       1

loop_
  _symmetry_equiv_pos_as_xyz
  'x, y, z'

loop_
  _atom_site_type_symbol
  _atom_site_label
  _atom_site_symmetry_multiplicity
  _atom_site_fract_x
  _atom_site_fract_y
  _atom_site_fract_z
  _atom_site_occupancy
  _atom_site_charge
Zr  Zr1       1.0  0.00000  0.45878  0.60564  1.0000 2.4582012879
Zr  Zr2       1.0  0.54122  0.54122  0.60564  1.0000 2.4582012879
Zr  Zr3       1.0  0.45878  0.00000  0.60564  1.0000 2.4582012879
Zr  Zr4       1.0  0.00000  0.54122  0.60564  1.0000 2.4582012879
Zr  Zr5       1.0  0.45878  0.45878  0.60564  1.0000 2.4582012879
Zr  Zr6       1.0  0.54122  0.00000  0.60564  1.0000 2.4582012879
Zr  Zr7       1.0  0.45878  0.00000  0.39436  1.0000 2.4582012879
Zr  Zr8       1.0  0.54122  0.54122  0.39436  1.0000 2.4582012879
Zr  Zr9       1.0  0.00000  0.45878  0.39436  1.0000 2.4582012879
Zr  Zr10      1.0  0.54122  0.00000  0.39436  1.0000 2.4582012879
Zr  Zr11      1.0  0.45878  0.45878  0.39436  1.0000 2.4582012879
Zr  Zr12      1.0  0.00000  0.54122  0.39436  1.0000 2.4582012879
Zr  Zr13      1.0  0.06648  0.53324  0.50000  1.0000 2.3609821386
Zr  Zr14      1.0  0.46676  0.53324  0.50000  1.0000 2.3609821386
Zr  Zr15      1.0  0.46676  0.93352  0.50000  1.0000 2.3609821386
Zr  Zr16      1.0  0.93352  0.46676  0.50000  1.0000 2.3609821386
Zr  Zr17      1.0  0.53324  0.46676  0.50000  1.0000 2.3609821386
Zr  Zr18      1.0  0.53324  0.06648  0.50000  1.0000 2.3609821386
Fe  Fe1       1.0  0.24760  0.75240  0.00000  1.0000 0.608047806
Fe  Fe2       1.0  0.24760  0.49520  0.00000  1.0000 0.6167648422
Fe  Fe3       1.0  0.50480  0.75240  0.00000  1.0000 0.608047806
Fe  Fe4       1.0  0.75240  0.24760  0.00000  1.0000 0.608047806
Fe  Fe5       1.0  0.75240  0.50480  0.00000  1.0000 0.608047806
Fe  Fe6       1.0  0.49520  0.24760  0.00000  1.0000 0.608047806
H   H1        1.0  0.13130  0.63530  0.92780  1.0000 0.1195480464
H   H2        1.0  0.36470  0.49600  0.92780  1.0000 0.1195480464
H   H3        1.0  0.50400  0.86870  0.92780  1.0000 0.1195480464
H   H4        1.0  0.86870  0.36470  0.92780  1.0000 0.1195480464
H   H5        1.0  0.63530  0.50400  0.92780  1.0000 0.1195480464
H   H6        1.0  0.49600  0.13130  0.92780  1.0000 0.1195480464
H   H7        1.0  0.63530  0.13130  0.07220  1.0000 0.1195480464
H   H8        1.0  0.49600  0.36470  0.07220  1.0000 0.1195480464
H   H9        1.0  0.86870  0.50400  0.07220  1.0000 0.1195480464
H   H10       1.0  0.36470  0.86870  0.07220  1.0000 0.1195480464
H   H11       1.0  0.50400  0.63530  0.07220  1.0000 0.1195480464
H   H12       1.0  0.13130  0.49600  0.07220  1.0000 0.1195480464
H   H13       1.0  0.86870  0.36470  0.07220  1.0000 0.1195480464
H   H14       1.0  0.63530  0.50400  0.07220  1.0000 0.1195480464
H   H15       1.0  0.49600  0.13130  0.07220  1.0000 0.1195480464
H   H16       1.0  0.13130  0.63530  0.07220  1.0000 0.1195480464
H   H17       1.0  0.36470  0.49600  0.07220  1.0000 0.1195480464
H   H18       1.0  0.50400  0.86870  0.07220  1.0000 0.1195480464
H   H19       1.0  0.36470  0.86870  0.92780  1.0000 0.1195480464
H   H20       1.0  0.50400  0.63530  0.92780  1.0000 0.1195480464
H   H21       1.0  0.13130  0.49600  0.92780  1.0000 0.1195480464
H   H22       1.0  0.63530  0.13130  0.92780  1.0000 0.1195480464
H   H23       1.0  0.49600  0.36470  0.92780  1.0000 0.1195480464
H   H24       1.0  0.86870  0.50400  0.92780  1.0000 0.1195480464
H   H25       1.0  0.21220  0.73040  0.70210  1.0000 0.1195480464
H   H26       1.0  0.26960  0.48180  0.70210  1.0000 0.1195480464
H   H27       1.0  0.51820  0.78780  0.70210  1.0000 0.1195480464
H   H28       1.0  0.78780  0.26960  0.70210  1.0000 0.1195480464
H   H29       1.0  0.73040  0.51820  0.70210  1.0000 0.1195480464
H   H30       1.0  0.48180  0.21220  0.70210  1.0000 0.1195480464
H   H31       1.0  0.73040  0.21220  0.29790  1.0000 0.1195480464
H   H32       1.0  0.48180  0.26960  0.29790  1.0000 0.1195480464
H   H33       1.0  0.78780  0.51820  0.29790  1.0000 0.1195480464
H   H34       1.0  0.26960  0.78780  0.29790  1.0000 0.1195480464
H   H35       1.0  0.51820  0.73040  0.29790  1.0000 0.1195480464
H   H36       1.0  0.21220  0.48180  0.29790  1.0000 0.1195480464
H   H37       1.0  0.78780  0.26960  0.29790  1.0000 0.1195480464
H   H38       1.0  0.73040  0.51820  0.29790  1.0000 0.1195480464
H   H39       1.0  0.48180  0.21220  0.29790  1.0000 0.1195480464
H   H40       1.0  0.21220  0.73040  0.29790  1.0000 0.1195480464
H   H41       1.0  0.26960  0.48180  0.29790  1.0000 0.1195480464
H   H42       1.0  0.51820  0.78780  0.29790  1.0000 0.1195480464
H   H43       1.0  0.26960  0.78780  0.70210  1.0000 0.1195480464
H   H44       1.0  0.51820  0.73040  0.70210  1.0000 0.1195480464
H   H45       1.0  0.21220  0.48180  0.70210  1.0000 0.1195480464
H   H46       1.0  0.73040  0.21220  0.70210  1.0000 0.1195480464
H   H47       1.0  0.48180  0.26960  0.70210  1.0000 0.1195480464
H   H48       1.0  0.78780  0.51820  0.70210  1.0000 0.1195480464
H   H49       1.0  0.15590  0.61570  0.65430  1.0000 0.1263261127
H   H50       1.0  0.38430  0.54020  0.65430  1.0000 0.1263261127
H   H51       1.0  0.45980  0.84410  0.65430  1.0000 0.1263261127
H   H52       1.0  0.84410  0.38430  0.65430  1.0000 0.1263261127
H   H53       1.0  0.61570  0.45980  0.65430  1.0000 0.1263261127
H   H54       1.0  0.54020  0.15590  0.65430  1.0000 0.1263261127
H   H55       1.0  0.61570  0.15590  0.34570  1.0000 0.1263261127
H   H56       1.0  0.54020  0.38430  0.34570  1.0000 0.1263261127
H   H57       1.0  0.84410  0.45980  0.34570  1.0000 0.1263261127
H   H58       1.0  0.38430  0.84410  0.34570  1.0000 0.1263261127
H   H59       1.0  0.45980  0.61570  0.34570  1.0000 0.1263261127
H   H60       1.0  0.15590  0.54020  0.34570  1.0000 0.1263261127
H   H61       1.0  0.84410  0.38430  0.34570  1.0000 0.1263261127
H   H62       1.0  0.61570  0.45980  0.34570  1.0000 0.1263261127
H   H63       1.0  0.54020  0.15590  0.34570  1.0000 0.1263261127
H   H64       1.0  0.15590  0.61570  0.34570  1.0000 0.1263261127
H   H65       1.0  0.38430  0.54020  0.34570  1.0000 0.1263261127
H   H66       1.0  0.45980  0.84410  0.34570  1.0000 0.1263261127
H   H67       1.0  0.38430  0.84410  0.65430  1.0000 0.1263261127
H   H68       1.0  0.45980  0.61570  0.65430  1.0000 0.1263261127
H   H69       1.0  0.15590  0.54020  0.65430  1.0000 0.1263261127
H   H70       1.0  0.61570  0.15590  0.65430  1.0000 0.1263261127
H   H71       1.0  0.54020  0.38430  0.65430  1.0000 0.1263261127
H   H72       1.0  0.84410  0.45980  0.65430  1.0000 0.1263261127
H   H73       1.0  0.19840  0.65790  0.73800  1.0000 0.1195480464
H   H74       1.0  0.34210  0.54050  0.73800  1.0000 0.1195480464
H   H75       1.0  0.45950  0.80160  0.73800  1.0000 0.1195480464
H   H76       1.0  0.80160  0.34210  0.73800  1.0000 0.1195480464
H   H77       1.0  0.65790  0.45950  0.73800  1.0000 0.1195480464
H   H78       1.0  0.54050  0.19840  0.73800  1.0000 0.1195480464
H   H79       1.0  0.65790  0.19840  0.26200  1.0000 0.1195480464
H   H80       1.0  0.54050  0.34210  0.26200  1.0000 0.1195480464
H   H81       1.0  0.80160  0.45950  0.26200  1.0000 0.1195480464
H   H82       1.0  0.34210  0.80160  0.26200  1.0000 0.1195480464
H   H83       1.0  0.45950  0.65790  0.26200  1.0000 0.1195480464
H   H84       1.0  0.19840  0.54050  0.26200  1.0000 0.1195480464
H   H85       1.0  0.80160  0.34210  0.26200  1.0000 0.1195480464
H   H86       1.0  0.65790  0.45950  0.26200  1.0000 0.1195480464
H   H87       1.0  0.54050  0.19840  0.26200  1.0000 0.1195480464
H   H88       1.0  0.19840  0.65790  0.26200  1.0000 0.1195480464
H   H89       1.0  0.34210  0.54050  0.26200  1.0000 0.1195480464
H   H90       1.0  0.45950  0.80160  0.26200  1.0000 0.1195480464
H   H91       1.0  0.34210  0.80160  0.73800  1.0000 0.1195480464
H   H92       1.0  0.45950  0.65790  0.73800  1.0000 0.1195480464
H   H93       1.0  0.19840  0.54050  0.73800  1.0000 0.1195480464
H   H94       1.0  0.65790  0.19840  0.73800  1.0000 0.1195480464
H   H95       1.0  0.54050  0.34210  0.73800  1.0000 0.1195480464
H   H96       1.0  0.80160  0.45950  0.73800  1.0000 0.1195480464
H   H97       1.0  0.08110  0.63810  0.72920  1.0000 0.111656956
H   H98       1.0  0.36190  0.44300  0.72920  1.0000 0.111656956
H   H99       1.0  0.55700  0.91890  0.72920  1.0000 0.111656956
H   H100      1.0  0.91890  0.36190  0.72920  1.0000 0.111656956
H   H101      1.0  0.63810  0.55700  0.72920  1.0000 0.111656956
H   H102      1.0  0.44300  0.08110  0.72920  1.0000 0.111656956
H   H103      1.0  0.63810  0.08110  0.27080  1.0000 0.111656956
H   H104      1.0  0.44300  0.36190  0.27080  1.0000 0.111656956
H   H105      1.0  0.91890  0.55700  0.27080  1.0000 0.111656956
H   H106      1.0  0.36190  0.91890  0.27080  1.0000 0.111656956
H   H107      1.0  0.55700  0.63810  0.27080  1.0000 0.111656956
H   H108      1.0  0.08110  0.44300  0.27080  1.0000 0.111656956
H   H109      1.0  0.91890  0.36190  0.27080  1.0000 0.111656956
H   H110      1.0  0.63810  0.55700  0.27080  1.0000 0.111656956
H   H111      1.0  0.44300  0.08110  0.27080  1.0000 0.111656956
H   H112      1.0  0.08110  0.63810  0.27080  1.0000 0.111656956
H   H113      1.0  0.36190  0.44300  0.27080  1.0000 0.111656956
H   H114      1.0  0.55700  0.91890  0.27080  1.0000 0.111656956
H   H115      1.0  0.36190  0.91890  0.72920  1.0000 0.111656956
H   H116      1.0  0.55700  0.63810  0.72920  1.0000 0.111656956
H   H117      1.0  0.08110  0.44300  0.72920  1.0000 0.111656956
H   H118      1.0  0.63810  0.08110  0.72920  1.0000 0.111656956
H   H119      1.0  0.44300  0.36190  0.72920  1.0000 0.111656956
H   H120      1.0  0.91890  0.55700  0.72920  1.0000 0.111656956
H   H121      1.0  0.12420  0.68150  0.82010  1.0000 0.1195480464
H   H122      1.0  0.31850  0.44270  0.82010  1.0000 0.1195480464
H   H123      1.0  0.55730  0.87580  0.82010  1.0000 0.1195480464
H   H124      1.0  0.87580  0.31850  0.82010  1.0000 0.1195480464
H   H125      1.0  0.68150  0.55730  0.82010  1.0000 0.1195480464
H   H126      1.0  0.44270  0.12420  0.82010  1.0000 0.1195480464
H   H127      1.0  0.68150  0.12420  0.17990  1.0000 0.1195480464
H   H128      1.0  0.44270  0.31850  0.17990  1.0000 0.1195480464
H   H129      1.0  0.87580  0.55730  0.17990  1.0000 0.1195480464
H   H130      1.0  0.31850  0.87580  0.17990  1.0000 0.1195480464
H   H131      1.0  0.55730  0.68150  0.17990  1.0000 0.1195480464
H   H132      1.0  0.12420  0.44270  0.17990  1.0000 0.1195480464
H   H133      1.0  0.87580  0.31850  0.17990  1.0000 0.1195480464
H   H134      1.0  0.68150  0.55730  0.17990  1.0000 0.1195480464
H   H135      1.0  0.44270  0.12420  0.17990  1.0000 0.1195480464
H   H136      1.0  0.12420  0.68150  0.17990  1.0000 0.1195480464
H   H137      1.0  0.31850  0.44270  0.17990  1.0000 0.1195480464
H   H138      1.0  0.55730  0.87580  0.17990  1.0000 0.1195480464
H   H139      1.0  0.31850  0.87580  0.82010  1.0000 0.1195480464
H   H140      1.0  0.55730  0.68150  0.82010  1.0000 0.1195480464
H   H141      1.0  0.12420  0.44270  0.82010  1.0000 0.1195480464
H   H142      1.0  0.68150  0.12420  0.82010  1.0000 0.1195480464
H   H143      1.0  0.44270  0.31850  0.82010  1.0000 0.1195480464
H   H144      1.0  0.87580  0.55730  0.82010  1.0000 0.1195480464
C   C1        1.0  0.14880  0.65310  0.96090  1.0000 -0.1665572046
C   C2        1.0  0.34690  0.49570  0.96090  1.0000 -0.1665572046
C   C3        1.0  0.50430  0.85120  0.96090  1.0000 -0.1665572046
C   C4        1.0  0.85120  0.34690  0.96090  1.0000 -0.1665572046
C   C5        1.0  0.65310  0.50430  0.96090  1.0000 -0.1665572046
C   C6        1.0  0.49570  0.14880  0.96090  1.0000 -0.1665572046
C   C7        1.0  0.65310  0.14880  0.03910  1.0000 -0.1665572046
C   C8        1.0  0.49570  0.34690  0.03910  1.0000 -0.1665572046
C   C9        1.0  0.85120  0.50430  0.03910  1.0000 -0.1665572046
C   C10       1.0  0.34690  0.85120  0.03910  1.0000 -0.1665572046
C   C11       1.0  0.50430  0.65310  0.03910  1.0000 -0.1665572046
C   C12       1.0  0.14880  0.49570  0.03910  1.0000 -0.1665572046
C   C13       1.0  0.85120  0.34690  0.03910  1.0000 -0.1665572046
C   C14       1.0  0.65310  0.50430  0.03910  1.0000 -0.1665572046
C   C15       1.0  0.49570  0.14880  0.03910  1.0000 -0.1665572046
C   C16       1.0  0.14880  0.65310  0.03910  1.0000 -0.1665572046
C   C17       1.0  0.34690  0.49570  0.03910  1.0000 -0.1665572046
C   C18       1.0  0.50430  0.85120  0.03910  1.0000 -0.1665572046
C   C19       1.0  0.34690  0.85120  0.96090  1.0000 -0.1665572046
C   C20       1.0  0.50430  0.65310  0.96090  1.0000 -0.1665572046
C   C21       1.0  0.14880  0.49570  0.96090  1.0000 -0.1665572046
C   C22       1.0  0.65310  0.14880  0.96090  1.0000 -0.1665572046
C   C23       1.0  0.49570  0.34690  0.96090  1.0000 -0.1665572046
C   C24       1.0  0.85120  0.50430  0.96090  1.0000 -0.1665572046
C   C25       1.0  0.22640  0.74200  0.74660  1.0000 -0.181335864
C   C26       1.0  0.25800  0.48440  0.74660  1.0000 -0.181335864
C   C27       1.0  0.51560  0.77360  0.74660  1.0000 -0.181335864
C   C28       1.0  0.77360  0.25800  0.74660  1.0000 -0.181335864
C   C29       1.0  0.74200  0.51560  0.74660  1.0000 -0.181335864
C   C30       1.0  0.48440  0.22640  0.74660  1.0000 -0.181335864
C   C31       1.0  0.74200  0.22640  0.25340  1.0000 -0.181335864
C   C32       1.0  0.48440  0.25800  0.25340  1.0000 -0.181335864
C   C33       1.0  0.77360  0.51560  0.25340  1.0000 -0.181335864
C   C34       1.0  0.25800  0.77360  0.25340  1.0000 -0.181335864
C   C35       1.0  0.51560  0.74200  0.25340  1.0000 -0.181335864
C   C36       1.0  0.22640  0.48440  0.25340  1.0000 -0.181335864
C   C37       1.0  0.77360  0.25800  0.25340  1.0000 -0.181335864
C   C38       1.0  0.74200  0.51560  0.25340  1.0000 -0.181335864
C   C39       1.0  0.48440  0.22640  0.25340  1.0000 -0.181335864
C   C40       1.0  0.22640  0.74200  0.25340  1.0000 -0.181335864
C   C41       1.0  0.25800  0.48440  0.25340  1.0000 -0.181335864
C   C42       1.0  0.51560  0.77360  0.25340  1.0000 -0.181335864
C   C43       1.0  0.25800  0.77360  0.74660  1.0000 -0.181335864
C   C44       1.0  0.51560  0.74200  0.74660  1.0000 -0.181335864
C   C45       1.0  0.22640  0.48440  0.74660  1.0000 -0.181335864
C   C46       1.0  0.74200  0.22640  0.74660  1.0000 -0.181335864
C   C47       1.0  0.48440  0.25800  0.74660  1.0000 -0.181335864
C   C48       1.0  0.77360  0.51560  0.74660  1.0000 -0.181335864
C   C49       1.0  0.21899  0.72969  0.82870  1.0000 0.1578743172
C   C50       1.0  0.27031  0.48930  0.82870  1.0000 0.1578743172
C   C51       1.0  0.51070  0.78101  0.82870  1.0000 0.1545954632
C   C52       1.0  0.78101  0.27031  0.82870  1.0000 0.1578743172
C   C53       1.0  0.72969  0.51070  0.82870  1.0000 0.1545954632
C   C54       1.0  0.48930  0.21899  0.82870  1.0000 0.1578743172
C   C55       1.0  0.72969  0.21899  0.17130  1.0000 0.1578743172
C   C56       1.0  0.48930  0.27031  0.17130  1.0000 0.1578743172
C   C57       1.0  0.78101  0.51070  0.17130  1.0000 0.1578743172
C   C58       1.0  0.27031  0.78101  0.17130  1.0000 0.1578743172
C   C59       1.0  0.51070  0.72969  0.17130  1.0000 0.1545954632
C   C60       1.0  0.21899  0.48930  0.17130  1.0000 0.1578743172
C   C61       1.0  0.78101  0.27031  0.17130  1.0000 0.1578743172
C   C62       1.0  0.72969  0.51070  0.17130  1.0000 0.1545954632
C   C63       1.0  0.48930  0.21899  0.17130  1.0000 0.1578743172
C   C64       1.0  0.21899  0.72969  0.17130  1.0000 0.1578743172
C   C65       1.0  0.27031  0.48930  0.17130  1.0000 0.1578743172
C   C66       1.0  0.51070  0.78101  0.17130  1.0000 0.1545954632
C   C67       1.0  0.27031  0.78101  0.82870  1.0000 0.1578743172
C   C68       1.0  0.51070  0.72969  0.82870  1.0000 0.1545954632
C   C69       1.0  0.21899  0.48930  0.82870  1.0000 0.1578743172
C   C70       1.0  0.72969  0.21899  0.82870  1.0000 0.1578743172
C   C71       1.0  0.48930  0.27031  0.82870  1.0000 0.1578743172
C   C72       1.0  0.78101  0.51070  0.82870  1.0000 0.1578743172
C   C73       1.0  0.08625  0.59325  0.63290  1.0000 0.6346148836
C   C74       1.0  0.40675  0.49300  0.63290  1.0000 0.6354784988
C   C75       1.0  0.50700  0.91375  0.63290  1.0000 0.6354784988
C   C76       1.0  0.91375  0.40675  0.63290  1.0000 0.6354784988
C   C77       1.0  0.59325  0.50700  0.63290  1.0000 0.6354784988
C   C78       1.0  0.49300  0.08625  0.63290  1.0000 0.6354784988
C   C79       1.0  0.59325  0.08625  0.36710  1.0000 0.6354784988
C   C80       1.0  0.49300  0.40675  0.36710  1.0000 0.6346148836
C   C81       1.0  0.91375  0.50700  0.36710  1.0000 0.6354784988
C   C82       1.0  0.40675  0.91375  0.36710  1.0000 0.6346148836
C   C83       1.0  0.50700  0.59325  0.36710  1.0000 0.6354784988
C   C84       1.0  0.08625  0.49300  0.36710  1.0000 0.6346148836
C   C85       1.0  0.91375  0.40675  0.36710  1.0000 0.6354784988
C   C86       1.0  0.59325  0.50700  0.36710  1.0000 0.6354784988
C   C87       1.0  0.49300  0.08625  0.36710  1.0000 0.6354784988
C   C88       1.0  0.08625  0.59325  0.36710  1.0000 0.6346148836
C   C89       1.0  0.40675  0.49300  0.36710  1.0000 0.6354784988
C   C90       1.0  0.50700  0.91375  0.36710  1.0000 0.6354784988
C   C91       1.0  0.40675  0.91375  0.63290  1.0000 0.6346148836
C   C92       1.0  0.50700  0.59325  0.63290  1.0000 0.6354784988
C   C93       1.0  0.08625  0.49300  0.63290  1.0000 0.6346148836
C   C94       1.0  0.59325  0.08625  0.63290  1.0000 0.6354784988
C   C95       1.0  0.49300  0.40675  0.63290  1.0000 0.6354784988
C   C96       1.0  0.91375  0.50700  0.63290  1.0000 0.6354784988
C   C97       1.0  0.14944  0.62884  0.68810  1.0000 -0.0914862849
C   C98       1.0  0.37116  0.52060  0.68810  1.0000 -0.0914862849
C   C99       1.0  0.47940  0.85056  0.68810  1.0000 -0.0914862849
C   C100      1.0  0.85056  0.37116  0.68810  1.0000 -0.0914862849
C   C101      1.0  0.62884  0.47940  0.68810  1.0000 -0.0914862849
C   C102      1.0  0.52060  0.14944  0.68810  1.0000 -0.0914862849
C   C103      1.0  0.62884  0.14944  0.31190  1.0000 -0.0914862849
C   C104      1.0  0.52060  0.37116  0.31190  1.0000 -0.0914862849
C   C105      1.0  0.85056  0.47940  0.31190  1.0000 -0.0914862849
C   C106      1.0  0.37116  0.85056  0.31190  1.0000 -0.0914862849
C   C107      1.0  0.47940  0.62884  0.31190  1.0000 -0.0914862849
C   C108      1.0  0.14944  0.52060  0.31190  1.0000 -0.0914862849
C   C109      1.0  0.85056  0.37116  0.31190  1.0000 -0.0914862849
C   C110      1.0  0.62884  0.47940  0.31190  1.0000 -0.0914862849
C   C111      1.0  0.52060  0.14944  0.31190  1.0000 -0.0914862849
C   C112      1.0  0.14944  0.62884  0.31190  1.0000 -0.0914862849
C   C113      1.0  0.37116  0.52060  0.31190  1.0000 -0.0914862849
C   C114      1.0  0.47940  0.85056  0.31190  1.0000 -0.0914862849
C   C115      1.0  0.37116  0.85056  0.68810  1.0000 -0.0914862849
C   C116      1.0  0.47940  0.62884  0.68810  1.0000 -0.0914862849
C   C117      1.0  0.14944  0.52060  0.68810  1.0000 -0.0914862849
C   C118      1.0  0.62884  0.14944  0.68810  1.0000 -0.0914862849
C   C119      1.0  0.52060  0.37116  0.68810  1.0000 -0.0914862849
C   C120      1.0  0.85056  0.47940  0.68810  1.0000 -0.0914862849
C   C121      1.0  0.11470  0.62280  0.68520  1.0000 -0.0447739551
C   C122      1.0  0.37720  0.49190  0.68520  1.0000 -0.0447739551
C   C123      1.0  0.50810  0.88530  0.68520  1.0000 -0.0447739551
C   C124      1.0  0.88530  0.37720  0.68520  1.0000 -0.0447739551
C   C125      1.0  0.62280  0.50810  0.68520  1.0000 -0.0447739551
C   C126      1.0  0.49190  0.11470  0.68520  1.0000 -0.0447739551
C   C127      1.0  0.62280  0.11470  0.31480  1.0000 -0.0455808525
C   C128      1.0  0.49190  0.37720  0.31480  1.0000 -0.0447739551
C   C129      1.0  0.88530  0.50810  0.31480  1.0000 -0.0447739551
C   C130      1.0  0.37720  0.88530  0.31480  1.0000 -0.0455808525
C   C131      1.0  0.50810  0.62280  0.31480  1.0000 -0.0455808525
C   C132      1.0  0.11470  0.49190  0.31480  1.0000 -0.0447739551
C   C133      1.0  0.88530  0.37720  0.31480  1.0000 -0.0447739551
C   C134      1.0  0.62280  0.50810  0.31480  1.0000 -0.0447739551
C   C135      1.0  0.49190  0.11470  0.31480  1.0000 -0.0447739551
C   C136      1.0  0.11470  0.62280  0.31480  1.0000 -0.0455808525
C   C137      1.0  0.37720  0.49190  0.31480  1.0000 -0.0447739551
C   C138      1.0  0.50810  0.88530  0.31480  1.0000 -0.0455808525
C   C139      1.0  0.37720  0.88530  0.68520  1.0000 -0.0455808525
C   C140      1.0  0.50810  0.62280  0.68520  1.0000 -0.0447739551
C   C141      1.0  0.11470  0.49190  0.68520  1.0000 -0.0447739551
C   C142      1.0  0.62280  0.11470  0.68520  1.0000 -0.0455808525
C   C143      1.0  0.49190  0.37720  0.68520  1.0000 -0.0447739551
C   C144      1.0  0.88530  0.50810  0.68520  1.0000 -0.0447739551
C   C145      1.0  0.16490  0.67150  0.79090  1.0000 0.0753876882
C   C146      1.0  0.32850  0.49340  0.79090  1.0000 0.0753876882
C   C147      1.0  0.50660  0.83510  0.79090  1.0000 0.0753876882
C   C148      1.0  0.83510  0.32850  0.79090  1.0000 0.0753876882
C   C149      1.0  0.67150  0.50660  0.79090  1.0000 0.0753876882
C   C150      1.0  0.49340  0.16490  0.79090  1.0000 0.0753876882
C   C151      1.0  0.67150  0.16490  0.20910  1.0000 0.0744505884
C   C152      1.0  0.49340  0.32850  0.20910  1.0000 0.0753876882
C   C153      1.0  0.83510  0.50660  0.20910  1.0000 0.0753876882
C   C154      1.0  0.32850  0.83510  0.20910  1.0000 0.0744505884
C   C155      1.0  0.50660  0.67150  0.20910  1.0000 0.0744505884
C   C156      1.0  0.16490  0.49340  0.20910  1.0000 0.0744505884
C   C157      1.0  0.83510  0.32850  0.20910  1.0000 0.0753876882
C   C158      1.0  0.67150  0.50660  0.20910  1.0000 0.0744505884
C   C159      1.0  0.49340  0.16490  0.20910  1.0000 0.0744505884
C   C160      1.0  0.16490  0.67150  0.20910  1.0000 0.0744505884
C   C161      1.0  0.32850  0.49340  0.20910  1.0000 0.0744505884
C   C162      1.0  0.50660  0.83510  0.20910  1.0000 0.0744505884
C   C163      1.0  0.32850  0.83510  0.79090  1.0000 0.0753876882
C   C164      1.0  0.50660  0.67150  0.79090  1.0000 0.0753876882
C   C165      1.0  0.16490  0.49340  0.79090  1.0000 0.0753876882
C   C166      1.0  0.67150  0.16490  0.79090  1.0000 0.0753876882
C   C167      1.0  0.49340  0.32850  0.79090  1.0000 0.0753876882
C   C168      1.0  0.83510  0.50660  0.79090  1.0000 0.0753876882
C   C169      1.0  0.17477  0.65347  0.73890  1.0000 -0.1411164525
C   C170      1.0  0.34653  0.52130  0.73890  1.0000 -0.1411164525
C   C171      1.0  0.47870  0.82523  0.73890  1.0000 -0.1411164525
C   C172      1.0  0.82523  0.34653  0.73890  1.0000 -0.1411164525
C   C173      1.0  0.65347  0.47870  0.73890  1.0000 -0.1411164525
C   C174      1.0  0.52130  0.17477  0.73890  1.0000 -0.1411164525
C   C175      1.0  0.65347  0.17477  0.26110  1.0000 -0.1411164525
C   C176      1.0  0.52130  0.34653  0.26110  1.0000 -0.1411164525
C   C177      1.0  0.82523  0.47870  0.26110  1.0000 -0.1411164525
C   C178      1.0  0.34653  0.82523  0.26110  1.0000 -0.1411164525
C   C179      1.0  0.47870  0.65347  0.26110  1.0000 -0.1411164525
C   C180      1.0  0.17477  0.52130  0.26110  1.0000 -0.1411164525
C   C181      1.0  0.82523  0.34653  0.26110  1.0000 -0.1411164525
C   C182      1.0  0.65347  0.47870  0.26110  1.0000 -0.1411164525
C   C183      1.0  0.52130  0.17477  0.26110  1.0000 -0.1411164525
C   C184      1.0  0.17477  0.65347  0.26110  1.0000 -0.1411164525
C   C185      1.0  0.34653  0.52130  0.26110  1.0000 -0.1411164525
C   C186      1.0  0.47870  0.82523  0.26110  1.0000 -0.1411164525
C   C187      1.0  0.34653  0.82523  0.73890  1.0000 -0.1452742679
C   C188      1.0  0.47870  0.65347  0.73890  1.0000 -0.1411164525
C   C189      1.0  0.17477  0.52130  0.73890  1.0000 -0.1411164525
C   C190      1.0  0.65347  0.17477  0.73890  1.0000 -0.1452742679
C   C191      1.0  0.52130  0.34653  0.73890  1.0000 -0.1452742679
C   C192      1.0  0.82523  0.47870  0.73890  1.0000 -0.1411164525
C   C193      1.0  0.10440  0.64170  0.73240  1.0000 -0.10255443
C   C194      1.0  0.35830  0.46270  0.73240  1.0000 -0.10255443
C   C195      1.0  0.53730  0.89560  0.73240  1.0000 -0.10255443
C   C196      1.0  0.89560  0.35830  0.73240  1.0000 -0.10255443
C   C197      1.0  0.64170  0.53730  0.73240  1.0000 -0.10255443
C   C198      1.0  0.46270  0.10440  0.73240  1.0000 -0.10255443
C   C199      1.0  0.64170  0.10440  0.26760  1.0000 -0.10255443
C   C200      1.0  0.46270  0.35830  0.26760  1.0000 -0.10255443
C   C201      1.0  0.89560  0.53730  0.26760  1.0000 -0.10255443
C   C202      1.0  0.35830  0.89560  0.26760  1.0000 -0.10255443
C   C203      1.0  0.53730  0.64170  0.26760  1.0000 -0.10255443
C   C204      1.0  0.10440  0.46270  0.26760  1.0000 -0.10255443
C   C205      1.0  0.89560  0.35830  0.26760  1.0000 -0.10255443
C   C206      1.0  0.64170  0.53730  0.26760  1.0000 -0.10255443
C   C207      1.0  0.46270  0.10440  0.26760  1.0000 -0.10255443
C   C208      1.0  0.10440  0.64170  0.26760  1.0000 -0.10255443
C   C209      1.0  0.35830  0.46270  0.26760  1.0000 -0.10255443
C   C210      1.0  0.53730  0.89560  0.26760  1.0000 -0.10255443
C   C211      1.0  0.35830  0.89560  0.73240  1.0000 -0.10255443
C   C212      1.0  0.53730  0.64170  0.73240  1.0000 -0.10255443
C   C213      1.0  0.10440  0.46270  0.73240  1.0000 -0.10255443
C   C214      1.0  0.64170  0.10440  0.73240  1.0000 -0.10255443
C   C215      1.0  0.46270  0.35830  0.73240  1.0000 -0.10255443
C   C216      1.0  0.89560  0.53730  0.73240  1.0000 -0.10255443
C   C217      1.0  0.18120  0.68590  0.93470  1.0000 0.1578743172
C   C218      1.0  0.31410  0.49530  0.93470  1.0000 0.1578743172
C   C219      1.0  0.50470  0.81880  0.93470  1.0000 0.1578743172
C   C220      1.0  0.81880  0.31410  0.93470  1.0000 0.1578743172
C   C221      1.0  0.68590  0.50470  0.93470  1.0000 0.1578743172
C   C222      1.0  0.49530  0.18120  0.93470  1.0000 0.1578743172
C   C223      1.0  0.68590  0.18120  0.06530  1.0000 0.1578743172
C   C224      1.0  0.49530  0.31410  0.06530  1.0000 0.1578743172
C   C225      1.0  0.81880  0.50470  0.06530  1.0000 0.1578743172
C   C226      1.0  0.31410  0.81880  0.06530  1.0000 0.1578743172
C   C227      1.0  0.50470  0.68590  0.06530  1.0000 0.1578743172
C   C228      1.0  0.18120  0.49530  0.06530  1.0000 0.1578743172
C   C229      1.0  0.81880  0.31410  0.06530  1.0000 0.1578743172
C   C230      1.0  0.68590  0.50470  0.06530  1.0000 0.1578743172
C   C231      1.0  0.49530  0.18120  0.06530  1.0000 0.1578743172
C   C232      1.0  0.18120  0.68590  0.06530  1.0000 0.1578743172
C   C233      1.0  0.31410  0.49530  0.06530  1.0000 0.1578743172
C   C234      1.0  0.50470  0.81880  0.06530  1.0000 0.1578743172
C   C235      1.0  0.31410  0.81880  0.93470  1.0000 0.1578743172
C   C236      1.0  0.50470  0.68590  0.93470  1.0000 0.1578743172
C   C237      1.0  0.18120  0.49530  0.93470  1.0000 0.1578743172
C   C238      1.0  0.68590  0.18120  0.93470  1.0000 0.1578743172
C   C239      1.0  0.49530  0.31410  0.93470  1.0000 0.1578743172
C   C240      1.0  0.81880  0.50470  0.93470  1.0000 0.1578743172
C   C241      1.0  0.18990  0.69610  0.85550  1.0000 -0.0679858138
C   C242      1.0  0.30390  0.49380  0.85550  1.0000 -0.0679858138
C   C243      1.0  0.50620  0.81010  0.85550  1.0000 -0.0679858138
C   C244      1.0  0.81010  0.30390  0.85550  1.0000 -0.0679858138
C   C245      1.0  0.69610  0.50620  0.85550  1.0000 -0.0679858138
C   C246      1.0  0.49380  0.18990  0.85550  1.0000 -0.0679858138
C   C247      1.0  0.69610  0.18990  0.14450  1.0000 -0.0679858138
C   C248      1.0  0.49380  0.30390  0.14450  1.0000 -0.0679858138
C   C249      1.0  0.81010  0.50620  0.14450  1.0000 -0.0679858138
C   C250      1.0  0.30390  0.81010  0.14450  1.0000 -0.0679858138
C   C251      1.0  0.50620  0.69610  0.14450  1.0000 -0.0679858138
C   C252      1.0  0.18990  0.49380  0.14450  1.0000 -0.0679858138
C   C253      1.0  0.81010  0.30390  0.14450  1.0000 -0.0679858138
C   C254      1.0  0.69610  0.50620  0.14450  1.0000 -0.0679858138
C   C255      1.0  0.49380  0.18990  0.14450  1.0000 -0.0679858138
C   C256      1.0  0.18990  0.69610  0.14450  1.0000 -0.0679858138
C   C257      1.0  0.30390  0.49380  0.14450  1.0000 -0.0679858138
C   C258      1.0  0.50620  0.81010  0.14450  1.0000 -0.0679858138
C   C259      1.0  0.30390  0.81010  0.85550  1.0000 -0.0679858138
C   C260      1.0  0.50620  0.69610  0.85550  1.0000 -0.0679858138
C   C261      1.0  0.18990  0.49380  0.85550  1.0000 -0.0679858138
C   C262      1.0  0.69610  0.18990  0.85550  1.0000 -0.0679858138
C   C263      1.0  0.49380  0.30390  0.85550  1.0000 -0.0679858138
C   C264      1.0  0.81010  0.50620  0.85550  1.0000 -0.0679858138
C   C265      1.0  0.13030  0.66770  0.78750  1.0000 -0.1411164525
C   C266      1.0  0.33230  0.46260  0.78750  1.0000 -0.1411164525
C   C267      1.0  0.53740  0.86970  0.78750  1.0000 -0.1411164525
C   C268      1.0  0.86970  0.33230  0.78750  1.0000 -0.1411164525
C   C269      1.0  0.66770  0.53740  0.78750  1.0000 -0.1411164525
C   C270      1.0  0.46260  0.13030  0.78750  1.0000 -0.1411164525
C   C271      1.0  0.66770  0.13030  0.21250  1.0000 -0.1411164525
C   C272      1.0  0.46260  0.33230  0.21250  1.0000 -0.1411164525
C   C273      1.0  0.86970  0.53740  0.21250  1.0000 -0.1411164525
C   C274      1.0  0.33230  0.86970  0.21250  1.0000 -0.1411164525
C   C275      1.0  0.53740  0.66770  0.21250  1.0000 -0.1411164525
C   C276      1.0  0.13030  0.46260  0.21250  1.0000 -0.1411164525
C   C277      1.0  0.86970  0.33230  0.21250  1.0000 -0.1411164525
C   C278      1.0  0.66770  0.53740  0.21250  1.0000 -0.1411164525
C   C279      1.0  0.46260  0.13030  0.21250  1.0000 -0.1411164525
C   C280      1.0  0.13030  0.66770  0.21250  1.0000 -0.1411164525
C   C281      1.0  0.33230  0.46260  0.21250  1.0000 -0.1411164525
C   C282      1.0  0.53740  0.86970  0.21250  1.0000 -0.1411164525
C   C283      1.0  0.33230  0.86970  0.78750  1.0000 -0.1411164525
C   C284      1.0  0.53740  0.66770  0.78750  1.0000 -0.1411164525
C   C285      1.0  0.13030  0.46260  0.78750  1.0000 -0.1411164525
C   C286      1.0  0.66770  0.13030  0.78750  1.0000 -0.1411164525
C   C287      1.0  0.46260  0.33230  0.78750  1.0000 -0.1411164525
C   C288      1.0  0.86970  0.53740  0.78750  1.0000 -0.1411164525
N   N1        1.0  0.24655  0.75345  0.87880  1.0000 -0.2466115911
N   N2        1.0  0.24655  0.49310  0.87880  1.0000 -0.2466115911
N   N3        1.0  0.50690  0.75345  0.87880  1.0000 -0.2466115911
N   N4        1.0  0.75345  0.24655  0.87880  1.0000 -0.2466115911
N   N5        1.0  0.75345  0.50690  0.87880  1.0000 -0.2466115911
N   N6        1.0  0.49310  0.24655  0.87880  1.0000 -0.2466115911
N   N7        1.0  0.75345  0.24655  0.12120  1.0000 -0.2466115911
N   N8        1.0  0.49310  0.24655  0.12120  1.0000 -0.2466115911
N   N9        1.0  0.75345  0.50690  0.12120  1.0000 -0.2466115911
N   N10       1.0  0.24655  0.75345  0.12120  1.0000 -0.2466115911
N   N11       1.0  0.50690  0.75345  0.12120  1.0000 -0.2466115911
N   N12       1.0  0.24655  0.49310  0.12120  1.0000 -0.2466115911
N   N13       1.0  0.19970  0.70620  0.00000  1.0000 -0.2415086729
N   N14       1.0  0.29380  0.49350  0.00000  1.0000 -0.2466115911
N   N15       1.0  0.50650  0.80030  0.00000  1.0000 -0.2415086729
N   N16       1.0  0.80030  0.29380  0.00000  1.0000 -0.2415086729
N   N17       1.0  0.70620  0.50650  0.00000  1.0000 -0.2415086729
N   N18       1.0  0.49350  0.19970  0.00000  1.0000 -0.2415086729
N   N19       1.0  0.70620  0.19970  0.00000  1.0000 -0.2415086729
N   N20       1.0  0.49350  0.29380  0.00000  1.0000 -0.2415086729
N   N21       1.0  0.80030  0.50650  0.00000  1.0000 -0.2415086729
N   N22       1.0  0.29380  0.80030  0.00000  1.0000 -0.2415086729
N   N23       1.0  0.50650  0.70620  0.00000  1.0000 -0.2415086729
N   N24       1.0  0.19970  0.49350  0.00000  1.0000 -0.2466115911
Cl  Cl1       1.0  0.27740  0.72260  0.00000  1.0000 -0.3239880068
Cl  Cl2       1.0  0.27740  0.55480  0.00000  1.0000 -0.3239880068
Cl  Cl3       1.0  0.44520  0.72260  0.00000  1.0000 -0.3239880068
Cl  Cl4       1.0  0.72260  0.27740  0.00000  1.0000 -0.3239880068
Cl  Cl5       1.0  0.72260  0.44520  0.00000  1.0000 -0.3239880068
Cl  Cl6       1.0  0.55480  0.27740  0.00000  1.0000 -0.3239880068
Cl  Cl7       1.0  0.78520  0.57040  0.00000  1.0000 -0.4154198878
Cl  Cl8       1.0  0.42960  0.21480  0.00000  1.0000 -0.4154198878
Cl  Cl9       1.0  0.78520  0.21480  0.00000  1.0000 -0.4154198878
Cl  Cl10      1.0  0.21480  0.42960  0.00000  1.0000 -0.4154198878
Cl  Cl11      1.0  0.57040  0.78520  0.00000  1.0000 -0.4154198878
Cl  Cl12      1.0  0.21480  0.78520  0.00000  1.0000 -0.4154198878
O   O1        1.0  0.03176  0.47496  0.50000  1.0000 -1.1620738086
O   O2        1.0  0.52504  0.55680  0.50000  1.0000 -1.1620738086
O   O3        1.0  0.44320  0.96824  0.50000  1.0000 -1.1620738086
O   O4        1.0  0.96824  0.52504  0.50000  1.0000 -1.1620738086
O   O5        1.0  0.47496  0.44320  0.50000  1.0000 -1.1620738086
O   O6        1.0  0.55680  0.03176  0.50000  1.0000 -1.1620738086
O   O7        1.0  0.47496  0.03176  0.50000  1.0000 -1.1539809717
O   O8        1.0  0.55680  0.52504  0.50000  1.0000 -1.1620738086
O   O9        1.0  0.96824  0.44320  0.50000  1.0000 -1.1620738086
O   O10       1.0  0.52504  0.96824  0.50000  1.0000 -1.1620738086
O   O11       1.0  0.44320  0.47496  0.50000  1.0000 -1.1620738086
O   O12       1.0  0.03176  0.55680  0.50000  1.0000 -1.1620738086
O   O13       1.0  0.03303  0.51651  0.39320  1.0000 -1.1696565562
O   O14       1.0  0.48349  0.51651  0.39320  1.0000 -1.1696565562
O   O15       1.0  0.48349  0.96697  0.39320  1.0000 -1.1696565562
O   O16       1.0  0.96697  0.48348  0.39320  1.0000 -1.1696565562
O   O17       1.0  0.51651  0.48348  0.39320  1.0000 -1.1696565562
O   O18       1.0  0.51651  0.03303  0.39320  1.0000 -1.1696565562
O   O19       1.0  0.51651  0.03303  0.60680  1.0000 -1.1696565562
O   O20       1.0  0.51651  0.48348  0.60680  1.0000 -1.1696565562
O   O21       1.0  0.96697  0.48348  0.60680  1.0000 -1.1696565562
O   O22       1.0  0.48349  0.96697  0.60680  1.0000 -1.1696565562
O   O23       1.0  0.48349  0.51651  0.60680  1.0000 -1.1696565562
O   O24       1.0  0.03303  0.51651  0.60680  1.0000 -1.1696565562
O   O25       1.0  0.05392  0.58510  0.64720  1.0000 -0.6088079823
O   O26       1.0  0.41490  0.46882  0.64720  1.0000 -0.6088079823
O   O27       1.0  0.53118  0.94608  0.64720  1.0000 -0.6088079823
O   O28       1.0  0.94608  0.41490  0.64720  1.0000 -0.6088079823
O   O29       1.0  0.58510  0.53118  0.64720  1.0000 -0.6088079823
O   O30       1.0  0.46882  0.05392  0.64720  1.0000 -0.6088079823
O   O31       1.0  0.58510  0.05392  0.35280  1.0000 -0.6088079823
O   O32       1.0  0.46882  0.41490  0.35280  1.0000 -0.6088079823
O   O33       1.0  0.94608  0.53118  0.35280  1.0000 -0.6088079823
O   O34       1.0  0.41490  0.94608  0.35280  1.0000 -0.6088079823
O   O35       1.0  0.53118  0.58510  0.35280  1.0000 -0.6088079823
O   O36       1.0  0.05392  0.46882  0.35280  1.0000 -0.6088079823
O   O37       1.0  0.94608  0.41490  0.35280  1.0000 -0.6088079823
O   O38       1.0  0.58510  0.53118  0.35280  1.0000 -0.6088079823
O   O39       1.0  0.46882  0.05392  0.35280  1.0000 -0.6088079823
O   O40       1.0  0.05392  0.58510  0.35280  1.0000 -0.6088079823
O   O41       1.0  0.41490  0.46882  0.35280  1.0000 -0.6088079823
O   O42       1.0  0.53118  0.94608  0.35280  1.0000 -0.6088079823
O   O43       1.0  0.41490  0.94608  0.64720  1.0000 -0.6088079823
O   O44       1.0  0.53118  0.58510  0.64720  1.0000 -0.6088079823
O   O45       1.0  0.05392  0.46882  0.64720  1.0000 -0.6088079823
O   O46       1.0  0.58510  0.05392  0.64720  1.0000 -0.6088079823
O   O47       1.0  0.46882  0.41490  0.64720  1.0000 -0.6088079823
O   O48       1.0  0.94608  0.53118  0.64720  1.0000 -0.6088079823
O   O49       1.0  0.09719  0.57946  0.58060  1.0000 -0.5717335605
O   O50       1.0  0.42054  0.51773  0.58060  1.0000 -0.5717335605
O   O51       1.0  0.48227  0.90281  0.58060  1.0000 -0.5717335605
O   O52       1.0  0.90281  0.42054  0.58060  1.0000 -0.5717335605
O   O53       1.0  0.57946  0.48227  0.58060  1.0000 -0.5717335605
O   O54       1.0  0.51773  0.09719  0.58060  1.0000 -0.5717335605
O   O55       1.0  0.57946  0.09719  0.41940  1.0000 -0.5717335605
O   O56       1.0  0.51773  0.42054  0.41940  1.0000 -0.5717335605
O   O57       1.0  0.90281  0.48227  0.41940  1.0000 -0.5717335605
O   O58       1.0  0.42054  0.90281  0.41940  1.0000 -0.5717335605
O   O59       1.0  0.48227  0.57946  0.41940  1.0000 -0.5717335605
O   O60       1.0  0.09719  0.51773  0.41940  1.0000 -0.5717335605
O   O61       1.0  0.90281  0.42054  0.41940  1.0000 -0.5717335605
O   O62       1.0  0.57946  0.48227  0.41940  1.0000 -0.5717335605
O   O63       1.0  0.51773  0.09719  0.41940  1.0000 -0.5717335605
O   O64       1.0  0.09719  0.57946  0.41940  1.0000 -0.5717335605
O   O65       1.0  0.42054  0.51773  0.41940  1.0000 -0.5717335605
O   O66       1.0  0.48227  0.90281  0.41940  1.0000 -0.5717335605
O   O67       1.0  0.42054  0.90281  0.58060  1.0000 -0.5717335605
O   O68       1.0  0.48227  0.57946  0.58060  1.0000 -0.5717335605
O   O69       1.0  0.09719  0.51773  0.58060  1.0000 -0.5717335605
O   O70       1.0  0.57946  0.09719  0.58060  1.0000 -0.5717335605
O   O71       1.0  0.51773  0.42054  0.58060  1.0000 -0.5717335605
O   O72       1.0  0.90281  0.48227  0.58060  1.0000 -0.5717335605
