# DDEC6 charges by PACMAN v1.1 (https://github.com/mtap-research/PACMAN-charge/)
data_2012[Lu][nan]3[ASR]2
_chemical_formula_sum              "Lu4 H12 C36 O24"
_cell_length_a       10.2245
_cell_length_b       10.2245
_cell_length_c       14.369
_cell_angle_alpha    90
_cell_angle_beta     90
_cell_angle_gamma    90

_symmetry_space_group_name_H-M    "P 1"
_symmetry_Int_Tables_number       1

loop_
  _symmetry_equiv_pos_as_xyz
  'x, y, z'

loop_
  _atom_site_type_symbol
  _atom_site_label
  _atom_site_symmetry_multiplicity
  _atom_site_fract_x
  _atom_site_fract_y
  _atom_site_fract_z
  _atom_site_occupancy
  _atom_site_charge
Lu  Lu1       1.0  0.14819  0.85181  0.12500  1.0000 1.6859207965
Lu  Lu2       1.0  0.85181  0.14819  0.62500  1.0000 1.6859207965
Lu  Lu3       1.0  0.14819  0.14819  0.37500  1.0000 1.6859207965
Lu  Lu4       1.0  0.85181  0.85181  0.87500  1.0000 1.6859207965
H   H1        1.0  0.07900  0.44150  0.12900  1.0000 0.1343916312
H   H2        1.0  0.92100  0.55850  0.62900  1.0000 0.1343916312
H   H3        1.0  0.55850  0.07900  0.37900  1.0000 0.1343916312
H   H4        1.0  0.44150  0.92100  0.87900  1.0000 0.1343916312
H   H5        1.0  0.92100  0.44150  0.87100  1.0000 0.1343916312
H   H6        1.0  0.07900  0.55850  0.37100  1.0000 0.1343916312
H   H7        1.0  0.44150  0.07900  0.62100  1.0000 0.1343916312
H   H8        1.0  0.55850  0.92100  0.12100  1.0000 0.1343916312
H   H9        1.0  0.00000  0.10000  0.00000  1.0000 0.1135169335
H   H10       1.0  0.00000  0.90000  0.50000  1.0000 0.1135169335
H   H11       1.0  0.90000  0.00000  0.25000  1.0000 0.1135169335
H   H12       1.0  0.10000  0.00000  0.75000  1.0000 0.1135169335
C   C1        1.0  0.00000  0.61280  0.00000  1.0000 0.6192506917
C   C2        1.0  0.00000  0.38720  0.50000  1.0000 0.6192506917
C   C3        1.0  0.38720  0.00000  0.25000  1.0000 0.6192506917
C   C4        1.0  0.61280  0.00000  0.75000  1.0000 0.6192506917
C   C5        1.0  0.00000  0.46320  0.00000  1.0000 -0.0324798236
C   C6        1.0  0.00000  0.53680  0.50000  1.0000 -0.0324798236
C   C7        1.0  0.53680  0.00000  0.25000  1.0000 -0.0324798236
C   C8        1.0  0.46320  0.00000  0.75000  1.0000 -0.0324798236
C   C9        1.0  0.04660  0.39590  0.07790  1.0000 -0.1057235532
C   C10       1.0  0.95340  0.60410  0.57790  1.0000 -0.1057235532
C   C11       1.0  0.60410  0.04660  0.32790  1.0000 -0.1057235532
C   C12       1.0  0.39590  0.95340  0.82790  1.0000 -0.1057235532
C   C13       1.0  0.95340  0.39590  0.92210  1.0000 -0.1057235532
C   C14       1.0  0.04660  0.60410  0.42210  1.0000 -0.1057235532
C   C15       1.0  0.39590  0.04660  0.67210  1.0000 -0.1057235532
C   C16       1.0  0.60410  0.95340  0.17210  1.0000 -0.1057235532
C   C17       1.0  0.04410  0.25930  0.07810  1.0000 -0.0324798236
C   C18       1.0  0.95590  0.74070  0.57810  1.0000 -0.0324798236
C   C19       1.0  0.74070  0.04410  0.32810  1.0000 -0.0324798236
C   C20       1.0  0.25930  0.95590  0.82810  1.0000 -0.0324798236
C   C21       1.0  0.95590  0.25930  0.92190  1.0000 -0.0324798236
C   C22       1.0  0.04410  0.74070  0.42190  1.0000 -0.0324798236
C   C23       1.0  0.25930  0.04410  0.67190  1.0000 -0.0324798236
C   C24       1.0  0.74070  0.95590  0.17190  1.0000 -0.0324798236
C   C25       1.0  0.00000  0.19090  0.00000  1.0000 -0.123827041
C   C26       1.0  0.00000  0.80910  0.50000  1.0000 -0.123827041
C   C27       1.0  0.80910  0.00000  0.25000  1.0000 -0.123827041
C   C28       1.0  0.19090  0.00000  0.75000  1.0000 -0.123827041
C   C29       1.0  0.08860  0.18090  0.16130  1.0000 0.6192506917
C   C30       1.0  0.91140  0.81910  0.66130  1.0000 0.6192506917
C   C31       1.0  0.81910  0.08860  0.41130  1.0000 0.6192506917
C   C32       1.0  0.18090  0.91140  0.91130  1.0000 0.6192506917
C   C33       1.0  0.91140  0.18090  0.83870  1.0000 0.6192506917
C   C34       1.0  0.08860  0.81910  0.33870  1.0000 0.6192506917
C   C35       1.0  0.18090  0.08860  0.58870  1.0000 0.6192506917
C   C36       1.0  0.81910  0.91140  0.08870  1.0000 0.6192506917
O   O1        1.0  0.07320  0.66650  0.05810  1.0000 -0.5796588443
O   O2        1.0  0.92680  0.33350  0.55810  1.0000 -0.5796588443
O   O3        1.0  0.33350  0.07320  0.30810  1.0000 -0.5796588443
O   O4        1.0  0.66650  0.92680  0.80810  1.0000 -0.5796588443
O   O5        1.0  0.92680  0.66650  0.94190  1.0000 -0.5796588443
O   O6        1.0  0.07320  0.33350  0.44190  1.0000 -0.5796588443
O   O7        1.0  0.66650  0.07320  0.69190  1.0000 -0.5796588443
O   O8        1.0  0.33350  0.92680  0.19190  1.0000 -0.5796588443
O   O9        1.0  0.11390  0.06420  0.14980  1.0000 -0.587312036
O   O10       1.0  0.88610  0.93580  0.64980  1.0000 -0.587312036
O   O11       1.0  0.93580  0.11390  0.39980  1.0000 -0.587312036
O   O12       1.0  0.06420  0.88610  0.89980  1.0000 -0.587312036
O   O13       1.0  0.88610  0.06420  0.85020  1.0000 -0.587312036
O   O14       1.0  0.11390  0.93580  0.35020  1.0000 -0.587312036
O   O15       1.0  0.06420  0.11390  0.60020  1.0000 -0.587312036
O   O16       1.0  0.93580  0.88610  0.10020  1.0000 -0.587312036
O   O17       1.0  0.09590  0.23990  0.23790  1.0000 -0.5796588443
O   O18       1.0  0.90410  0.76010  0.73790  1.0000 -0.5796588443
O   O19       1.0  0.76010  0.09590  0.48790  1.0000 -0.5796588443
O   O20       1.0  0.23990  0.90410  0.98790  1.0000 -0.5796588443
O   O21       1.0  0.90410  0.23990  0.76210  1.0000 -0.5796588443
O   O22       1.0  0.09590  0.76010  0.26210  1.0000 -0.5796588443
O   O23       1.0  0.23990  0.09590  0.51210  1.0000 -0.5796588443
O   O24       1.0  0.76010  0.90410  0.01210  1.0000 -0.5796588443
