# DDEC6 charges by PACMAN v1.1 (https://github.com/mtap-research/PACMAN-charge/)
data_2012[Co][dia]3[ASR]5
_chemical_formula_sum              "Co4 H68 C120 N12 O24"
_cell_length_a       9.858
_cell_length_b       29.618
_cell_length_c       12.565
_cell_angle_alpha    90
_cell_angle_beta     105.695
_cell_angle_gamma    90

_symmetry_space_group_name_H-M    "P 1"
_symmetry_Int_Tables_number       1

loop_
  _symmetry_equiv_pos_as_xyz
  'x, y, z'

loop_
  _atom_site_type_symbol
  _atom_site_label
  _atom_site_symmetry_multiplicity
  _atom_site_fract_x
  _atom_site_fract_y
  _atom_site_fract_z
  _atom_site_occupancy
  _atom_site_charge
Co  Co1       1.0  0.03802  0.05754  0.35709  1.0000 0.7594479418
Co  Co2       1.0  0.46198  0.55754  0.64291  1.0000 0.7594479418
Co  Co3       1.0  0.96198  0.94246  0.64291  1.0000 0.7594479418
Co  Co4       1.0  0.53802  0.44246  0.35709  1.0000 0.7594479418
H   H1        1.0  0.40280  0.80010  0.87290  1.0000 0.3776116616
H   H2        1.0  0.09720  0.30010  0.12710  1.0000 0.3776116616
H   H3        1.0  0.71190  0.95090  0.28130  1.0000 0.1112590092
H   H4        1.0  0.78810  0.45090  0.71870  1.0000 0.1112590092
H   H5        1.0  0.31040  0.94560  0.29930  1.0000 0.1181933007
H   H6        1.0  0.18960  0.44560  0.70070  1.0000 0.1181933007
H   H7        1.0  0.53580  0.06070  0.38020  1.0000 0.1335527993
H   H8        1.0  0.96420  0.56070  0.61980  1.0000 0.1335527993
H   H9        1.0  0.32560  0.87580  0.29320  1.0000 0.1112590092
H   H10       1.0  0.17440  0.37580  0.70680  1.0000 0.1112590092
H   H11       1.0  0.31540  0.80000  0.24110  1.0000 0.1112590092
H   H12       1.0  0.18460  0.30000  0.75890  1.0000 0.1112590092
H   H13       1.0  0.64580  0.81840  0.11480  1.0000 0.1112590092
H   H14       1.0  0.85420  0.31840  0.88520  1.0000 0.1112590092
H   H15       1.0  0.65610  0.89410  0.16610  1.0000 0.1112590092
H   H16       1.0  0.84390  0.39410  0.83390  1.0000 0.1112590092
H   H17       1.0  0.46310  0.73630  0.31070  1.0000 0.1181933007
H   H18       1.0  0.03690  0.23630  0.68930  1.0000 0.1181933007
H   H19       1.0  0.68960  0.62520  0.01510  1.0000 0.1402087729
H   H20       1.0  0.81040  0.12520  0.98490  1.0000 0.1402087729
H   H21       1.0  0.67120  0.58250  0.85710  1.0000 0.1112590092
H   H22       1.0  0.82880  0.08250  0.14290  1.0000 0.1112590092
H   H23       1.0  0.30060  0.63530  0.71300  1.0000 0.1112590092
H   H24       1.0  0.19940  0.13530  0.28700  1.0000 0.1112590092
H   H25       1.0  0.31850  0.68330  0.86070  1.0000 0.1402087729
H   H26       1.0  0.18150  0.18330  0.13930  1.0000 0.1402087729
H   H27       1.0  0.56750  0.59250  0.28570  1.0000 0.1402087729
H   H28       1.0  0.93250  0.09250  0.71430  1.0000 0.1402087729
H   H29       1.0  0.55490  0.54910  0.43570  1.0000 0.1181933007
H   H30       1.0  0.94510  0.04910  0.56430  1.0000 0.1181933007
H   H31       1.0  0.32390  0.63980  0.52870  1.0000 0.1112590092
H   H32       1.0  0.17610  0.13980  0.47130  1.0000 0.1112590092
H   H33       1.0  0.33790  0.68770  0.38780  1.0000 0.1335527993
H   H34       1.0  0.16210  0.18770  0.61220  1.0000 0.1335527993
H   H35       1.0  0.59720  0.19990  0.12710  1.0000 0.3776116616
H   H36       1.0  0.90280  0.69990  0.87290  1.0000 0.3776116616
H   H37       1.0  0.28810  0.04910  0.71870  1.0000 0.1112590092
H   H38       1.0  0.21190  0.54910  0.28130  1.0000 0.1112590092
H   H39       1.0  0.68960  0.05440  0.70070  1.0000 0.1181933007
H   H40       1.0  0.81040  0.55440  0.29930  1.0000 0.1181933007
H   H41       1.0  0.46420  0.93930  0.61980  1.0000 0.1335527993
H   H42       1.0  0.03580  0.43930  0.38020  1.0000 0.1335527993
H   H43       1.0  0.67440  0.12420  0.70680  1.0000 0.1112590092
H   H44       1.0  0.82560  0.62420  0.29320  1.0000 0.1112590092
H   H45       1.0  0.68460  0.20000  0.75890  1.0000 0.1112590092
H   H46       1.0  0.81540  0.70000  0.24110  1.0000 0.1112590092
H   H47       1.0  0.35420  0.18160  0.88520  1.0000 0.1112590092
H   H48       1.0  0.14580  0.68160  0.11480  1.0000 0.1112590092
H   H49       1.0  0.34390  0.10590  0.83390  1.0000 0.1112590092
H   H50       1.0  0.15610  0.60590  0.16610  1.0000 0.1112590092
H   H51       1.0  0.53690  0.26370  0.68930  1.0000 0.1181933007
H   H52       1.0  0.96310  0.76370  0.31070  1.0000 0.1181933007
H   H53       1.0  0.31040  0.37480  0.98490  1.0000 0.1402087729
H   H54       1.0  0.18960  0.87480  0.01510  1.0000 0.1402087729
H   H55       1.0  0.32880  0.41750  0.14290  1.0000 0.1112590092
H   H56       1.0  0.17120  0.91750  0.85710  1.0000 0.1112590092
H   H57       1.0  0.69940  0.36470  0.28700  1.0000 0.1112590092
H   H58       1.0  0.80060  0.86470  0.71300  1.0000 0.1112590092
H   H59       1.0  0.68150  0.31670  0.13930  1.0000 0.1402087729
H   H60       1.0  0.81850  0.81670  0.86070  1.0000 0.1402087729
H   H61       1.0  0.43250  0.40750  0.71430  1.0000 0.1402087729
H   H62       1.0  0.06750  0.90750  0.28570  1.0000 0.1402087729
H   H63       1.0  0.44510  0.45090  0.56430  1.0000 0.1181933007
H   H64       1.0  0.05490  0.95090  0.43570  1.0000 0.1181933007
H   H65       1.0  0.67610  0.36020  0.47130  1.0000 0.1112590092
H   H66       1.0  0.82390  0.86020  0.52870  1.0000 0.1112590092
H   H67       1.0  0.66210  0.31230  0.61220  1.0000 0.1335527993
H   H68       1.0  0.83790  0.81230  0.38780  1.0000 0.1335527993
C   C1        1.0  0.76990  0.03740  0.33570  1.0000 0.530169653
C   C2        1.0  0.73010  0.53740  0.66430  1.0000 0.530169653
C   C3        1.0  0.64020  0.00990  0.33150  1.0000 3.9931e-06
C   C4        1.0  0.85980  0.50990  0.66850  1.0000 -0.0005313211
C   C5        1.0  0.63180  0.96470  0.29570  1.0000 -0.1480223789
C   C6        1.0  0.86820  0.46470  0.70430  1.0000 -0.1480223789
C   C7        1.0  0.50930  0.94020  0.28130  1.0000 0.068606795
C   C8        1.0  0.99070  0.44020  0.71870  1.0000 0.068606795
C   C9        1.0  0.39610  0.96160  0.30760  1.0000 -0.1576513888
C   C10       1.0  0.10390  0.46160  0.69240  1.0000 -0.1576513888
C   C11       1.0  0.40630  0.00590  0.34570  1.0000 -0.0088053637
C   C12       1.0  0.09370  0.50590  0.65430  1.0000 -0.0088053637
C   C13       1.0  0.52930  0.03020  0.35610  1.0000 -0.1186908145
C   C14       1.0  0.97070  0.53020  0.64390  1.0000 -0.1186908145
C   C15       1.0  0.28070  0.02880  0.36540  1.0000 0.530169653
C   C16       1.0  0.21930  0.52880  0.63460  1.0000 0.530169653
C   C17       1.0  0.49630  0.89290  0.23980  1.0000 0.0807731247
C   C18       1.0  0.00370  0.39290  0.76020  1.0000 0.0807731247
C   C19       1.0  0.39290  0.86430  0.25860  1.0000 -0.1480223789
C   C20       1.0  0.10710  0.36430  0.74140  1.0000 -0.1480223789
C   C21       1.0  0.38680  0.81880  0.22730  1.0000 -0.1415697812
C   C22       1.0  0.11320  0.31880  0.77270  1.0000 -0.1415697812
C   C23       1.0  0.48320  0.80080  0.17660  1.0000 0.0627516883
C   C24       1.0  0.01680  0.30080  0.82340  1.0000 0.0627516883
C   C25       1.0  0.58160  0.82970  0.15280  1.0000 -0.1415697812
C   C26       1.0  0.91840  0.32970  0.84720  1.0000 -0.1415697812
C   C27       1.0  0.58780  0.87500  0.18370  1.0000 -0.1480223789
C   C28       1.0  0.91220  0.37500  0.81630  1.0000 -0.1480223789
C   C29       1.0  0.48440  0.75120  0.15800  1.0000 0.099010452
C   C30       1.0  0.01560  0.25120  0.84200  1.0000 0.099010452
C   C31       1.0  0.47380  0.72340  0.24420  1.0000 -0.2363373467
C   C32       1.0  0.02620  0.22340  0.75580  1.0000 -0.2363373467
C   C33       1.0  0.47860  0.67720  0.23360  1.0000 0.199521581
C   C34       1.0  0.02140  0.17720  0.76640  1.0000 0.199521581
C   C35       1.0  0.50100  0.68320  0.05750  1.0000 0.1829207412
C   C36       1.0  0.99900  0.18320  0.94250  1.0000 0.1829207412
C   C37       1.0  0.49690  0.73040  0.06160  1.0000 -0.1415697812
C   C38       1.0  0.00310  0.23040  0.93840  1.0000 -0.1415697812
C   C39       1.0  0.50580  0.75810  0.96320  1.0000 0.5501629657
C   C40       1.0  0.99420  0.25810  0.03680  1.0000 0.5501629657
C   C41       1.0  0.50000  0.65830  0.95630  1.0000 0.0807731247
C   C42       1.0  0.00000  0.15830  0.04370  1.0000 0.0807731247
C   C43       1.0  0.60900  0.62790  0.95370  1.0000 -0.1699598261
C   C44       1.0  0.89100  0.12790  0.04630  1.0000 -0.1699598261
C   C45       1.0  0.59590  0.60220  0.85920  1.0000 0.099010452
C   C46       1.0  0.90410  0.10220  0.14080  1.0000 0.099010452
C   C47       1.0  0.38140  0.63350  0.77460  1.0000 0.068606795
C   C48       1.0  0.11860  0.13350  0.22540  1.0000 0.068606795
C   C49       1.0  0.39010  0.66150  0.86380  1.0000 -0.1576513888
C   C50       1.0  0.10990  0.16150  0.13620  1.0000 -0.1576513888
C   C51       1.0  0.46490  0.64650  0.32410  1.0000 0.0924178867
C   C52       1.0  0.03510  0.14650  0.67590  1.0000 0.0924178867
C   C53       1.0  0.52180  0.60410  0.33750  1.0000 -0.1699598261
C   C54       1.0  0.97820  0.10410  0.66250  1.0000 -0.1699598261
C   C55       1.0  0.51240  0.57810  0.42670  1.0000 0.1181933007
C   C56       1.0  0.98760  0.07810  0.57330  1.0000 0.1181933007
C   C57       1.0  0.37950  0.63110  0.48100  1.0000 0.0807731247
C   C58       1.0  0.12050  0.13110  0.51900  1.0000 0.0807731247
C   C59       1.0  0.38600  0.65950  0.39700  1.0000 -0.1928495147
C   C60       1.0  0.11400  0.15950  0.60300  1.0000 -0.1928495147
C   C61       1.0  0.23010  0.96260  0.66430  1.0000 0.530169653
C   C62       1.0  0.26990  0.46260  0.33570  1.0000 0.530169653
C   C63       1.0  0.35980  0.99010  0.66850  1.0000 -0.0005313211
C   C64       1.0  0.14020  0.49010  0.33150  1.0000 3.9931e-06
C   C65       1.0  0.36820  0.03530  0.70430  1.0000 -0.1480223789
C   C66       1.0  0.13180  0.53530  0.29570  1.0000 -0.1480223789
C   C67       1.0  0.49070  0.05980  0.71870  1.0000 0.068606795
C   C68       1.0  0.00930  0.55980  0.28130  1.0000 0.068606795
C   C69       1.0  0.60390  0.03840  0.69240  1.0000 -0.1576513888
C   C70       1.0  0.89610  0.53840  0.30760  1.0000 -0.1576513888
C   C71       1.0  0.59370  0.99410  0.65430  1.0000 -0.0088053637
C   C72       1.0  0.90630  0.49410  0.34570  1.0000 -0.0088053637
C   C73       1.0  0.47070  0.96980  0.64390  1.0000 -0.1186908145
C   C74       1.0  0.02930  0.46980  0.35610  1.0000 -0.1186908145
C   C75       1.0  0.71930  0.97120  0.63460  1.0000 0.530169653
C   C76       1.0  0.78070  0.47120  0.36540  1.0000 0.530169653
C   C77       1.0  0.50370  0.10710  0.76020  1.0000 0.0807731247
C   C78       1.0  0.99630  0.60710  0.23980  1.0000 0.0807731247
C   C79       1.0  0.60710  0.13570  0.74140  1.0000 -0.1480223789
C   C80       1.0  0.89290  0.63570  0.25860  1.0000 -0.1480223789
C   C81       1.0  0.61320  0.18120  0.77270  1.0000 -0.1415697812
C   C82       1.0  0.88680  0.68120  0.22730  1.0000 -0.1415697812
C   C83       1.0  0.51680  0.19920  0.82340  1.0000 0.0627516883
C   C84       1.0  0.98320  0.69920  0.17660  1.0000 0.0627516883
C   C85       1.0  0.41840  0.17030  0.84720  1.0000 -0.1415697812
C   C86       1.0  0.08160  0.67030  0.15280  1.0000 -0.1415697812
C   C87       1.0  0.41220  0.12500  0.81630  1.0000 -0.1480223789
C   C88       1.0  0.08780  0.62500  0.18370  1.0000 -0.1480223789
C   C89       1.0  0.51560  0.24880  0.84200  1.0000 0.099010452
C   C90       1.0  0.98440  0.74880  0.15800  1.0000 0.099010452
C   C91       1.0  0.52620  0.27660  0.75580  1.0000 -0.2363373467
C   C92       1.0  0.97380  0.77660  0.24420  1.0000 -0.2363373467
C   C93       1.0  0.52140  0.32280  0.76640  1.0000 0.199521581
C   C94       1.0  0.97860  0.82280  0.23360  1.0000 0.199521581
C   C95       1.0  0.49900  0.31680  0.94250  1.0000 0.1829207412
C   C96       1.0  0.00100  0.81680  0.05750  1.0000 0.1829207412
C   C97       1.0  0.50310  0.26960  0.93840  1.0000 -0.1415697812
C   C98       1.0  0.99690  0.76960  0.06160  1.0000 -0.1415697812
C   C99       1.0  0.49420  0.24190  0.03680  1.0000 0.5501629657
C   C100      1.0  0.00580  0.74190  0.96320  1.0000 0.5501629657
C   C101      1.0  0.50000  0.34170  0.04370  1.0000 0.0807731247
C   C102      1.0  0.00000  0.84170  0.95630  1.0000 0.0807731247
C   C103      1.0  0.39100  0.37210  0.04630  1.0000 -0.1699598261
C   C104      1.0  0.10900  0.87210  0.95370  1.0000 -0.1699598261
C   C105      1.0  0.40410  0.39780  0.14080  1.0000 0.099010452
C   C106      1.0  0.09590  0.89780  0.85920  1.0000 0.099010452
C   C107      1.0  0.61860  0.36650  0.22540  1.0000 0.068606795
C   C108      1.0  0.88140  0.86650  0.77460  1.0000 0.068606795
C   C109      1.0  0.60990  0.33850  0.13620  1.0000 -0.1576513888
C   C110      1.0  0.89010  0.83850  0.86380  1.0000 -0.1576513888
C   C111      1.0  0.53510  0.35350  0.67590  1.0000 0.0924178867
C   C112      1.0  0.96490  0.85350  0.32410  1.0000 0.0924178867
C   C113      1.0  0.47820  0.39590  0.66250  1.0000 -0.1699598261
C   C114      1.0  0.02180  0.89590  0.33750  1.0000 -0.1699598261
C   C115      1.0  0.48760  0.42190  0.57330  1.0000 0.1181933007
C   C116      1.0  0.01240  0.92190  0.42670  1.0000 0.1181933007
C   C117      1.0  0.62050  0.36890  0.51900  1.0000 0.0807731247
C   C118      1.0  0.87950  0.86890  0.48100  1.0000 0.0807731247
C   C119      1.0  0.61400  0.34050  0.60300  1.0000 -0.1928495147
C   C120      1.0  0.88600  0.84050  0.39700  1.0000 -0.1928495147
N   N1        1.0  0.49470  0.65709  0.14230  1.0000 -0.30086573
N   N2        1.0  0.00530  0.15709  0.85770  1.0000 -0.30086573
N   N3        1.0  0.48460  0.60325  0.77150  1.0000 -0.2549940699
N   N4        1.0  0.01540  0.10325  0.22850  1.0000 -0.2554778212
N   N5        1.0  0.44730  0.59171  0.49950  1.0000 -0.2246018255
N   N6        1.0  0.05270  0.09171  0.50050  1.0000 -0.2246018255
N   N7        1.0  0.50530  0.34291  0.85770  1.0000 -0.30086573
N   N8        1.0  0.99470  0.84291  0.14230  1.0000 -0.30086573
N   N9        1.0  0.51540  0.39675  0.22850  1.0000 -0.2549940699
N   N10       1.0  0.98460  0.89675  0.77150  1.0000 -0.2549940699
N   N11       1.0  0.55270  0.40829  0.50050  1.0000 -0.2246018255
N   N12       1.0  0.94730  0.90829  0.49950  1.0000 -0.2246018255
O   O1        1.0  0.87810  0.01627  0.33600  1.0000 -0.5120782906
O   O2        1.0  0.62190  0.51627  0.66400  1.0000 -0.5120782906
O   O3        1.0  0.76240  0.07954  0.34010  1.0000 -0.5628751123
O   O4        1.0  0.73760  0.57954  0.65990  1.0000 -0.5628751123
O   O5        1.0  0.16960  0.00720  0.34820  1.0000 -0.4887682849
O   O6        1.0  0.33040  0.50720  0.65180  1.0000 -0.4887682849
O   O7        1.0  0.28570  0.06925  0.39310  1.0000 -0.5359922701
O   O8        1.0  0.21430  0.56925  0.60690  1.0000 -0.5359922701
O   O9        1.0  0.61760  0.76096  0.93950  1.0000 -0.5020872557
O   O10       1.0  0.88240  0.26096  0.06050  1.0000 -0.5020872557
O   O11       1.0  0.38530  0.77840  0.91030  1.0000 -0.4499754437
O   O12       1.0  0.11470  0.27840  0.08970  1.0000 -0.4499754437
O   O13       1.0  0.12190  0.98373  0.66400  1.0000 -0.5120782906
O   O14       1.0  0.37810  0.48373  0.33600  1.0000 -0.5120782906
O   O15       1.0  0.23760  0.92046  0.65990  1.0000 -0.5628751123
O   O16       1.0  0.26240  0.42046  0.34010  1.0000 -0.5628751123
O   O17       1.0  0.83040  0.99280  0.65180  1.0000 -0.4887682849
O   O18       1.0  0.66960  0.49280  0.34820  1.0000 -0.4887682849
O   O19       1.0  0.71430  0.93075  0.60690  1.0000 -0.5359922701
O   O20       1.0  0.78570  0.43075  0.39310  1.0000 -0.5359922701
O   O21       1.0  0.38240  0.23904  0.06050  1.0000 -0.5020872557
O   O22       1.0  0.11760  0.73904  0.93950  1.0000 -0.5020872557
O   O23       1.0  0.61470  0.22160  0.08970  1.0000 -0.4499754437
O   O24       1.0  0.88530  0.72160  0.91030  1.0000 -0.4499754437
