# DDEC6 charges by PACMAN v1.1 (https://github.com/mtap-research/PACMAN-charge/)
data_2012[CuMo][dia]3[ASR]3
_chemical_formula_sum              "Cu12 Mo4 H80 C100 S12 Br4 N20"
_cell_length_a       15.0437
_cell_length_b       15.0437
_cell_length_c       18.0287
_cell_angle_alpha    85.6135
_cell_angle_beta     94.3865
_cell_angle_gamma    89.9354

_symmetry_space_group_name_H-M    "P 1"
_symmetry_Int_Tables_number       1

loop_
  _symmetry_equiv_pos_as_xyz
  'x, y, z'

loop_
  _atom_site_type_symbol
  _atom_site_label
  _atom_site_symmetry_multiplicity
  _atom_site_fract_x
  _atom_site_fract_y
  _atom_site_fract_z
  _atom_site_occupancy
  _atom_site_charge
Cu  Cu1       1.0  0.28305  0.80817  0.14095  1.0000 0.30825167
Cu  Cu2       1.0  0.80817  0.28305  0.35905  1.0000 0.30825167
Cu  Cu3       1.0  0.40564  0.77052  0.97231  1.0000 0.2814305037
Cu  Cu4       1.0  0.77052  0.40564  0.52769  1.0000 0.2814305037
Cu  Cu5       1.0  0.19802  0.62808  0.01249  1.0000 0.3224453538
Cu  Cu6       1.0  0.62808  0.19802  0.48751  1.0000 0.3224453538
Cu  Cu7       1.0  0.71695  0.19183  0.85905  1.0000 0.30825167
Cu  Cu8       1.0  0.19183  0.71695  0.64095  1.0000 0.30825167
Cu  Cu9       1.0  0.59436  0.22948  0.02769  1.0000 0.2814305037
Cu  Cu10      1.0  0.22948  0.59436  0.47231  1.0000 0.2814305037
Cu  Cu11      1.0  0.80198  0.37192  0.98751  1.0000 0.3224453538
Cu  Cu12      1.0  0.37192  0.80198  0.51249  1.0000 0.3224453538
Mo  Mo1       1.0  0.23290  0.80490  0.99529  1.0000 0.7586410477
Mo  Mo2       1.0  0.80490  0.23290  0.50471  1.0000 0.7586410477
Mo  Mo3       1.0  0.76710  0.19510  0.00471  1.0000 0.7586410477
Mo  Mo4       1.0  0.19510  0.76710  0.49529  1.0000 0.7586410477
H   H1        1.0  0.33310  0.62230  0.19200  1.0000 0.0990122469
H   H2        1.0  0.62230  0.33310  0.30800  1.0000 0.0990122469
H   H3        1.0  0.43080  0.54140  0.27250  1.0000 0.1292708368
H   H4        1.0  0.54140  0.43080  0.22750  1.0000 0.1292708368
H   H5        1.0  0.51910  0.76950  0.35150  1.0000 0.1292708368
H   H6        1.0  0.76950  0.51910  0.14850  1.0000 0.1292708368
H   H7        1.0  0.41890  0.84350  0.26660  1.0000 0.0928594746
H   H8        1.0  0.84350  0.41890  0.23340  1.0000 0.0928594746
H   H9        1.0  0.58530  0.40170  0.46600  1.0000 0.0928594746
H   H10       1.0  0.40170  0.58530  0.03400  1.0000 0.0928594746
H   H11       1.0  0.48160  0.48120  0.38800  1.0000 0.1292708368
H   H12       1.0  0.48120  0.48160  0.11200  1.0000 0.1292708368
H   H13       1.0  0.64720  0.68640  0.38690  1.0000 0.1292708368
H   H14       1.0  0.68640  0.64720  0.11310  1.0000 0.1292708368
H   H15       1.0  0.74650  0.60150  0.46270  1.0000 0.0928594746
H   H16       1.0  0.60150  0.74650  0.03730  1.0000 0.0928594746
H   H17       1.0  0.19930  0.84310  0.28820  1.0000 0.0990122469
H   H18       1.0  0.84310  0.19930  0.21180  1.0000 0.0990122469
H   H19       1.0  0.09850  0.93890  0.32930  1.0000 0.1292708368
H   H20       1.0  0.93890  0.09850  0.17070  1.0000 0.1292708368
H   H21       1.0  0.09800  0.08300  0.13440  1.0000 0.1292708368
H   H22       1.0  0.08300  0.09800  0.36560  1.0000 0.1292708368
H   H23       1.0  0.20410  0.98830  0.10050  1.0000 0.0990122469
H   H24       1.0  0.98830  0.20410  0.39950  1.0000 0.0990122469
H   H25       1.0  0.88540  0.56880  0.57030  1.0000 0.0990122469
H   H26       1.0  0.56880  0.88540  0.92970  1.0000 0.0990122469
H   H27       1.0  0.96470  0.61610  0.67410  1.0000 0.1292708368
H   H28       1.0  0.61610  0.96470  0.82590  1.0000 0.1292708368
H   H29       1.0  0.85020  0.42280  0.79710  1.0000 0.1292708368
H   H30       1.0  0.42280  0.85020  0.70290  1.0000 0.1292708368
H   H31       1.0  0.78130  0.37730  0.69080  1.0000 0.0990122469
H   H32       1.0  0.37730  0.78130  0.80920  1.0000 0.0990122469
H   H33       1.0  0.05420  0.71800  0.89900  1.0000 0.0803826268
H   H34       1.0  0.71800  0.05420  0.60100  1.0000 0.0803826268
H   H35       1.0  0.96180  0.68540  0.79620  1.0000 0.1166616663
H   H36       1.0  0.68540  0.96180  0.70380  1.0000 0.1166616663
H   H37       1.0  0.99650  0.42690  0.86380  1.0000 0.1292708368
H   H38       1.0  0.42690  0.99650  0.63620  1.0000 0.1292708368
H   H39       1.0  0.08890  0.46750  0.96230  1.0000 0.0990122469
H   H40       1.0  0.46750  0.08890  0.53770  1.0000 0.0990122469
H   H41       1.0  0.66690  0.37770  0.80800  1.0000 0.0990122469
H   H42       1.0  0.37770  0.66690  0.69200  1.0000 0.0990122469
H   H43       1.0  0.56920  0.45860  0.72750  1.0000 0.1292708368
H   H44       1.0  0.45860  0.56920  0.77250  1.0000 0.1292708368
H   H45       1.0  0.48090  0.23050  0.64850  1.0000 0.1292708368
H   H46       1.0  0.23050  0.48090  0.85150  1.0000 0.1292708368
H   H47       1.0  0.58110  0.15650  0.73340  1.0000 0.0928594746
H   H48       1.0  0.15650  0.58110  0.76660  1.0000 0.0928594746
H   H49       1.0  0.41470  0.59830  0.53400  1.0000 0.0928594746
H   H50       1.0  0.59830  0.41470  0.96600  1.0000 0.0928594746
H   H51       1.0  0.51840  0.51880  0.61200  1.0000 0.1292708368
H   H52       1.0  0.51880  0.51840  0.88800  1.0000 0.1292708368
H   H53       1.0  0.35280  0.31360  0.61310  1.0000 0.1292708368
H   H54       1.0  0.31360  0.35280  0.88690  1.0000 0.1292708368
H   H55       1.0  0.25350  0.39850  0.53730  1.0000 0.0928594746
H   H56       1.0  0.39850  0.25350  0.96270  1.0000 0.0928594746
H   H57       1.0  0.80070  0.15690  0.71180  1.0000 0.0990122469
H   H58       1.0  0.15690  0.80070  0.78820  1.0000 0.0990122469
H   H59       1.0  0.90150  0.06110  0.67070  1.0000 0.1292708368
H   H60       1.0  0.06110  0.90150  0.82930  1.0000 0.1292708368
H   H61       1.0  0.90200  0.91700  0.86560  1.0000 0.1292708368
H   H62       1.0  0.91700  0.90200  0.63440  1.0000 0.1292708368
H   H63       1.0  0.79590  0.01170  0.89950  1.0000 0.0990122469
H   H64       1.0  0.01170  0.79590  0.60050  1.0000 0.0990122469
H   H65       1.0  0.11460  0.43120  0.42970  1.0000 0.0990122469
H   H66       1.0  0.43120  0.11460  0.07030  1.0000 0.0990122469
H   H67       1.0  0.03530  0.38390  0.32590  1.0000 0.1292708368
H   H68       1.0  0.38390  0.03530  0.17410  1.0000 0.1292708368
H   H69       1.0  0.14980  0.57720  0.20290  1.0000 0.1292708368
H   H70       1.0  0.57720  0.14980  0.29710  1.0000 0.1292708368
H   H71       1.0  0.21870  0.62270  0.30920  1.0000 0.0990122469
H   H72       1.0  0.62270  0.21870  0.19080  1.0000 0.0990122469
H   H73       1.0  0.94580  0.28200  0.10100  1.0000 0.0803826268
H   H74       1.0  0.28200  0.94580  0.39900  1.0000 0.0803826268
H   H75       1.0  0.03820  0.31460  0.20380  1.0000 0.1166616663
H   H76       1.0  0.31460  0.03820  0.29620  1.0000 0.1166616663
H   H77       1.0  0.00350  0.57310  0.13620  1.0000 0.1292708368
H   H78       1.0  0.57310  0.00350  0.36380  1.0000 0.1292708368
H   H79       1.0  0.91110  0.53250  0.03770  1.0000 0.0990122469
H   H80       1.0  0.53250  0.91110  0.46230  1.0000 0.0990122469
C   C1        1.0  0.37130  0.65270  0.22400  1.0000 0.070335773
C   C2        1.0  0.65270  0.37130  0.27600  1.0000 0.070335773
C   C3        1.0  0.43020  0.60320  0.27250  1.0000 -0.2011575726
C   C4        1.0  0.60320  0.43020  0.22750  1.0000 -0.2011575726
C   C5        1.0  0.48840  0.64500  0.32130  1.0000 0.1096264735
C   C6        1.0  0.64500  0.48840  0.17870  1.0000 0.1096264735
C   C7        1.0  0.48260  0.73780  0.31910  1.0000 -0.1817965039
C   C8        1.0  0.73780  0.48260  0.18090  1.0000 -0.1817965039
C   C9        1.0  0.42140  0.78160  0.26780  1.0000 0.070335773
C   C10       1.0  0.78160  0.42140  0.23220  1.0000 0.070335773
C   C11       1.0  0.59890  0.45970  0.44900  1.0000 0.0803826268
C   C12       1.0  0.45970  0.59890  0.05100  1.0000 0.0803826268
C   C13       1.0  0.53580  0.50740  0.40180  1.0000 -0.1909855018
C   C14       1.0  0.50740  0.53580  0.09820  1.0000 -0.1909855018
C   C15       1.0  0.55310  0.59350  0.37530  1.0000 0.0990122469
C   C16       1.0  0.59350  0.55310  0.12470  1.0000 0.0990122469
C   C17       1.0  0.63310  0.62770  0.40100  1.0000 -0.1909855018
C   C18       1.0  0.62770  0.63310  0.09900  1.0000 -0.1909855018
C   C19       1.0  0.69240  0.57620  0.44720  1.0000 0.0619117373
C   C20       1.0  0.57620  0.69240  0.05280  1.0000 0.0619117373
C   C21       1.0  0.17980  0.89260  0.25730  1.0000 0.070335773
C   C22       1.0  0.89260  0.17980  0.24270  1.0000 0.0619117373
C   C23       1.0  0.11870  0.95010  0.28200  1.0000 -0.1909855018
C   C24       1.0  0.95010  0.11870  0.21800  1.0000 -0.1909855018
C   C25       1.0  0.08760  0.02340  0.23760  1.0000 0.0990122469
C   C26       1.0  0.02340  0.08760  0.26240  1.0000 0.0990122469
C   C27       1.0  0.11900  0.03580  0.16740  1.0000 -0.2011575726
C   C28       1.0  0.03580  0.11900  0.33260  1.0000 -0.2011575726
C   C29       1.0  0.18160  0.97740  0.14700  1.0000 0.0619117373
C   C30       1.0  0.97740  0.18160  0.35300  1.0000 0.0619117373
C   C31       1.0  0.88020  0.53760  0.61640  1.0000 0.0803826268
C   C32       1.0  0.53760  0.88020  0.88360  1.0000 0.0803826268
C   C33       1.0  0.92690  0.56750  0.67920  1.0000 -0.2011575726
C   C34       1.0  0.56750  0.92690  0.82080  1.0000 -0.2011575726
C   C35       1.0  0.91790  0.52610  0.74870  1.0000 0.1096264735
C   C36       1.0  0.52610  0.91790  0.75130  1.0000 0.1096264735
C   C37       1.0  0.86010  0.45290  0.75150  1.0000 -0.1817965039
C   C38       1.0  0.45290  0.86010  0.74850  1.0000 -0.1817965039
C   C39       1.0  0.81870  0.42630  0.68740  1.0000 0.070335773
C   C40       1.0  0.42630  0.81870  0.81260  1.0000 0.070335773
C   C41       1.0  0.04310  0.65850  0.89110  1.0000 0.0619117373
C   C42       1.0  0.65850  0.04310  0.60890  1.0000 0.0619117373
C   C43       1.0  0.98710  0.63970  0.82880  1.0000 -0.2011575726
C   C44       1.0  0.63970  0.98710  0.67120  1.0000 -0.2011575726
C   C45       1.0  0.97040  0.55160  0.81710  1.0000 0.1096264735
C   C46       1.0  0.55160  0.97040  0.68290  1.0000 0.1096264735
C   C47       1.0  0.00820  0.48680  0.86900  1.0000 -0.1909855018
C   C48       1.0  0.48680  0.00820  0.63100  1.0000 -0.1909855018
C   C49       1.0  0.06330  0.51190  0.92850  1.0000 0.0803826268
C   C50       1.0  0.51190  0.06330  0.57150  1.0000 0.0803826268
C   C51       1.0  0.62870  0.34730  0.77600  1.0000 0.070335773
C   C52       1.0  0.34730  0.62870  0.72400  1.0000 0.070335773
C   C53       1.0  0.56980  0.39680  0.72750  1.0000 -0.2011575726
C   C54       1.0  0.39680  0.56980  0.77250  1.0000 -0.2011575726
C   C55       1.0  0.51160  0.35500  0.67870  1.0000 0.1096264735
C   C56       1.0  0.35500  0.51160  0.82130  1.0000 0.1096264735
C   C57       1.0  0.51740  0.26220  0.68090  1.0000 -0.1817965039
C   C58       1.0  0.26220  0.51740  0.81910  1.0000 -0.1817965039
C   C59       1.0  0.57860  0.21840  0.73220  1.0000 0.070335773
C   C60       1.0  0.21840  0.57860  0.76780  1.0000 0.070335773
C   C61       1.0  0.40110  0.54030  0.55100  1.0000 0.0803826268
C   C62       1.0  0.54030  0.40110  0.94900  1.0000 0.0803826268
C   C63       1.0  0.46420  0.49260  0.59820  1.0000 -0.1909855018
C   C64       1.0  0.49260  0.46420  0.90180  1.0000 -0.1909855018
C   C65       1.0  0.44690  0.40650  0.62470  1.0000 0.0990122469
C   C66       1.0  0.40650  0.44690  0.87530  1.0000 0.0990122469
C   C67       1.0  0.36690  0.37230  0.59900  1.0000 -0.1909855018
C   C68       1.0  0.37230  0.36690  0.90100  1.0000 -0.1909855018
C   C69       1.0  0.30760  0.42380  0.55280  1.0000 0.0619117373
C   C70       1.0  0.42380  0.30760  0.94720  1.0000 0.0619117373
C   C71       1.0  0.82020  0.10740  0.74270  1.0000 0.070335773
C   C72       1.0  0.10740  0.82020  0.75730  1.0000 0.070335773
C   C73       1.0  0.88130  0.04990  0.71800  1.0000 -0.1909855018
C   C74       1.0  0.04990  0.88130  0.78200  1.0000 -0.1909855018
C   C75       1.0  0.91240  0.97660  0.76240  1.0000 0.0990122469
C   C76       1.0  0.97660  0.91240  0.73760  1.0000 0.0990122469
C   C77       1.0  0.88100  0.96420  0.83260  1.0000 -0.2011575726
C   C78       1.0  0.96420  0.88100  0.66740  1.0000 -0.2011575726
C   C79       1.0  0.81840  0.02260  0.85300  1.0000 0.0619117373
C   C80       1.0  0.02260  0.81840  0.64700  1.0000 0.0619117373
C   C81       1.0  0.11980  0.46240  0.38360  1.0000 0.0803826268
C   C82       1.0  0.46240  0.11980  0.11640  1.0000 0.0803826268
C   C83       1.0  0.07310  0.43250  0.32080  1.0000 -0.2011575726
C   C84       1.0  0.43250  0.07310  0.17920  1.0000 -0.2011575726
C   C85       1.0  0.08210  0.47390  0.25130  1.0000 0.1096264735
C   C86       1.0  0.47390  0.08210  0.24870  1.0000 0.1096264735
C   C87       1.0  0.13990  0.54710  0.24850  1.0000 -0.1817965039
C   C88       1.0  0.54710  0.13990  0.25150  1.0000 -0.1817965039
C   C89       1.0  0.18130  0.57370  0.31260  1.0000 0.070335773
C   C90       1.0  0.57370  0.18130  0.18740  1.0000 0.070335773
C   C91       1.0  0.95690  0.34150  0.10890  1.0000 0.0619117373
C   C92       1.0  0.34150  0.95690  0.39110  1.0000 0.0619117373
C   C93       1.0  0.01290  0.36030  0.17120  1.0000 -0.2011575726
C   C94       1.0  0.36030  0.01290  0.32880  1.0000 -0.2011575726
C   C95       1.0  0.02960  0.44840  0.18290  1.0000 0.1096264735
C   C96       1.0  0.44840  0.02960  0.31710  1.0000 0.1096264735
C   C97       1.0  0.99180  0.51320  0.13100  1.0000 -0.1909855018
C   C98       1.0  0.51320  0.99180  0.36900  1.0000 -0.1909855018
C   C99       1.0  0.93670  0.48810  0.07150  1.0000 0.0803826268
C   C100      1.0  0.48810  0.93670  0.42850  1.0000 0.0803826268
S   S1        1.0  0.16391  0.73291  0.08981  1.0000 -0.5399536208
S   S2        1.0  0.73291  0.16391  0.41019  1.0000 -0.5399536208
S   S3        1.0  0.35532  0.87488  0.04508  1.0000 -0.5691545621
S   S4        1.0  0.87488  0.35532  0.45492  1.0000 -0.5691545621
S   S5        1.0  0.28042  0.70054  0.92419  1.0000 -0.554464014
S   S6        1.0  0.70054  0.28042  0.57581  1.0000 -0.554464014
S   S7        1.0  0.83609  0.26709  0.91019  1.0000 -0.5399536208
S   S8        1.0  0.26709  0.83609  0.58981  1.0000 -0.5399536208
S   S9        1.0  0.64468  0.12512  0.95492  1.0000 -0.5691545621
S   S10       1.0  0.12512  0.64468  0.54508  1.0000 -0.5691545621
S   S11       1.0  0.71958  0.29946  0.07581  1.0000 -0.554464014
S   S12       1.0  0.29946  0.71958  0.42419  1.0000 -0.554464014
Br  Br1       1.0  0.24591  0.48289  0.06987  1.0000 -0.5582881884
Br  Br2       1.0  0.48289  0.24591  0.43013  1.0000 -0.5582881884
Br  Br3       1.0  0.75409  0.51711  0.93013  1.0000 -0.5582881884
Br  Br4       1.0  0.51711  0.75409  0.56987  1.0000 -0.5582881884
N   N1        1.0  0.36520  0.74160  0.21970  1.0000 -0.2011575726
N   N2        1.0  0.74160  0.36520  0.28030  1.0000 -0.2011575726
N   N3        1.0  0.67740  0.49220  0.47120  1.0000 -0.1909855018
N   N4        1.0  0.49220  0.67740  0.02880  1.0000 -0.1909855018
N   N5        1.0  0.21170  0.90630  0.19000  1.0000 -0.1909855018
N   N6        1.0  0.90630  0.21170  0.31000  1.0000 -0.1909855018
N   N7        1.0  0.82830  0.46610  0.61970  1.0000 -0.2011575726
N   N8        1.0  0.46610  0.82830  0.88030  1.0000 -0.1909855018
N   N9        1.0  0.08180  0.59620  0.93990  1.0000 -0.2011575726
N   N10       1.0  0.59620  0.08180  0.56010  1.0000 -0.2011575726
N   N11       1.0  0.63480  0.25840  0.78030  1.0000 -0.2011575726
N   N12       1.0  0.25840  0.63480  0.71970  1.0000 -0.2011575726
N   N13       1.0  0.32260  0.50780  0.52880  1.0000 -0.1909855018
N   N14       1.0  0.50780  0.32260  0.97120  1.0000 -0.1909855018
N   N15       1.0  0.78830  0.09370  0.81000  1.0000 -0.1909855018
N   N16       1.0  0.09370  0.78830  0.69000  1.0000 -0.1909855018
N   N17       1.0  0.17170  0.53390  0.38030  1.0000 -0.2011575726
N   N18       1.0  0.53390  0.17170  0.11970  1.0000 -0.2011575726
N   N19       1.0  0.91820  0.40380  0.06010  1.0000 -0.2011575726
N   N20       1.0  0.40380  0.91820  0.43990  1.0000 -0.2011575726
