# DDEC6 charges by PACMAN v1.1 (https://github.com/mtap-research/PACMAN-charge/)
data_2012[Ag][sra]3[ASR]1
_chemical_formula_sum              "Ag8 H160 C144 N96"
_cell_length_a       11.9308
_cell_length_b       18.9239
_cell_length_c       22.4189
_cell_angle_alpha    90
_cell_angle_beta     90
_cell_angle_gamma    90

_symmetry_space_group_name_H-M    "P 1"
_symmetry_Int_Tables_number       1

loop_
  _symmetry_equiv_pos_as_xyz
  'x, y, z'

loop_
  _atom_site_type_symbol
  _atom_site_label
  _atom_site_symmetry_multiplicity
  _atom_site_fract_x
  _atom_site_fract_y
  _atom_site_fract_z
  _atom_site_occupancy
  _atom_site_charge
Ag  Ag1       1.0  0.22022  0.30243  0.19825  1.0000 0.2638105058
Ag  Ag2       1.0  0.72022  0.19757  0.80175  1.0000 0.2638105058
Ag  Ag3       1.0  0.72022  0.80243  0.30175  1.0000 0.2638105058
Ag  Ag4       1.0  0.22022  0.69757  0.69825  1.0000 0.2638105058
Ag  Ag5       1.0  0.27978  0.19757  0.69825  1.0000 0.2638105058
Ag  Ag6       1.0  0.77978  0.30243  0.30175  1.0000 0.2638105058
Ag  Ag7       1.0  0.77978  0.69757  0.80175  1.0000 0.2638105058
Ag  Ag8       1.0  0.27978  0.80243  0.19825  1.0000 0.2638105058
H   H1        1.0  0.96420  0.25590  0.15740  1.0000 0.1106061359
H   H2        1.0  0.46420  0.24410  0.84260  1.0000 0.1106061359
H   H3        1.0  0.46420  0.75590  0.34260  1.0000 0.1106061359
H   H4        1.0  0.96420  0.74410  0.65740  1.0000 0.1106061359
H   H5        1.0  0.03470  0.05790  0.16910  1.0000 0.1106061359
H   H6        1.0  0.53470  0.44210  0.83090  1.0000 0.1106061359
H   H7        1.0  0.53470  0.55790  0.33090  1.0000 0.1106061359
H   H8        1.0  0.03470  0.94210  0.66910  1.0000 0.1106061359
H   H9        1.0  0.64010  0.31350  0.13950  1.0000 0.1106061359
H   H10       1.0  0.14010  0.18650  0.86050  1.0000 0.1106061359
H   H11       1.0  0.14010  0.81350  0.36050  1.0000 0.1106061359
H   H12       1.0  0.64010  0.68650  0.63950  1.0000 0.1106061359
H   H13       1.0  0.42120  0.17020  0.18010  1.0000 0.1172143445
H   H14       1.0  0.92120  0.32980  0.81990  1.0000 0.1172143445
H   H15       1.0  0.92120  0.67020  0.31990  1.0000 0.1172143445
H   H16       1.0  0.42120  0.82980  0.68010  1.0000 0.1172143445
H   H17       1.0  0.53220  0.93280  0.12750  1.0000 0.1106061359
H   H18       1.0  0.03220  0.56720  0.87250  1.0000 0.1106061359
H   H19       1.0  0.03220  0.43280  0.37250  1.0000 0.1106061359
H   H20       1.0  0.53220  0.06720  0.62750  1.0000 0.1106061359
H   H21       1.0  0.78590  0.95130  0.23290  1.0000 0.1172143445
H   H22       1.0  0.28590  0.54870  0.76710  1.0000 0.1106061359
H   H23       1.0  0.28590  0.45130  0.26710  1.0000 0.1172143445
H   H24       1.0  0.78590  0.04870  0.73290  1.0000 0.1106061359
H   H25       1.0  0.74680  0.19570  0.95280  1.0000 0.1172143445
H   H26       1.0  0.24680  0.30430  0.04720  1.0000 0.1172143445
H   H27       1.0  0.24680  0.69570  0.54720  1.0000 0.1172143445
H   H28       1.0  0.74680  0.80430  0.45280  1.0000 0.1172143445
H   H29       1.0  0.66450  0.99650  0.96490  1.0000 0.1106061359
H   H30       1.0  0.16450  0.50350  0.03510  1.0000 0.1106061359
H   H31       1.0  0.16450  0.49650  0.53510  1.0000 0.1106061359
H   H32       1.0  0.66450  0.00350  0.46490  1.0000 0.1106061359
H   H33       1.0  0.76450  0.19110  0.19950  1.0000 0.1172143445
H   H34       1.0  0.26450  0.30890  0.80050  1.0000 0.1172143445
H   H35       1.0  0.26450  0.69110  0.30050  1.0000 0.1172143445
H   H36       1.0  0.76450  0.80890  0.69950  1.0000 0.1172143445
H   H37       1.0  0.78070  0.23260  0.13930  1.0000 0.1106061359
H   H38       1.0  0.28070  0.26740  0.86070  1.0000 0.1106061359
H   H39       1.0  0.28070  0.73260  0.36070  1.0000 0.1106061359
H   H40       1.0  0.78070  0.76740  0.63930  1.0000 0.1106061359
H   H41       1.0  0.61360  0.09790  0.20850  1.0000 0.1172143445
H   H42       1.0  0.11360  0.40210  0.79150  1.0000 0.1172143445
H   H43       1.0  0.11360  0.59790  0.29150  1.0000 0.1172143445
H   H44       1.0  0.61360  0.90210  0.70850  1.0000 0.1172143445
H   H45       1.0  0.53600  0.08130  0.15360  1.0000 0.1106061359
H   H46       1.0  0.03600  0.41870  0.84640  1.0000 0.1106061359
H   H47       1.0  0.03600  0.58130  0.34640  1.0000 0.1106061359
H   H48       1.0  0.53600  0.91870  0.65360  1.0000 0.1106061359
H   H49       1.0  0.86510  0.02280  0.14970  1.0000 0.1016092049
H   H50       1.0  0.36510  0.47720  0.85030  1.0000 0.1016092049
H   H51       1.0  0.36510  0.52280  0.35030  1.0000 0.1016092049
H   H52       1.0  0.86510  0.97720  0.64970  1.0000 0.1016092049
H   H53       1.0  0.81790  0.06220  0.20610  1.0000 0.1106061359
H   H54       1.0  0.31790  0.43780  0.79390  1.0000 0.1106061359
H   H55       1.0  0.31790  0.56220  0.29390  1.0000 0.1106061359
H   H56       1.0  0.81790  0.93780  0.70610  1.0000 0.1106061359
H   H57       1.0  0.85730  0.16910  0.04830  1.0000 0.1106061359
H   H58       1.0  0.35730  0.33090  0.95170  1.0000 0.1106061359
H   H59       1.0  0.35730  0.66910  0.45170  1.0000 0.1106061359
H   H60       1.0  0.85730  0.83090  0.54830  1.0000 0.1106061359
H   H61       1.0  0.89040  0.08880  0.05260  1.0000 0.1172143445
H   H62       1.0  0.39040  0.41120  0.94740  1.0000 0.1172143445
H   H63       1.0  0.39040  0.58880  0.44740  1.0000 0.1172143445
H   H64       1.0  0.89040  0.91120  0.55260  1.0000 0.1172143445
H   H65       1.0  0.56150  0.14830  0.05610  1.0000 0.1172143445
H   H66       1.0  0.06150  0.35170  0.94390  1.0000 0.1172143445
H   H67       1.0  0.06150  0.64830  0.44390  1.0000 0.1172143445
H   H68       1.0  0.56150  0.85170  0.55610  1.0000 0.1172143445
H   H69       1.0  0.65700  0.20520  0.05020  1.0000 0.1106061359
H   H70       1.0  0.15700  0.29480  0.94980  1.0000 0.1106061359
H   H71       1.0  0.15700  0.70520  0.44980  1.0000 0.1106061359
H   H72       1.0  0.65700  0.79480  0.55020  1.0000 0.1106061359
H   H73       1.0  0.73970  0.99640  0.06290  1.0000 0.1106061359
H   H74       1.0  0.23970  0.50360  0.93710  1.0000 0.1106061359
H   H75       1.0  0.23970  0.49640  0.43710  1.0000 0.1106061359
H   H76       1.0  0.73970  0.00360  0.56290  1.0000 0.1106061359
H   H77       1.0  0.61280  0.01880  0.06430  1.0000 0.1016092049
H   H78       1.0  0.11280  0.48120  0.93570  1.0000 0.1016092049
H   H79       1.0  0.11280  0.51880  0.43570  1.0000 0.1016092049
H   H80       1.0  0.61280  0.98120  0.56430  1.0000 0.1016092049
H   H81       1.0  0.53580  0.24410  0.65740  1.0000 0.1106061359
H   H82       1.0  0.03580  0.25590  0.34260  1.0000 0.1106061359
H   H83       1.0  0.03580  0.74410  0.84260  1.0000 0.1106061359
H   H84       1.0  0.53580  0.75590  0.15740  1.0000 0.1106061359
H   H85       1.0  0.46530  0.44210  0.66910  1.0000 0.1106061359
H   H86       1.0  0.96530  0.05790  0.33090  1.0000 0.1106061359
H   H87       1.0  0.96530  0.94210  0.83090  1.0000 0.1106061359
H   H88       1.0  0.46530  0.55790  0.16910  1.0000 0.1106061359
H   H89       1.0  0.85990  0.18650  0.63950  1.0000 0.1106061359
H   H90       1.0  0.35990  0.31350  0.36050  1.0000 0.1106061359
H   H91       1.0  0.35990  0.68650  0.86050  1.0000 0.1106061359
H   H92       1.0  0.85990  0.81350  0.13950  1.0000 0.1106061359
H   H93       1.0  0.07880  0.32980  0.68010  1.0000 0.1172143445
H   H94       1.0  0.57880  0.17020  0.31990  1.0000 0.1172143445
H   H95       1.0  0.57880  0.82980  0.81990  1.0000 0.1172143445
H   H96       1.0  0.07880  0.67020  0.18010  1.0000 0.1172143445
H   H97       1.0  0.96780  0.56720  0.62750  1.0000 0.1106061359
H   H98       1.0  0.46780  0.93280  0.37250  1.0000 0.1106061359
H   H99       1.0  0.46780  0.06720  0.87250  1.0000 0.1106061359
H   H100      1.0  0.96780  0.43280  0.12750  1.0000 0.1106061359
H   H101      1.0  0.71410  0.54870  0.73290  1.0000 0.1106061359
H   H102      1.0  0.21410  0.95130  0.26710  1.0000 0.1172143445
H   H103      1.0  0.21410  0.04870  0.76710  1.0000 0.1106061359
H   H104      1.0  0.71410  0.45130  0.23290  1.0000 0.1172143445
H   H105      1.0  0.75320  0.30430  0.45280  1.0000 0.1172143445
H   H106      1.0  0.25320  0.19570  0.54720  1.0000 0.1172143445
H   H107      1.0  0.25320  0.80430  0.04720  1.0000 0.1172143445
H   H108      1.0  0.75320  0.69570  0.95280  1.0000 0.1172143445
H   H109      1.0  0.83550  0.50350  0.46490  1.0000 0.1106061359
H   H110      1.0  0.33550  0.99650  0.53510  1.0000 0.1106061359
H   H111      1.0  0.33550  0.00350  0.03510  1.0000 0.1106061359
H   H112      1.0  0.83550  0.49650  0.96490  1.0000 0.1106061359
H   H113      1.0  0.73550  0.30890  0.69950  1.0000 0.1172143445
H   H114      1.0  0.23550  0.19110  0.30050  1.0000 0.1172143445
H   H115      1.0  0.23550  0.80890  0.80050  1.0000 0.1172143445
H   H116      1.0  0.73550  0.69110  0.19950  1.0000 0.1172143445
H   H117      1.0  0.71930  0.26740  0.63930  1.0000 0.1106061359
H   H118      1.0  0.21930  0.23260  0.36070  1.0000 0.1106061359
H   H119      1.0  0.21930  0.76740  0.86070  1.0000 0.1106061359
H   H120      1.0  0.71930  0.73260  0.13930  1.0000 0.1106061359
H   H121      1.0  0.88640  0.40210  0.70850  1.0000 0.1172143445
H   H122      1.0  0.38640  0.09790  0.29150  1.0000 0.1172143445
H   H123      1.0  0.38640  0.90210  0.79150  1.0000 0.1172143445
H   H124      1.0  0.88640  0.59790  0.20850  1.0000 0.1172143445
H   H125      1.0  0.96400  0.41870  0.65360  1.0000 0.1106061359
H   H126      1.0  0.46400  0.08130  0.34640  1.0000 0.1106061359
H   H127      1.0  0.46400  0.91870  0.84640  1.0000 0.1106061359
H   H128      1.0  0.96400  0.58130  0.15360  1.0000 0.1106061359
H   H129      1.0  0.63490  0.47720  0.64970  1.0000 0.1016092049
H   H130      1.0  0.13490  0.02280  0.35030  1.0000 0.1016092049
H   H131      1.0  0.13490  0.97720  0.85030  1.0000 0.1016092049
H   H132      1.0  0.63490  0.52280  0.14970  1.0000 0.1016092049
H   H133      1.0  0.68210  0.43780  0.70610  1.0000 0.1106061359
H   H134      1.0  0.18210  0.06220  0.29390  1.0000 0.1106061359
H   H135      1.0  0.18210  0.93780  0.79390  1.0000 0.1106061359
H   H136      1.0  0.68210  0.56220  0.20610  1.0000 0.1106061359
H   H137      1.0  0.64270  0.33090  0.54830  1.0000 0.1106061359
H   H138      1.0  0.14270  0.16910  0.45170  1.0000 0.1106061359
H   H139      1.0  0.14270  0.83090  0.95170  1.0000 0.1106061359
H   H140      1.0  0.64270  0.66910  0.04830  1.0000 0.1106061359
H   H141      1.0  0.60960  0.41120  0.55260  1.0000 0.1172143445
H   H142      1.0  0.10960  0.08880  0.44740  1.0000 0.1172143445
H   H143      1.0  0.10960  0.91120  0.94740  1.0000 0.1172143445
H   H144      1.0  0.60960  0.58880  0.05260  1.0000 0.1172143445
H   H145      1.0  0.93850  0.35170  0.55610  1.0000 0.1172143445
H   H146      1.0  0.43850  0.14830  0.44390  1.0000 0.1172143445
H   H147      1.0  0.43850  0.85170  0.94390  1.0000 0.1172143445
H   H148      1.0  0.93850  0.64830  0.05610  1.0000 0.1172143445
H   H149      1.0  0.84300  0.29480  0.55020  1.0000 0.1106061359
H   H150      1.0  0.34300  0.20520  0.44980  1.0000 0.1106061359
H   H151      1.0  0.34300  0.79480  0.94980  1.0000 0.1106061359
H   H152      1.0  0.84300  0.70520  0.05020  1.0000 0.1106061359
H   H153      1.0  0.76030  0.50360  0.56290  1.0000 0.1106061359
H   H154      1.0  0.26030  0.99640  0.43710  1.0000 0.1106061359
H   H155      1.0  0.26030  0.00360  0.93710  1.0000 0.1106061359
H   H156      1.0  0.76030  0.49640  0.06290  1.0000 0.1106061359
H   H157      1.0  0.88720  0.48120  0.56430  1.0000 0.1016092049
H   H158      1.0  0.38720  0.01880  0.43570  1.0000 0.1016092049
H   H159      1.0  0.38720  0.98120  0.93570  1.0000 0.1016092049
H   H160      1.0  0.88720  0.51880  0.06430  1.0000 0.1016092049
C   C1        1.0  0.00250  0.21350  0.16240  1.0000 0.069722378
C   C2        1.0  0.50250  0.28650  0.83760  1.0000 0.069722378
C   C3        1.0  0.50250  0.71350  0.33760  1.0000 0.069722378
C   C4        1.0  0.00250  0.78650  0.66240  1.0000 0.069722378
C   C5        1.0  0.04060  0.10690  0.16890  1.0000 0.0865587918
C   C6        1.0  0.54060  0.39310  0.83110  1.0000 0.0865587918
C   C7        1.0  0.54060  0.60690  0.33110  1.0000 0.0865587918
C   C8        1.0  0.04060  0.89310  0.66890  1.0000 0.0865587918
C   C9        1.0  0.57470  0.29150  0.15230  1.0000 0.0777532791
C   C10       1.0  0.07470  0.20850  0.84770  1.0000 0.0777532791
C   C11       1.0  0.07470  0.79150  0.34770  1.0000 0.0777532791
C   C12       1.0  0.57470  0.70850  0.65230  1.0000 0.0777532791
C   C13       1.0  0.45620  0.21360  0.17440  1.0000 0.0777532791
C   C14       1.0  0.95620  0.28640  0.82560  1.0000 0.0777532791
C   C15       1.0  0.95620  0.71360  0.32560  1.0000 0.0777532791
C   C16       1.0  0.45620  0.78640  0.67440  1.0000 0.0777532791
C   C17       1.0  0.58630  0.92400  0.15640  1.0000 0.0777532791
C   C18       1.0  0.08630  0.57600  0.84360  1.0000 0.0777532791
C   C19       1.0  0.08630  0.42400  0.34360  1.0000 0.0777532791
C   C20       1.0  0.58630  0.07600  0.65640  1.0000 0.0777532791
C   C21       1.0  0.72270  0.93420  0.21340  1.0000 0.069722378
C   C22       1.0  0.22270  0.56580  0.78660  1.0000 0.069722378
C   C23       1.0  0.22270  0.43420  0.28660  1.0000 0.069722378
C   C24       1.0  0.72270  0.06580  0.71340  1.0000 0.069722378
C   C25       1.0  0.72690  0.14960  0.94300  1.0000 0.069722378
C   C26       1.0  0.22690  0.35040  0.05700  1.0000 0.069722378
C   C27       1.0  0.22690  0.64960  0.55700  1.0000 0.069722378
C   C28       1.0  0.72690  0.85040  0.44300  1.0000 0.069722378
C   C29       1.0  0.68210  0.04080  0.94950  1.0000 0.0467912117
C   C30       1.0  0.18210  0.45920  0.05050  1.0000 0.0467912117
C   C31       1.0  0.18210  0.54080  0.55050  1.0000 0.0467912117
C   C32       1.0  0.68210  0.95920  0.44950  1.0000 0.0467912117
C   C33       1.0  0.84280  0.13020  0.13460  1.0000 0.2638105058
C   C34       1.0  0.34280  0.36980  0.86540  1.0000 0.2638105058
C   C35       1.0  0.34280  0.63020  0.36540  1.0000 0.2638105058
C   C36       1.0  0.84280  0.86980  0.63460  1.0000 0.2638105058
C   C37       1.0  0.76100  0.18720  0.15640  1.0000 -0.3905047783
C   C38       1.0  0.26100  0.31280  0.84360  1.0000 -0.3905047783
C   C39       1.0  0.26100  0.68720  0.34360  1.0000 -0.3905047783
C   C40       1.0  0.76100  0.81280  0.65640  1.0000 -0.3905047783
C   C41       1.0  0.64360  0.16610  0.13710  1.0000 0.2686339124
C   C42       1.0  0.14360  0.33390  0.86290  1.0000 0.2686339124
C   C43       1.0  0.14360  0.66610  0.36290  1.0000 0.2686339124
C   C44       1.0  0.64360  0.83390  0.63710  1.0000 0.2686339124
C   C45       1.0  0.61150  0.09430  0.16540  1.0000 -0.380677686
C   C46       1.0  0.11150  0.40570  0.83460  1.0000 -0.380677686
C   C47       1.0  0.11150  0.59430  0.33460  1.0000 -0.380677686
C   C48       1.0  0.61150  0.90570  0.66540  1.0000 -0.380677686
C   C49       1.0  0.69340  0.03910  0.14450  1.0000 0.2638105058
C   C50       1.0  0.19340  0.46090  0.85550  1.0000 0.2638105058
C   C51       1.0  0.19340  0.53910  0.35550  1.0000 0.2638105058
C   C52       1.0  0.69340  0.96090  0.64450  1.0000 0.2638105058
C   C53       1.0  0.81300  0.05880  0.16300  1.0000 -0.380677686
C   C54       1.0  0.31300  0.44120  0.83700  1.0000 -0.380677686
C   C55       1.0  0.31300  0.55880  0.33700  1.0000 -0.380677686
C   C56       1.0  0.81300  0.94120  0.66300  1.0000 -0.380677686
C   C57       1.0  0.83770  0.12420  0.06640  1.0000 -0.3588232556
C   C58       1.0  0.33770  0.37580  0.93360  1.0000 -0.3588232556
C   C59       1.0  0.33770  0.62420  0.43360  1.0000 -0.3588232556
C   C60       1.0  0.83770  0.87580  0.56640  1.0000 -0.3588232556
C   C61       1.0  0.71830  0.10330  0.04870  1.0000 0.2542828834
C   C62       1.0  0.21830  0.39670  0.95130  1.0000 0.2542828834
C   C63       1.0  0.21830  0.60330  0.45130  1.0000 0.2542828834
C   C64       1.0  0.71830  0.89670  0.54870  1.0000 0.2542828834
C   C65       1.0  0.63710  0.16040  0.06830  1.0000 -0.3588232556
C   C66       1.0  0.13710  0.33960  0.93170  1.0000 -0.3588232556
C   C67       1.0  0.13710  0.66040  0.43170  1.0000 -0.3588232556
C   C68       1.0  0.63710  0.83960  0.56830  1.0000 -0.3588232556
C   C69       1.0  0.68780  0.03250  0.07640  1.0000 -0.3685991885
C   C70       1.0  0.18780  0.46750  0.92360  1.0000 -0.3685991885
C   C71       1.0  0.18780  0.53250  0.42360  1.0000 -0.3685991885
C   C72       1.0  0.68780  0.96750  0.57640  1.0000 -0.3685991885
C   C73       1.0  0.49750  0.28650  0.66240  1.0000 0.069722378
C   C74       1.0  0.99750  0.21350  0.33760  1.0000 0.069722378
C   C75       1.0  0.99750  0.78650  0.83760  1.0000 0.069722378
C   C76       1.0  0.49750  0.71350  0.16240  1.0000 0.069722378
C   C77       1.0  0.45940  0.39310  0.66890  1.0000 0.0865587918
C   C78       1.0  0.95940  0.10690  0.33110  1.0000 0.0865587918
C   C79       1.0  0.95940  0.89310  0.83110  1.0000 0.0865587918
C   C80       1.0  0.45940  0.60690  0.16890  1.0000 0.0865587918
C   C81       1.0  0.92530  0.20850  0.65230  1.0000 0.0777532791
C   C82       1.0  0.42530  0.29150  0.34770  1.0000 0.0777532791
C   C83       1.0  0.42530  0.70850  0.84770  1.0000 0.0777532791
C   C84       1.0  0.92530  0.79150  0.15230  1.0000 0.0777532791
C   C85       1.0  0.04380  0.28640  0.67440  1.0000 0.0777532791
C   C86       1.0  0.54380  0.21360  0.32560  1.0000 0.0777532791
C   C87       1.0  0.54380  0.78640  0.82560  1.0000 0.0777532791
C   C88       1.0  0.04380  0.71360  0.17440  1.0000 0.0777532791
C   C89       1.0  0.91370  0.57600  0.65640  1.0000 0.0777532791
C   C90       1.0  0.41370  0.92400  0.34360  1.0000 0.0777532791
C   C91       1.0  0.41370  0.07600  0.84360  1.0000 0.0777532791
C   C92       1.0  0.91370  0.42400  0.15640  1.0000 0.0777532791
C   C93       1.0  0.77730  0.56580  0.71340  1.0000 0.069722378
C   C94       1.0  0.27730  0.93420  0.28660  1.0000 0.069722378
C   C95       1.0  0.27730  0.06580  0.78660  1.0000 0.069722378
C   C96       1.0  0.77730  0.43420  0.21340  1.0000 0.069722378
C   C97       1.0  0.77310  0.35040  0.44300  1.0000 0.069722378
C   C98       1.0  0.27310  0.14960  0.55700  1.0000 0.069722378
C   C99       1.0  0.27310  0.85040  0.05700  1.0000 0.069722378
C   C100      1.0  0.77310  0.64960  0.94300  1.0000 0.069722378
C   C101      1.0  0.81790  0.45920  0.44950  1.0000 0.0467912117
C   C102      1.0  0.31790  0.04080  0.55050  1.0000 0.0467912117
C   C103      1.0  0.31790  0.95920  0.05050  1.0000 0.0467912117
C   C104      1.0  0.81790  0.54080  0.94950  1.0000 0.0467912117
C   C105      1.0  0.65720  0.36980  0.63460  1.0000 0.2638105058
C   C106      1.0  0.15720  0.13020  0.36540  1.0000 0.2638105058
C   C107      1.0  0.15720  0.86980  0.86540  1.0000 0.2638105058
C   C108      1.0  0.65720  0.63020  0.13460  1.0000 0.2638105058
C   C109      1.0  0.73900  0.31280  0.65640  1.0000 -0.3905047783
C   C110      1.0  0.23900  0.18720  0.34360  1.0000 -0.3905047783
C   C111      1.0  0.23900  0.81280  0.84360  1.0000 -0.3905047783
C   C112      1.0  0.73900  0.68720  0.15640  1.0000 -0.3905047783
C   C113      1.0  0.85640  0.33390  0.63710  1.0000 0.2686339124
C   C114      1.0  0.35640  0.16610  0.36290  1.0000 0.2686339124
C   C115      1.0  0.35640  0.83390  0.86290  1.0000 0.2686339124
C   C116      1.0  0.85640  0.66610  0.13710  1.0000 0.2686339124
C   C117      1.0  0.88850  0.40570  0.66540  1.0000 -0.380677686
C   C118      1.0  0.38850  0.09430  0.33460  1.0000 -0.380677686
C   C119      1.0  0.38850  0.90570  0.83460  1.0000 -0.380677686
C   C120      1.0  0.88850  0.59430  0.16540  1.0000 -0.380677686
C   C121      1.0  0.80660  0.46090  0.64450  1.0000 0.2638105058
C   C122      1.0  0.30660  0.03910  0.35550  1.0000 0.2638105058
C   C123      1.0  0.30660  0.96090  0.85550  1.0000 0.2638105058
C   C124      1.0  0.80660  0.53910  0.14450  1.0000 0.2638105058
C   C125      1.0  0.68700  0.44120  0.66300  1.0000 -0.380677686
C   C126      1.0  0.18700  0.05880  0.33700  1.0000 -0.380677686
C   C127      1.0  0.18700  0.94120  0.83700  1.0000 -0.380677686
C   C128      1.0  0.68700  0.55880  0.16300  1.0000 -0.380677686
C   C129      1.0  0.66230  0.37580  0.56640  1.0000 -0.3588232556
C   C130      1.0  0.16230  0.12420  0.43360  1.0000 -0.3588232556
C   C131      1.0  0.16230  0.87580  0.93360  1.0000 -0.3588232556
C   C132      1.0  0.66230  0.62420  0.06640  1.0000 -0.3588232556
C   C133      1.0  0.78170  0.39670  0.54870  1.0000 0.2542828834
C   C134      1.0  0.28170  0.10330  0.45130  1.0000 0.2542828834
C   C135      1.0  0.28170  0.89670  0.95130  1.0000 0.2542828834
C   C136      1.0  0.78170  0.60330  0.04870  1.0000 0.2542828834
C   C137      1.0  0.86290  0.33960  0.56830  1.0000 -0.3588232556
C   C138      1.0  0.36290  0.16040  0.43170  1.0000 -0.3588232556
C   C139      1.0  0.36290  0.83960  0.93170  1.0000 -0.3588232556
C   C140      1.0  0.86290  0.66040  0.06830  1.0000 -0.3588232556
C   C141      1.0  0.81220  0.46750  0.57640  1.0000 -0.3685991885
C   C142      1.0  0.31220  0.03250  0.42360  1.0000 -0.3685991885
C   C143      1.0  0.31220  0.96750  0.92360  1.0000 -0.3685991885
C   C144      1.0  0.81220  0.53250  0.07640  1.0000 -0.3685991885
N   N1        1.0  0.10660  0.20860  0.17840  1.0000 -0.1685584699
N   N2        1.0  0.60660  0.29140  0.82160  1.0000 -0.1685584699
N   N3        1.0  0.60660  0.70860  0.32160  1.0000 -0.1685584699
N   N4        1.0  0.10660  0.79140  0.67840  1.0000 -0.1685584699
N   N5        1.0  0.13060  0.13990  0.18340  1.0000 -0.2299841987
N   N6        1.0  0.63060  0.36010  0.81660  1.0000 -0.2299841987
N   N7        1.0  0.63060  0.63990  0.31660  1.0000 -0.2299841987
N   N8        1.0  0.13060  0.86010  0.68340  1.0000 -0.2299841987
N   N9        1.0  0.95710  0.14930  0.15378  1.0000 -0.0721500227
N   N10       1.0  0.45710  0.35070  0.84622  1.0000 -0.0721500227
N   N11       1.0  0.45710  0.64930  0.34622  1.0000 -0.0721500227
N   N12       1.0  0.95710  0.85070  0.65378  1.0000 -0.0721500227
N   N13       1.0  0.48520  0.32540  0.16810  1.0000 -0.2299841987
N   N14       1.0  0.98520  0.17460  0.83190  1.0000 -0.2299841987
N   N15       1.0  0.98520  0.82540  0.33190  1.0000 -0.2299841987
N   N16       1.0  0.48520  0.67460  0.66810  1.0000 -0.2299841987
N   N17       1.0  0.40830  0.27330  0.18300  1.0000 -0.1685584699
N   N18       1.0  0.90830  0.22670  0.81700  1.0000 -0.1685584699
N   N19       1.0  0.90830  0.77330  0.31700  1.0000 -0.1685584699
N   N20       1.0  0.40830  0.72670  0.68300  1.0000 -0.1685584699
N   N21       1.0  0.56260  0.22090  0.15630  1.0000 -0.0798312478
N   N22       1.0  0.06260  0.27910  0.84370  1.0000 -0.0798312478
N   N23       1.0  0.06260  0.72090  0.34370  1.0000 -0.0798312478
N   N24       1.0  0.56260  0.77910  0.65630  1.0000 -0.0859775366
N   N25       1.0  0.59120  0.86650  0.18710  1.0000 -0.2117348359
N   N26       1.0  0.09120  0.63350  0.81290  1.0000 -0.2117348359
N   N27       1.0  0.09120  0.36650  0.31290  1.0000 -0.2117348359
N   N28       1.0  0.59120  0.13350  0.68710  1.0000 -0.2117348359
N   N29       1.0  0.67760  0.87360  0.22430  1.0000 -0.1685584699
N   N30       1.0  0.17760  0.62640  0.77570  1.0000 -0.1685584699
N   N31       1.0  0.17760  0.37360  0.27570  1.0000 -0.1685584699
N   N32       1.0  0.67760  0.12640  0.72430  1.0000 -0.1685584699
N   N33       1.0  0.66750  0.96950  0.17067  1.0000 -0.0798312478
N   N34       1.0  0.16750  0.53050  0.82933  1.0000 -0.0798312478
N   N35       1.0  0.16750  0.46950  0.32933  1.0000 -0.0798312478
N   N36       1.0  0.66750  0.03050  0.67067  1.0000 -0.0798312478
N   N37       1.0  0.71050  0.12700  0.88870  1.0000 -0.1685584699
N   N38       1.0  0.21050  0.37300  0.11130  1.0000 -0.1685584699
N   N39       1.0  0.21050  0.62700  0.61130  1.0000 -0.1685584699
N   N40       1.0  0.71050  0.87300  0.38870  1.0000 -0.1685584699
N   N41       1.0  0.68200  0.05670  0.89260  1.0000 -0.2299841987
N   N42       1.0  0.18200  0.44330  0.10740  1.0000 -0.2299841987
N   N43       1.0  0.18200  0.55670  0.60740  1.0000 -0.2299841987
N   N44       1.0  0.68200  0.94330  0.39260  1.0000 -0.2299841987
N   N45       1.0  0.71130  0.09750  0.98274  1.0000 -0.0798312478
N   N46       1.0  0.21130  0.40250  0.01726  1.0000 -0.0798312478
N   N47       1.0  0.21130  0.59750  0.51726  1.0000 -0.0798312478
N   N48       1.0  0.71130  0.90250  0.48274  1.0000 -0.0798312478
N   N49       1.0  0.39340  0.29140  0.67840  1.0000 -0.1685584699
N   N50       1.0  0.89340  0.20860  0.32160  1.0000 -0.1685584699
N   N51       1.0  0.89340  0.79140  0.82160  1.0000 -0.1685584699
N   N52       1.0  0.39340  0.70860  0.17840  1.0000 -0.1685584699
N   N53       1.0  0.36940  0.36010  0.68340  1.0000 -0.2299841987
N   N54       1.0  0.86940  0.13990  0.31660  1.0000 -0.2299841987
N   N55       1.0  0.86940  0.86010  0.81660  1.0000 -0.2299841987
N   N56       1.0  0.36940  0.63990  0.18340  1.0000 -0.2299841987
N   N57       1.0  0.54290  0.35070  0.65378  1.0000 -0.0721500227
N   N58       1.0  0.04290  0.14930  0.34622  1.0000 -0.0721500227
N   N59       1.0  0.04290  0.85070  0.84622  1.0000 -0.0721500227
N   N60       1.0  0.54290  0.64930  0.15378  1.0000 -0.0721500227
N   N61       1.0  0.01480  0.17460  0.66810  1.0000 -0.2299841987
N   N62       1.0  0.51480  0.32540  0.33190  1.0000 -0.2299841987
N   N63       1.0  0.51480  0.67460  0.83190  1.0000 -0.2299841987
N   N64       1.0  0.01480  0.82540  0.16810  1.0000 -0.2299841987
N   N65       1.0  0.09170  0.22670  0.68300  1.0000 -0.1685584699
N   N66       1.0  0.59170  0.27330  0.31700  1.0000 -0.1685584699
N   N67       1.0  0.59170  0.72670  0.81700  1.0000 -0.1685584699
N   N68       1.0  0.09170  0.77330  0.18300  1.0000 -0.1685584699
N   N69       1.0  0.93740  0.27910  0.65630  1.0000 -0.0798312478
N   N70       1.0  0.43740  0.22090  0.34370  1.0000 -0.0798312478
N   N71       1.0  0.43740  0.77910  0.84370  1.0000 -0.0859775366
N   N72       1.0  0.93740  0.72090  0.15630  1.0000 -0.0798312478
N   N73       1.0  0.90880  0.63350  0.68710  1.0000 -0.2117348359
N   N74       1.0  0.40880  0.86650  0.31290  1.0000 -0.2117348359
N   N75       1.0  0.40880  0.13350  0.81290  1.0000 -0.2117348359
N   N76       1.0  0.90880  0.36650  0.18710  1.0000 -0.2117348359
N   N77       1.0  0.82240  0.62640  0.72430  1.0000 -0.1685584699
N   N78       1.0  0.32240  0.87360  0.27570  1.0000 -0.1685584699
N   N79       1.0  0.32240  0.12640  0.77570  1.0000 -0.1685584699
N   N80       1.0  0.82240  0.37360  0.22430  1.0000 -0.1685584699
N   N81       1.0  0.83250  0.53050  0.67067  1.0000 -0.0798312478
N   N82       1.0  0.33250  0.96950  0.32933  1.0000 -0.0798312478
N   N83       1.0  0.33250  0.03050  0.82933  1.0000 -0.0798312478
N   N84       1.0  0.83250  0.46950  0.17067  1.0000 -0.0798312478
N   N85       1.0  0.78950  0.37300  0.38870  1.0000 -0.1685584699
N   N86       1.0  0.28950  0.12700  0.61130  1.0000 -0.1685584699
N   N87       1.0  0.28950  0.87300  0.11130  1.0000 -0.1685584699
N   N88       1.0  0.78950  0.62700  0.88870  1.0000 -0.1685584699
N   N89       1.0  0.81800  0.44330  0.39260  1.0000 -0.2299841987
N   N90       1.0  0.31800  0.05670  0.60740  1.0000 -0.2299841987
N   N91       1.0  0.31800  0.94330  0.10740  1.0000 -0.2299841987
N   N92       1.0  0.81800  0.55670  0.89260  1.0000 -0.2299841987
N   N93       1.0  0.78870  0.40250  0.48274  1.0000 -0.0798312478
N   N94       1.0  0.28870  0.09750  0.51726  1.0000 -0.0798312478
N   N95       1.0  0.28870  0.90250  0.01726  1.0000 -0.0798312478
N   N96       1.0  0.78870  0.59750  0.98274  1.0000 -0.0798312478
