# DDEC6 charges by PACMAN v1.1 (https://github.com/mtap-research/PACMAN-charge/)
data_2012[Cu][nbo]3[ASR]1
_chemical_formula_sum              "Cu6 H30 C78 O24"
_cell_length_a       20.968
_cell_length_b       20.968
_cell_length_c       20.968
_cell_angle_alpha    53.3631
_cell_angle_beta     53.3631
_cell_angle_gamma    53.3631

_symmetry_space_group_name_H-M    "P 1"
_symmetry_Int_Tables_number       1

loop_
  _symmetry_equiv_pos_as_xyz
  'x, y, z'

loop_
  _atom_site_type_symbol
  _atom_site_label
  _atom_site_symmetry_multiplicity
  _atom_site_fract_x
  _atom_site_fract_y
  _atom_site_fract_z
  _atom_site_occupancy
  _atom_site_charge
Cu  Cu1       1.0  0.49792  0.49792  0.06586  1.0000 0.8390478038
Cu  Cu2       1.0  0.49792  0.06586  0.49792  1.0000 0.8390478038
Cu  Cu3       1.0  0.06586  0.49792  0.49792  1.0000 0.8390478038
Cu  Cu4       1.0  0.50208  0.93414  0.50208  1.0000 0.8390478038
Cu  Cu5       1.0  0.93414  0.50208  0.50208  1.0000 0.8390478038
Cu  Cu6       1.0  0.50208  0.50208  0.93414  1.0000 0.8390478038
H   H1        1.0  0.53150  0.23050  0.23050  1.0000 0.1398379109
H   H2        1.0  0.23050  0.23050  0.53150  1.0000 0.1398379109
H   H3        1.0  0.23050  0.53150  0.23050  1.0000 0.1398379109
H   H4        1.0  0.46850  0.76950  0.76950  1.0000 0.1398379109
H   H5        1.0  0.76950  0.76950  0.46850  1.0000 0.1398379109
H   H6        1.0  0.76950  0.46850  0.76950  1.0000 0.1398379109
H   H7        1.0  0.53460  0.24430  0.03120  1.0000 0.1398379109
H   H8        1.0  0.24430  0.03120  0.53460  1.0000 0.1398379109
H   H9        1.0  0.03120  0.53460  0.24430  1.0000 0.1398379109
H   H10       1.0  0.46540  0.96880  0.75570  1.0000 0.1398379109
H   H11       1.0  0.96880  0.75570  0.46540  1.0000 0.1398379109
H   H12       1.0  0.75570  0.46540  0.96880  1.0000 0.1398379109
H   H13       1.0  0.46540  0.75570  0.96880  1.0000 0.1398379109
H   H14       1.0  0.75570  0.96880  0.46540  1.0000 0.1398379109
H   H15       1.0  0.96880  0.46540  0.75570  1.0000 0.1398379109
H   H16       1.0  0.53460  0.03120  0.24430  1.0000 0.1398379109
H   H17       1.0  0.03120  0.24430  0.53460  1.0000 0.1398379109
H   H18       1.0  0.24430  0.53460  0.03120  1.0000 0.1398379109
H   H19       1.0  0.49920  0.13880  0.92610  1.0000 0.1190739671
H   H20       1.0  0.13880  0.92610  0.49920  1.0000 0.1190739671
H   H21       1.0  0.92610  0.49920  0.13880  1.0000 0.1190739671
H   H22       1.0  0.50080  0.07390  0.86120  1.0000 0.1190739671
H   H23       1.0  0.07390  0.86120  0.50080  1.0000 0.1190739671
H   H24       1.0  0.86120  0.50080  0.07390  1.0000 0.1190739671
H   H25       1.0  0.50080  0.86120  0.07390  1.0000 0.1190739671
H   H26       1.0  0.86120  0.07390  0.50080  1.0000 0.1190739671
H   H27       1.0  0.07390  0.50080  0.86120  1.0000 0.1190739671
H   H28       1.0  0.49920  0.92610  0.13880  1.0000 0.1190739671
H   H29       1.0  0.92610  0.13880  0.49920  1.0000 0.1190739671
H   H30       1.0  0.13880  0.49920  0.92610  1.0000 0.1190739671
C   C1        1.0  0.52618  0.34289  0.07525  1.0000 0.5748326375
C   C2        1.0  0.34289  0.07525  0.52618  1.0000 0.5748326375
C   C3        1.0  0.07525  0.52618  0.34289  1.0000 0.5748326375
C   C4        1.0  0.47382  0.92475  0.65711  1.0000 0.5748326375
C   C5        1.0  0.92475  0.65711  0.47382  1.0000 0.5748326375
C   C6        1.0  0.65711  0.47382  0.92475  1.0000 0.5748326375
C   C7        1.0  0.47382  0.65711  0.92475  1.0000 0.5748326375
C   C8        1.0  0.65711  0.92475  0.47382  1.0000 0.5748326375
C   C9        1.0  0.92475  0.47382  0.65711  1.0000 0.5748326375
C   C10       1.0  0.52618  0.07525  0.34289  1.0000 0.5748326375
C   C11       1.0  0.07525  0.34289  0.52618  1.0000 0.5748326375
C   C12       1.0  0.34289  0.52618  0.07525  1.0000 0.5748326375
C   C13       1.0  0.53248  0.25317  0.12261  1.0000 -0.0470331749
C   C14       1.0  0.25317  0.12261  0.53248  1.0000 -0.0470331749
C   C15       1.0  0.12261  0.53248  0.25317  1.0000 -0.0470331749
C   C16       1.0  0.46752  0.87739  0.74683  1.0000 -0.0470331749
C   C17       1.0  0.87739  0.74683  0.46752  1.0000 -0.0470331749
C   C18       1.0  0.74683  0.46752  0.87739  1.0000 -0.0470331749
C   C19       1.0  0.46752  0.74683  0.87739  1.0000 -0.0470331749
C   C20       1.0  0.74683  0.87739  0.46752  1.0000 -0.0470331749
C   C21       1.0  0.87739  0.46752  0.74683  1.0000 -0.0470331749
C   C22       1.0  0.53248  0.12261  0.25317  1.0000 -0.0470331749
C   C23       1.0  0.12261  0.25317  0.53248  1.0000 -0.0470331749
C   C24       1.0  0.25317  0.53248  0.12261  1.0000 -0.0470331749
C   C25       1.0  0.53206  0.20551  0.20551  1.0000 -0.0727860363
C   C26       1.0  0.20552  0.20551  0.53206  1.0000 -0.0727860363
C   C27       1.0  0.20551  0.53206  0.20551  1.0000 -0.0727860363
C   C28       1.0  0.46794  0.79449  0.79448  1.0000 -0.0727860363
C   C29       1.0  0.79449  0.79448  0.46794  1.0000 -0.0727860363
C   C30       1.0  0.79448  0.46794  0.79448  1.0000 -0.0727860363
C   C31       1.0  0.53488  0.21420  0.08616  1.0000 -0.1158353081
C   C32       1.0  0.21420  0.08616  0.53488  1.0000 -0.1158353081
C   C33       1.0  0.08616  0.53488  0.21420  1.0000 -0.1158353081
C   C34       1.0  0.46512  0.91384  0.78580  1.0000 -0.1158353081
C   C35       1.0  0.91384  0.78580  0.46512  1.0000 -0.1158353081
C   C36       1.0  0.78580  0.46512  0.91384  1.0000 -0.1128421606
C   C37       1.0  0.46512  0.78580  0.91384  1.0000 -0.1158353081
C   C38       1.0  0.78580  0.91384  0.46512  1.0000 -0.1158353081
C   C39       1.0  0.91384  0.46512  0.78580  1.0000 -0.1158353081
C   C40       1.0  0.53488  0.08616  0.21420  1.0000 -0.1158353081
C   C41       1.0  0.08616  0.21420  0.53488  1.0000 -0.1158353081
C   C42       1.0  0.21420  0.53488  0.08616  1.0000 -0.1158353081
C   C43       1.0  0.53775  0.13058  0.13058  1.0000 0.1190739671
C   C44       1.0  0.13058  0.13058  0.53775  1.0000 0.1190739671
C   C45       1.0  0.13058  0.53775  0.13058  1.0000 0.1190739671
C   C46       1.0  0.46225  0.86942  0.86942  1.0000 0.1190739671
C   C47       1.0  0.86942  0.86942  0.46225  1.0000 0.1190739671
C   C48       1.0  0.86942  0.46225  0.86942  1.0000 0.1190739671
C   C49       1.0  0.53259  0.09479  0.09479  1.0000 -0.0995337839
C   C50       1.0  0.09479  0.09479  0.53259  1.0000 -0.0995337839
C   C51       1.0  0.09479  0.53259  0.09479  1.0000 -0.0995337839
C   C52       1.0  0.46741  0.90521  0.90521  1.0000 -0.0995337839
C   C53       1.0  0.90521  0.90521  0.46741  1.0000 -0.0995337839
C   C54       1.0  0.90521  0.46741  0.90521  1.0000 -0.0995337839
C   C55       1.0  0.51539  0.07021  0.07021  1.0000 -0.0995337839
C   C56       1.0  0.07021  0.07021  0.51539  1.0000 -0.0995337839
C   C57       1.0  0.07021  0.51539  0.07021  1.0000 -0.0995337839
C   C58       1.0  0.48461  0.92979  0.92979  1.0000 -0.0995337839
C   C59       1.0  0.92979  0.92979  0.48461  1.0000 -0.0995337839
C   C60       1.0  0.92979  0.48461  0.92979  1.0000 -0.0995337839
C   C61       1.0  0.50761  0.03480  0.03480  1.0000 0.1190739671
C   C62       1.0  0.03480  0.03480  0.50761  1.0000 0.1190739671
C   C63       1.0  0.03480  0.50761  0.03480  1.0000 0.1190739671
C   C64       1.0  0.49239  0.96520  0.96520  1.0000 0.1190739671
C   C65       1.0  0.96520  0.96520  0.49239  1.0000 0.1190739671
C   C66       1.0  0.96520  0.49239  0.96520  1.0000 0.1190739671
C   C67       1.0  0.50148  0.08289  0.95525  1.0000 -0.143600537
C   C68       1.0  0.08289  0.95525  0.50148  1.0000 -0.143600537
C   C69       1.0  0.95525  0.50148  0.08289  1.0000 -0.143600537
C   C70       1.0  0.49852  0.04475  0.91711  1.0000 -0.1476594613
C   C71       1.0  0.04475  0.91711  0.49852  1.0000 -0.1476594613
C   C72       1.0  0.91711  0.49852  0.04475  1.0000 -0.143600537
C   C73       1.0  0.49852  0.91711  0.04475  1.0000 -0.143600537
C   C74       1.0  0.91711  0.04475  0.49852  1.0000 -0.1476594613
C   C75       1.0  0.04475  0.49852  0.91711  1.0000 -0.1476594613
C   C76       1.0  0.50148  0.95525  0.08289  1.0000 -0.1476594613
C   C77       1.0  0.95525  0.08289  0.50148  1.0000 -0.1476594613
C   C78       1.0  0.08289  0.50148  0.95525  1.0000 -0.1476594613
O   O1        1.0  0.52407  0.37920  0.00412  1.0000 -0.4878419917
O   O2        1.0  0.37920  0.00412  0.52407  1.0000 -0.4878419917
O   O3        1.0  0.00412  0.52407  0.37920  1.0000 -0.4878419917
O   O4        1.0  0.47593  0.99588  0.62080  1.0000 -0.4878419917
O   O5        1.0  0.99588  0.62080  0.47593  1.0000 -0.4878419917
O   O6        1.0  0.62080  0.47593  0.99588  1.0000 -0.4878419917
O   O7        1.0  0.47593  0.62080  0.99588  1.0000 -0.4878419917
O   O8        1.0  0.62080  0.99588  0.47593  1.0000 -0.4878419917
O   O9        1.0  0.99588  0.47593  0.62080  1.0000 -0.4878419917
O   O10       1.0  0.52407  0.00412  0.37920  1.0000 -0.4878419917
O   O11       1.0  0.00412  0.37920  0.52407  1.0000 -0.4878419917
O   O12       1.0  0.37920  0.52407  0.00412  1.0000 -0.4878419917
O   O13       1.0  0.51987  0.37538  0.11453  1.0000 -0.5099052495
O   O14       1.0  0.37538  0.11453  0.51987  1.0000 -0.5099052495
O   O15       1.0  0.11453  0.51987  0.37538  1.0000 -0.5099052495
O   O16       1.0  0.48013  0.88547  0.62462  1.0000 -0.5099052495
O   O17       1.0  0.88547  0.62462  0.48013  1.0000 -0.5099052495
O   O18       1.0  0.62462  0.48013  0.88547  1.0000 -0.5099052495
O   O19       1.0  0.48013  0.62462  0.88547  1.0000 -0.5099052495
O   O20       1.0  0.62462  0.88547  0.48013  1.0000 -0.5099052495
O   O21       1.0  0.88547  0.48013  0.62462  1.0000 -0.5099052495
O   O22       1.0  0.51987  0.11453  0.37538  1.0000 -0.5099052495
O   O23       1.0  0.11453  0.37538  0.51987  1.0000 -0.5099052495
O   O24       1.0  0.37538  0.51987  0.11453  1.0000 -0.5099052495
