# DDEC6 charges by PACMAN v1.1 (https://github.com/mtap-research/PACMAN-charge/)
data_2012[Zr][reo]3[ASR]1
_chemical_formula_sum              "Zr36 H48 C240 S72 O144"
_cell_length_a       35.3299
_cell_length_b       35.3299
_cell_length_c       35.3299
_cell_angle_alpha    60
_cell_angle_beta     60
_cell_angle_gamma    60

_symmetry_space_group_name_H-M    "P 1"
_symmetry_Int_Tables_number       1

loop_
  _symmetry_equiv_pos_as_xyz
  'x, y, z'

loop_
  _atom_site_type_symbol
  _atom_site_label
  _atom_site_symmetry_multiplicity
  _atom_site_fract_x
  _atom_site_fract_y
  _atom_site_fract_z
  _atom_site_occupancy
  _atom_site_charge
Zr  Zr1       1.0  0.50000  0.93026  0.50000  1.0000 2.3224035874
Zr  Zr2       1.0  0.93026  0.50000  0.06974  1.0000 2.3224035874
Zr  Zr3       1.0  0.50000  0.06974  0.50000  1.0000 2.3224035874
Zr  Zr4       1.0  0.06974  0.50000  0.93026  1.0000 2.3224035874
Zr  Zr5       1.0  0.50000  0.50000  0.93026  1.0000 2.3285432102
Zr  Zr6       1.0  0.06974  0.93026  0.50000  1.0000 2.3224035874
Zr  Zr7       1.0  0.50000  0.50000  0.06974  1.0000 2.3285432102
Zr  Zr8       1.0  0.93026  0.06974  0.50000  1.0000 2.3224035874
Zr  Zr9       1.0  0.93026  0.50000  0.50000  1.0000 2.3224035874
Zr  Zr10      1.0  0.50000  0.06974  0.93026  1.0000 2.3285432102
Zr  Zr11      1.0  0.06974  0.50000  0.50000  1.0000 2.3224035874
Zr  Zr12      1.0  0.50000  0.93026  0.06974  1.0000 2.3224035874
Zr  Zr13      1.0  0.51454  0.03540  0.41466  1.0000 2.4420888777
Zr  Zr14      1.0  0.03540  0.51454  0.03540  1.0000 2.4552553735
Zr  Zr15      1.0  0.41466  0.03540  0.51454  1.0000 2.4420888777
Zr  Zr16      1.0  0.03540  0.41466  0.03540  1.0000 2.4500537317
Zr  Zr17      1.0  0.41466  0.51454  0.03540  1.0000 2.4552553735
Zr  Zr18      1.0  0.03540  0.03540  0.51454  1.0000 2.4500537317
Zr  Zr19      1.0  0.51454  0.41466  0.03540  1.0000 2.4500537317
Zr  Zr20      1.0  0.03540  0.03540  0.41466  1.0000 2.4500537317
Zr  Zr21      1.0  0.03540  0.41466  0.51454  1.0000 2.4420888777
Zr  Zr22      1.0  0.51454  0.03540  0.03540  1.0000 2.4500537317
Zr  Zr23      1.0  0.03540  0.51454  0.41466  1.0000 2.4420888777
Zr  Zr24      1.0  0.41466  0.03540  0.03540  1.0000 2.4500537317
Zr  Zr25      1.0  0.48546  0.96460  0.96460  1.0000 2.4500537317
Zr  Zr26      1.0  0.96460  0.48546  0.58534  1.0000 2.4420888777
Zr  Zr27      1.0  0.58534  0.96460  0.96460  1.0000 2.4500537317
Zr  Zr28      1.0  0.96460  0.58534  0.48546  1.0000 2.4420888777
Zr  Zr29      1.0  0.58534  0.48546  0.96460  1.0000 2.4500537317
Zr  Zr30      1.0  0.96460  0.96460  0.58534  1.0000 2.4420888777
Zr  Zr31      1.0  0.48546  0.58534  0.96460  1.0000 2.4500537317
Zr  Zr32      1.0  0.96460  0.96460  0.48546  1.0000 2.4500537317
Zr  Zr33      1.0  0.96460  0.58534  0.96460  1.0000 2.4500537317
Zr  Zr34      1.0  0.48546  0.96460  0.58534  1.0000 2.4500537317
Zr  Zr35      1.0  0.96460  0.48546  0.96460  1.0000 2.4500537317
Zr  Zr36      1.0  0.58534  0.96460  0.48546  1.0000 2.4500537317
H   H1        1.0  0.50570  0.87830  0.39710  1.0000 0.1409630252
H   H2        1.0  0.87830  0.50570  0.21890  1.0000 0.1409630252
H   H3        1.0  0.39710  0.21890  0.50570  1.0000 0.1409630252
H   H4        1.0  0.21890  0.39710  0.87830  1.0000 0.1409630252
H   H5        1.0  0.39710  0.50570  0.87830  1.0000 0.1409630252
H   H6        1.0  0.21890  0.87830  0.50570  1.0000 0.1409630252
H   H7        1.0  0.50570  0.39710  0.21890  1.0000 0.1409630252
H   H8        1.0  0.87830  0.21890  0.39710  1.0000 0.1409630252
H   H9        1.0  0.87830  0.39710  0.50570  1.0000 0.1409630252
H   H10       1.0  0.50570  0.21890  0.87830  1.0000 0.1409630252
H   H11       1.0  0.21890  0.50570  0.39710  1.0000 0.1409630252
H   H12       1.0  0.39710  0.87830  0.21890  1.0000 0.1409630252
H   H13       1.0  0.49430  0.12170  0.78110  1.0000 0.1409630252
H   H14       1.0  0.12170  0.49430  0.60290  1.0000 0.1409630252
H   H15       1.0  0.60290  0.78110  0.12170  1.0000 0.1409630252
H   H16       1.0  0.78110  0.60290  0.49430  1.0000 0.1409630252
H   H17       1.0  0.60290  0.49430  0.78110  1.0000 0.1409630252
H   H18       1.0  0.78110  0.12170  0.60290  1.0000 0.1409630252
H   H19       1.0  0.49430  0.60290  0.12170  1.0000 0.1409630252
H   H20       1.0  0.12170  0.78110  0.49430  1.0000 0.1409630252
H   H21       1.0  0.12170  0.60290  0.78110  1.0000 0.1409630252
H   H22       1.0  0.49430  0.78110  0.60290  1.0000 0.1409630252
H   H23       1.0  0.78110  0.49430  0.12170  1.0000 0.1409630252
H   H24       1.0  0.60290  0.12170  0.49430  1.0000 0.1409630252
H   H25       1.0  0.49430  0.12170  0.60290  1.0000 0.1409630252
H   H26       1.0  0.12170  0.49430  0.78110  1.0000 0.1409630252
H   H27       1.0  0.60290  0.78110  0.49430  1.0000 0.1409630252
H   H28       1.0  0.78110  0.60290  0.12170  1.0000 0.1409630252
H   H29       1.0  0.60290  0.49430  0.12170  1.0000 0.1409630252
H   H30       1.0  0.78110  0.12170  0.49430  1.0000 0.1409630252
H   H31       1.0  0.49430  0.60290  0.78110  1.0000 0.1409630252
H   H32       1.0  0.12170  0.78110  0.60290  1.0000 0.1409630252
H   H33       1.0  0.12170  0.60290  0.49430  1.0000 0.1409630252
H   H34       1.0  0.49430  0.78110  0.12170  1.0000 0.1409630252
H   H35       1.0  0.78110  0.49430  0.60290  1.0000 0.1409630252
H   H36       1.0  0.60290  0.12170  0.78110  1.0000 0.1409630252
H   H37       1.0  0.50570  0.87830  0.21890  1.0000 0.1409630252
H   H38       1.0  0.87830  0.50570  0.39710  1.0000 0.1409630252
H   H39       1.0  0.39710  0.21890  0.87830  1.0000 0.1409630252
H   H40       1.0  0.21890  0.39710  0.50570  1.0000 0.1409630252
H   H41       1.0  0.39710  0.50570  0.21890  1.0000 0.1409630252
H   H42       1.0  0.21890  0.87830  0.39710  1.0000 0.1409630252
H   H43       1.0  0.50570  0.39710  0.87830  1.0000 0.1409630252
H   H44       1.0  0.87830  0.21890  0.50570  1.0000 0.1409630252
H   H45       1.0  0.87830  0.39710  0.21890  1.0000 0.1409630252
H   H46       1.0  0.50570  0.21890  0.39710  1.0000 0.1409630252
H   H47       1.0  0.21890  0.50570  0.87830  1.0000 0.1409630252
H   H48       1.0  0.39710  0.87830  0.50570  1.0000 0.1409630252
C   C1        1.0  0.51652  0.93998  0.36110  1.0000 -0.1237524211
C   C2        1.0  0.93998  0.51652  0.18240  1.0000 -0.1260244841
C   C3        1.0  0.36110  0.18240  0.51652  1.0000 -0.1237524211
C   C4        1.0  0.18240  0.36110  0.93998  1.0000 -0.1260244841
C   C5        1.0  0.36110  0.51652  0.93998  1.0000 -0.1237524211
C   C6        1.0  0.18240  0.93998  0.51652  1.0000 -0.1260244841
C   C7        1.0  0.51652  0.36110  0.18240  1.0000 -0.1260244841
C   C8        1.0  0.93998  0.18240  0.36110  1.0000 -0.1237524211
C   C9        1.0  0.93998  0.36110  0.51652  1.0000 -0.1260244841
C   C10       1.0  0.51652  0.18240  0.93998  1.0000 -0.1237524211
C   C11       1.0  0.18240  0.51652  0.36110  1.0000 -0.1237524211
C   C12       1.0  0.36110  0.93998  0.18240  1.0000 -0.1260244841
C   C13       1.0  0.48348  0.06002  0.81760  1.0000 -0.1237524211
C   C14       1.0  0.06002  0.48348  0.63890  1.0000 -0.1237524211
C   C15       1.0  0.63890  0.81760  0.06002  1.0000 -0.1237524211
C   C16       1.0  0.81760  0.63890  0.48348  1.0000 -0.1237524211
C   C17       1.0  0.63890  0.48348  0.81760  1.0000 -0.1237524211
C   C18       1.0  0.81760  0.06002  0.63890  1.0000 -0.1237524211
C   C19       1.0  0.48348  0.63890  0.06002  1.0000 -0.1237524211
C   C20       1.0  0.06002  0.81760  0.48348  1.0000 -0.1237524211
C   C21       1.0  0.06002  0.63890  0.81760  1.0000 -0.1237524211
C   C22       1.0  0.48348  0.81760  0.63890  1.0000 -0.1237524211
C   C23       1.0  0.81760  0.48348  0.06002  1.0000 -0.1237524211
C   C24       1.0  0.63890  0.06002  0.48348  1.0000 -0.1237524211
C   C25       1.0  0.48348  0.06002  0.63890  1.0000 -0.1237524211
C   C26       1.0  0.06002  0.48348  0.81760  1.0000 -0.1237524211
C   C27       1.0  0.63890  0.81760  0.48348  1.0000 -0.1237524211
C   C28       1.0  0.81760  0.63890  0.06002  1.0000 -0.1237524211
C   C29       1.0  0.63890  0.48348  0.06002  1.0000 -0.1260244841
C   C30       1.0  0.81760  0.06002  0.48348  1.0000 -0.1237524211
C   C31       1.0  0.48348  0.63890  0.81760  1.0000 -0.1237524211
C   C32       1.0  0.06002  0.81760  0.63890  1.0000 -0.1237524211
C   C33       1.0  0.06002  0.63890  0.48348  1.0000 -0.1237524211
C   C34       1.0  0.48348  0.81760  0.06002  1.0000 -0.1237524211
C   C35       1.0  0.81760  0.48348  0.63890  1.0000 -0.1237524211
C   C36       1.0  0.63890  0.06002  0.81760  1.0000 -0.1260244841
C   C37       1.0  0.51652  0.93998  0.18240  1.0000 -0.1260244841
C   C38       1.0  0.93998  0.51652  0.36110  1.0000 -0.1237524211
C   C39       1.0  0.36110  0.18240  0.93998  1.0000 -0.1237524211
C   C40       1.0  0.18240  0.36110  0.51652  1.0000 -0.1260244841
C   C41       1.0  0.36110  0.51652  0.18240  1.0000 -0.1260244841
C   C42       1.0  0.18240  0.93998  0.36110  1.0000 -0.1237524211
C   C43       1.0  0.51652  0.36110  0.93998  1.0000 -0.1237524211
C   C44       1.0  0.93998  0.18240  0.51652  1.0000 -0.1237524211
C   C45       1.0  0.93998  0.36110  0.18240  1.0000 -0.1237524211
C   C46       1.0  0.51652  0.18240  0.36110  1.0000 -0.1237524211
C   C47       1.0  0.18240  0.51652  0.93998  1.0000 -0.1237524211
C   C48       1.0  0.36110  0.93998  0.51652  1.0000 -0.1237524211
C   C49       1.0  0.51043  0.90177  0.36865  1.0000 -0.1604568175
C   C50       1.0  0.90177  0.51043  0.21915  1.0000 -0.1604568175
C   C51       1.0  0.36865  0.21915  0.51043  1.0000 -0.1604568175
C   C52       1.0  0.21915  0.36865  0.90177  1.0000 -0.1604568175
C   C53       1.0  0.36865  0.51043  0.90177  1.0000 -0.1604568175
C   C54       1.0  0.21915  0.90177  0.51043  1.0000 -0.1604568175
C   C55       1.0  0.51043  0.36865  0.21915  1.0000 -0.1604568175
C   C56       1.0  0.90177  0.21915  0.36865  1.0000 -0.1604568175
C   C57       1.0  0.90177  0.36865  0.51043  1.0000 -0.1604568175
C   C58       1.0  0.51043  0.21915  0.90177  1.0000 -0.1604568175
C   C59       1.0  0.21915  0.51043  0.36865  1.0000 -0.1604568175
C   C60       1.0  0.36865  0.90177  0.21915  1.0000 -0.1604568175
C   C61       1.0  0.48957  0.09823  0.78085  1.0000 -0.1604568175
C   C62       1.0  0.09823  0.48957  0.63135  1.0000 -0.1604568175
C   C63       1.0  0.63135  0.78085  0.09823  1.0000 -0.1604568175
C   C64       1.0  0.78085  0.63135  0.48957  1.0000 -0.1604568175
C   C65       1.0  0.63135  0.48957  0.78085  1.0000 -0.1604568175
C   C66       1.0  0.78085  0.09823  0.63135  1.0000 -0.1604568175
C   C67       1.0  0.48957  0.63135  0.09823  1.0000 -0.1604568175
C   C68       1.0  0.09823  0.78085  0.48957  1.0000 -0.1604568175
C   C69       1.0  0.09823  0.63135  0.78085  1.0000 -0.1604568175
C   C70       1.0  0.48957  0.78085  0.63135  1.0000 -0.1604568175
C   C71       1.0  0.78085  0.48957  0.09823  1.0000 -0.1604568175
C   C72       1.0  0.63135  0.09823  0.48957  1.0000 -0.1604568175
C   C73       1.0  0.48957  0.09823  0.63135  1.0000 -0.1604568175
C   C74       1.0  0.09823  0.48957  0.78085  1.0000 -0.1604568175
C   C75       1.0  0.63135  0.78085  0.48957  1.0000 -0.1604568175
C   C76       1.0  0.78085  0.63135  0.09823  1.0000 -0.1604568175
C   C77       1.0  0.63135  0.48957  0.09823  1.0000 -0.1604568175
C   C78       1.0  0.78085  0.09823  0.48957  1.0000 -0.1604568175
C   C79       1.0  0.48957  0.63135  0.78085  1.0000 -0.1604568175
C   C80       1.0  0.09823  0.78085  0.63135  1.0000 -0.1604568175
C   C81       1.0  0.09823  0.63135  0.48957  1.0000 -0.1604568175
C   C82       1.0  0.48957  0.78085  0.09823  1.0000 -0.1604568175
C   C83       1.0  0.78085  0.48957  0.63135  1.0000 -0.1604568175
C   C84       1.0  0.63135  0.09823  0.78085  1.0000 -0.1604568175
C   C85       1.0  0.51043  0.90177  0.21915  1.0000 -0.1604568175
C   C86       1.0  0.90177  0.51043  0.36865  1.0000 -0.1604568175
C   C87       1.0  0.36865  0.21915  0.90177  1.0000 -0.1604568175
C   C88       1.0  0.21915  0.36865  0.51043  1.0000 -0.1604568175
C   C89       1.0  0.36865  0.51043  0.21915  1.0000 -0.1604568175
C   C90       1.0  0.21915  0.90177  0.36865  1.0000 -0.1604568175
C   C91       1.0  0.51043  0.36865  0.90177  1.0000 -0.1604568175
C   C92       1.0  0.90177  0.21915  0.51043  1.0000 -0.1604568175
C   C93       1.0  0.90177  0.36865  0.21915  1.0000 -0.1604568175
C   C94       1.0  0.51043  0.21915  0.36865  1.0000 -0.1604568175
C   C95       1.0  0.21915  0.51043  0.90177  1.0000 -0.1604568175
C   C96       1.0  0.36865  0.90177  0.51043  1.0000 -0.1604568175
C   C97       1.0  0.51230  0.90202  0.32768  1.0000 -0.0281107716
C   C98       1.0  0.90202  0.51230  0.25800  1.0000 -0.021306239
C   C99       1.0  0.32768  0.25800  0.51230  1.0000 -0.021306239
C   C100      1.0  0.25800  0.32768  0.90202  1.0000 -0.021306239
C   C101      1.0  0.32768  0.51230  0.90202  1.0000 -0.021306239
C   C102      1.0  0.25800  0.90202  0.51230  1.0000 -0.021306239
C   C103      1.0  0.51230  0.32768  0.25800  1.0000 -0.0281107716
C   C104      1.0  0.90202  0.25800  0.32768  1.0000 -0.0281107716
C   C105      1.0  0.90202  0.32768  0.51230  1.0000 -0.021306239
C   C106      1.0  0.51230  0.25800  0.90202  1.0000 -0.021306239
C   C107      1.0  0.25800  0.51230  0.32768  1.0000 -0.0281107716
C   C108      1.0  0.32768  0.90202  0.25800  1.0000 -0.021306239
C   C109      1.0  0.48770  0.09798  0.74200  1.0000 -0.0281107716
C   C110      1.0  0.09798  0.48770  0.67232  1.0000 -0.021306239
C   C111      1.0  0.67232  0.74200  0.09798  1.0000 -0.0281107716
C   C112      1.0  0.74200  0.67232  0.48770  1.0000 -0.021306239
C   C113      1.0  0.67232  0.48770  0.74200  1.0000 -0.021306239
C   C114      1.0  0.74200  0.09798  0.67232  1.0000 -0.021306239
C   C115      1.0  0.48770  0.67232  0.09798  1.0000 -0.0281107716
C   C116      1.0  0.09798  0.74200  0.48770  1.0000 -0.021306239
C   C117      1.0  0.09798  0.67232  0.74200  1.0000 -0.021306239
C   C118      1.0  0.48770  0.74200  0.67232  1.0000 -0.021306239
C   C119      1.0  0.74200  0.48770  0.09798  1.0000 -0.0281107716
C   C120      1.0  0.67232  0.09798  0.48770  1.0000 -0.021306239
C   C121      1.0  0.48770  0.09798  0.67232  1.0000 -0.021306239
C   C122      1.0  0.09798  0.48770  0.74200  1.0000 -0.021306239
C   C123      1.0  0.67232  0.74200  0.48770  1.0000 -0.021306239
C   C124      1.0  0.74200  0.67232  0.09798  1.0000 -0.0281107716
C   C125      1.0  0.67232  0.48770  0.09798  1.0000 -0.0281107716
C   C126      1.0  0.74200  0.09798  0.48770  1.0000 -0.021306239
C   C127      1.0  0.48770  0.67232  0.74200  1.0000 -0.021306239
C   C128      1.0  0.09798  0.74200  0.67232  1.0000 -0.021306239
C   C129      1.0  0.09798  0.67232  0.48770  1.0000 -0.021306239
C   C130      1.0  0.48770  0.74200  0.09798  1.0000 -0.0281107716
C   C131      1.0  0.74200  0.48770  0.67232  1.0000 -0.021306239
C   C132      1.0  0.67232  0.09798  0.74200  1.0000 -0.0281107716
C   C133      1.0  0.51230  0.90202  0.25800  1.0000 -0.021306239
C   C134      1.0  0.90202  0.51230  0.32768  1.0000 -0.021306239
C   C135      1.0  0.32768  0.25800  0.90202  1.0000 -0.021306239
C   C136      1.0  0.25800  0.32768  0.51230  1.0000 -0.021306239
C   C137      1.0  0.32768  0.51230  0.25800  1.0000 -0.0281107716
C   C138      1.0  0.25800  0.90202  0.32768  1.0000 -0.0281107716
C   C139      1.0  0.51230  0.32768  0.90202  1.0000 -0.021306239
C   C140      1.0  0.90202  0.25800  0.51230  1.0000 -0.021306239
C   C141      1.0  0.90202  0.32768  0.25800  1.0000 -0.0281107716
C   C142      1.0  0.51230  0.25800  0.32768  1.0000 -0.0281107716
C   C143      1.0  0.25800  0.51230  0.90202  1.0000 -0.021306239
C   C144      1.0  0.32768  0.90202  0.51230  1.0000 -0.021306239
C   C145      1.0  0.51585  0.95327  0.39509  1.0000 0.6366816837
C   C146      1.0  0.95327  0.51585  0.13579  1.0000 0.6366816837
C   C147      1.0  0.39509  0.13579  0.51585  1.0000 0.6366816837
C   C148      1.0  0.13579  0.39509  0.95327  1.0000 0.6366816837
C   C149      1.0  0.39509  0.51585  0.95327  1.0000 0.6366816837
C   C150      1.0  0.13579  0.95327  0.51585  1.0000 0.6366816837
C   C151      1.0  0.51585  0.39509  0.13579  1.0000 0.6366816837
C   C152      1.0  0.95327  0.13579  0.39509  1.0000 0.6366816837
C   C153      1.0  0.95327  0.39509  0.51585  1.0000 0.6366816837
C   C154      1.0  0.51585  0.13579  0.95327  1.0000 0.6344365439
C   C155      1.0  0.13579  0.51585  0.39509  1.0000 0.6366816837
C   C156      1.0  0.39509  0.95327  0.13579  1.0000 0.6366816837
C   C157      1.0  0.48415  0.04673  0.86421  1.0000 0.6366816837
C   C158      1.0  0.04673  0.48415  0.60491  1.0000 0.6366816837
C   C159      1.0  0.60491  0.86421  0.04673  1.0000 0.6366816837
C   C160      1.0  0.86421  0.60491  0.48415  1.0000 0.6366816837
C   C161      1.0  0.60491  0.48415  0.86421  1.0000 0.6366816837
C   C162      1.0  0.86421  0.04673  0.60491  1.0000 0.6366816837
C   C163      1.0  0.48415  0.60491  0.04673  1.0000 0.6366816837
C   C164      1.0  0.04673  0.86421  0.48415  1.0000 0.6344365439
C   C165      1.0  0.04673  0.60491  0.86421  1.0000 0.6366816837
C   C166      1.0  0.48415  0.86421  0.60491  1.0000 0.6366816837
C   C167      1.0  0.86421  0.48415  0.04673  1.0000 0.6366816837
C   C168      1.0  0.60491  0.04673  0.48415  1.0000 0.6366816837
C   C169      1.0  0.48415  0.04673  0.60491  1.0000 0.6344365439
C   C170      1.0  0.04673  0.48415  0.86421  1.0000 0.6366816837
C   C171      1.0  0.60491  0.86421  0.48415  1.0000 0.6366816837
C   C172      1.0  0.86421  0.60491  0.04673  1.0000 0.6366816837
C   C173      1.0  0.60491  0.48415  0.04673  1.0000 0.6366816837
C   C174      1.0  0.86421  0.04673  0.48415  1.0000 0.6344365439
C   C175      1.0  0.48415  0.60491  0.86421  1.0000 0.6366816837
C   C176      1.0  0.04673  0.86421  0.60491  1.0000 0.6366816837
C   C177      1.0  0.04673  0.60491  0.48415  1.0000 0.6344365439
C   C178      1.0  0.48415  0.86421  0.04673  1.0000 0.6366816837
C   C179      1.0  0.86421  0.48415  0.60491  1.0000 0.6366816837
C   C180      1.0  0.60491  0.04673  0.86421  1.0000 0.6366816837
C   C181      1.0  0.51585  0.95327  0.13579  1.0000 0.6366816837
C   C182      1.0  0.95327  0.51585  0.39509  1.0000 0.6366816837
C   C183      1.0  0.39509  0.13579  0.95327  1.0000 0.6366816837
C   C184      1.0  0.13579  0.39509  0.51585  1.0000 0.6366816837
C   C185      1.0  0.39509  0.51585  0.13579  1.0000 0.6366816837
C   C186      1.0  0.13579  0.95327  0.39509  1.0000 0.6366816837
C   C187      1.0  0.51585  0.39509  0.95327  1.0000 0.6366816837
C   C188      1.0  0.95327  0.13579  0.51585  1.0000 0.6366816837
C   C189      1.0  0.95327  0.39509  0.13579  1.0000 0.6366816837
C   C190      1.0  0.51585  0.13579  0.39509  1.0000 0.6366816837
C   C191      1.0  0.13579  0.51585  0.95327  1.0000 0.6366816837
C   C192      1.0  0.39509  0.95327  0.51585  1.0000 0.6366816837
C   C193      1.0  0.51879  0.94105  0.29021  1.0000 -0.0843819686
C   C194      1.0  0.94105  0.51879  0.24995  1.0000 -0.0905455818
C   C195      1.0  0.29021  0.24995  0.51879  1.0000 -0.0905455818
C   C196      1.0  0.24995  0.29021  0.94105  1.0000 -0.0959796861
C   C197      1.0  0.29021  0.51879  0.94105  1.0000 -0.0959796861
C   C198      1.0  0.24995  0.94105  0.51879  1.0000 -0.0905455818
C   C199      1.0  0.51879  0.29021  0.24995  1.0000 -0.0905455818
C   C200      1.0  0.94105  0.24995  0.29021  1.0000 -0.0843819686
C   C201      1.0  0.94105  0.29021  0.51879  1.0000 -0.0905455818
C   C202      1.0  0.51879  0.24995  0.94105  1.0000 -0.0905455818
C   C203      1.0  0.24995  0.51879  0.29021  1.0000 -0.0905455818
C   C204      1.0  0.29021  0.94105  0.24995  1.0000 -0.0959796861
C   C205      1.0  0.48121  0.05895  0.75005  1.0000 -0.0905455818
C   C206      1.0  0.05895  0.48121  0.70979  1.0000 -0.0959796861
C   C207      1.0  0.70979  0.75005  0.05895  1.0000 -0.0905455818
C   C208      1.0  0.75005  0.70979  0.48121  1.0000 -0.0905455818
C   C209      1.0  0.70979  0.48121  0.75005  1.0000 -0.0905455818
C   C210      1.0  0.75005  0.05895  0.70979  1.0000 -0.0905455818
C   C211      1.0  0.48121  0.70979  0.05895  1.0000 -0.0905455818
C   C212      1.0  0.05895  0.75005  0.48121  1.0000 -0.0905455818
C   C213      1.0  0.05895  0.70979  0.75005  1.0000 -0.0959796861
C   C214      1.0  0.48121  0.75005  0.70979  1.0000 -0.0905455818
C   C215      1.0  0.75005  0.48121  0.05895  1.0000 -0.0843819686
C   C216      1.0  0.70979  0.05895  0.48121  1.0000 -0.0905455818
C   C217      1.0  0.48121  0.05895  0.70979  1.0000 -0.0905455818
C   C218      1.0  0.05895  0.48121  0.75005  1.0000 -0.0905455818
C   C219      1.0  0.70979  0.75005  0.48121  1.0000 -0.0905455818
C   C220      1.0  0.75005  0.70979  0.05895  1.0000 -0.0905455818
C   C221      1.0  0.70979  0.48121  0.05895  1.0000 -0.0905455818
C   C222      1.0  0.75005  0.05895  0.48121  1.0000 -0.0905455818
C   C223      1.0  0.48121  0.70979  0.75005  1.0000 -0.0905455818
C   C224      1.0  0.05895  0.75005  0.70979  1.0000 -0.0905455818
C   C225      1.0  0.05895  0.70979  0.48121  1.0000 -0.0905455818
C   C226      1.0  0.48121  0.75005  0.05895  1.0000 -0.0843819686
C   C227      1.0  0.75005  0.48121  0.70979  1.0000 -0.0905455818
C   C228      1.0  0.70979  0.05895  0.75005  1.0000 -0.0905455818
C   C229      1.0  0.51879  0.94105  0.24995  1.0000 -0.0959796861
C   C230      1.0  0.94105  0.51879  0.29021  1.0000 -0.0905455818
C   C231      1.0  0.29021  0.24995  0.94105  1.0000 -0.0905455818
C   C232      1.0  0.24995  0.29021  0.51879  1.0000 -0.0959796861
C   C233      1.0  0.29021  0.51879  0.24995  1.0000 -0.0905455818
C   C234      1.0  0.24995  0.94105  0.29021  1.0000 -0.0905455818
C   C235      1.0  0.51879  0.29021  0.94105  1.0000 -0.0905455818
C   C236      1.0  0.94105  0.24995  0.51879  1.0000 -0.0905455818
C   C237      1.0  0.94105  0.29021  0.24995  1.0000 -0.0905455818
C   C238      1.0  0.51879  0.24995  0.29021  1.0000 -0.0905455818
C   C239      1.0  0.24995  0.51879  0.94105  1.0000 -0.0905455818
C   C240      1.0  0.29021  0.94105  0.51879  1.0000 -0.0905455818
S   S1        1.0  0.50655  0.86423  0.31461  1.0000 0.0806967151
S   S2        1.0  0.86423  0.50655  0.31461  1.0000 0.0806967151
S   S3        1.0  0.31461  0.31461  0.50655  1.0000 0.0806967151
S   S4        1.0  0.31461  0.31461  0.86423  1.0000 0.0806967151
S   S5        1.0  0.31461  0.50655  0.86423  1.0000 0.0806967151
S   S6        1.0  0.31461  0.86423  0.50655  1.0000 0.0806967151
S   S7        1.0  0.50655  0.31461  0.31461  1.0000 0.0877758648
S   S8        1.0  0.86423  0.31461  0.31461  1.0000 0.0877758648
S   S9        1.0  0.86423  0.31461  0.50655  1.0000 0.0806967151
S   S10       1.0  0.50655  0.31461  0.86423  1.0000 0.0806967151
S   S11       1.0  0.31461  0.50655  0.31461  1.0000 0.0877758648
S   S12       1.0  0.31461  0.86423  0.31461  1.0000 0.0806967151
S   S13       1.0  0.49345  0.13577  0.68539  1.0000 0.0877758648
S   S14       1.0  0.13577  0.49345  0.68539  1.0000 0.0806967151
S   S15       1.0  0.68539  0.68539  0.13577  1.0000 0.0877758648
S   S16       1.0  0.68539  0.68539  0.49345  1.0000 0.0806967151
S   S17       1.0  0.68539  0.49345  0.68539  1.0000 0.0806967151
S   S18       1.0  0.68539  0.13577  0.68539  1.0000 0.0877758648
S   S19       1.0  0.49345  0.68539  0.13577  1.0000 0.0877758648
S   S20       1.0  0.13577  0.68539  0.49345  1.0000 0.0806967151
S   S21       1.0  0.13577  0.68539  0.68539  1.0000 0.0806967151
S   S22       1.0  0.49345  0.68539  0.68539  1.0000 0.0806967151
S   S23       1.0  0.68539  0.49345  0.13577  1.0000 0.0877758648
S   S24       1.0  0.68539  0.13577  0.49345  1.0000 0.0806967151
S   S25       1.0  0.52303  0.97803  0.30457  1.0000 0.1409630252
S   S26       1.0  0.97803  0.52303  0.19437  1.0000 0.1409630252
S   S27       1.0  0.30457  0.19437  0.52303  1.0000 0.1409630252
S   S28       1.0  0.19437  0.30457  0.97803  1.0000 0.1469456794
S   S29       1.0  0.30457  0.52303  0.97803  1.0000 0.1469456794
S   S30       1.0  0.19437  0.97803  0.52303  1.0000 0.1339103348
S   S31       1.0  0.52303  0.30457  0.19437  1.0000 0.1409630252
S   S32       1.0  0.97803  0.19437  0.30457  1.0000 0.1409630252
S   S33       1.0  0.97803  0.30457  0.52303  1.0000 0.1409630252
S   S34       1.0  0.52303  0.19437  0.97803  1.0000 0.1409630252
S   S35       1.0  0.19437  0.52303  0.30457  1.0000 0.1409630252
S   S36       1.0  0.30457  0.97803  0.19437  1.0000 0.1409630252
S   S37       1.0  0.47697  0.02197  0.80563  1.0000 0.1409630252
S   S38       1.0  0.02197  0.47697  0.69543  1.0000 0.1469456794
S   S39       1.0  0.69543  0.80563  0.02197  1.0000 0.1409630252
S   S40       1.0  0.80563  0.69543  0.47697  1.0000 0.1409630252
S   S41       1.0  0.69543  0.47697  0.80563  1.0000 0.1409630252
S   S42       1.0  0.80563  0.02197  0.69543  1.0000 0.1409630252
S   S43       1.0  0.47697  0.69543  0.02197  1.0000 0.1409630252
S   S44       1.0  0.02197  0.80563  0.47697  1.0000 0.1409630252
S   S45       1.0  0.02197  0.69543  0.80563  1.0000 0.1469456794
S   S46       1.0  0.47697  0.80563  0.69543  1.0000 0.1409630252
S   S47       1.0  0.80563  0.47697  0.02197  1.0000 0.1409630252
S   S48       1.0  0.69543  0.02197  0.47697  1.0000 0.1409630252
S   S49       1.0  0.47697  0.02197  0.69543  1.0000 0.1409630252
S   S50       1.0  0.02197  0.47697  0.80563  1.0000 0.1409630252
S   S51       1.0  0.69543  0.80563  0.47697  1.0000 0.1409630252
S   S52       1.0  0.80563  0.69543  0.02197  1.0000 0.1409630252
S   S53       1.0  0.69543  0.47697  0.02197  1.0000 0.1409630252
S   S54       1.0  0.80563  0.02197  0.47697  1.0000 0.1409630252
S   S55       1.0  0.47697  0.69543  0.80563  1.0000 0.1409630252
S   S56       1.0  0.02197  0.80563  0.69543  1.0000 0.1409630252
S   S57       1.0  0.02197  0.69543  0.47697  1.0000 0.1409630252
S   S58       1.0  0.47697  0.80563  0.02197  1.0000 0.1409630252
S   S59       1.0  0.80563  0.47697  0.69543  1.0000 0.1409630252
S   S60       1.0  0.69543  0.02197  0.80563  1.0000 0.1409630252
S   S61       1.0  0.52303  0.97803  0.19437  1.0000 0.1409630252
S   S62       1.0  0.97803  0.52303  0.30457  1.0000 0.1409630252
S   S63       1.0  0.30457  0.19437  0.97803  1.0000 0.1409630252
S   S64       1.0  0.19437  0.30457  0.52303  1.0000 0.1409630252
S   S65       1.0  0.30457  0.52303  0.19437  1.0000 0.1469456794
S   S66       1.0  0.19437  0.97803  0.30457  1.0000 0.1409630252
S   S67       1.0  0.52303  0.30457  0.97803  1.0000 0.1409630252
S   S68       1.0  0.97803  0.19437  0.52303  1.0000 0.1409630252
S   S69       1.0  0.97803  0.30457  0.19437  1.0000 0.1409630252
S   S70       1.0  0.52303  0.19437  0.30457  1.0000 0.1409630252
S   S71       1.0  0.19437  0.52303  0.97803  1.0000 0.1469456794
S   S72       1.0  0.30457  0.97803  0.52303  1.0000 0.1339103348
O   O1        1.0  0.46509  0.00119  0.46509  1.0000 -1.1620563301
O   O2        1.0  0.00119  0.46509  0.06863  1.0000 -1.1688875364
O   O3        1.0  0.46509  0.06863  0.46509  1.0000 -1.1688875364
O   O4        1.0  0.06863  0.46509  0.00119  1.0000 -1.1620563301
O   O5        1.0  0.46509  0.46509  0.00119  1.0000 -1.1688875364
O   O6        1.0  0.06863  0.00119  0.46509  1.0000 -1.1620563301
O   O7        1.0  0.46509  0.46509  0.06863  1.0000 -1.1688875364
O   O8        1.0  0.00119  0.06863  0.46509  1.0000 -1.1620563301
O   O9        1.0  0.00119  0.46509  0.46509  1.0000 -1.1688875364
O   O10       1.0  0.46509  0.06863  0.00119  1.0000 -1.1620563301
O   O11       1.0  0.06863  0.46509  0.46509  1.0000 -1.1688875364
O   O12       1.0  0.46509  0.00119  0.06863  1.0000 -1.1688875364
O   O13       1.0  0.53491  0.99881  0.93137  1.0000 -1.1688875364
O   O14       1.0  0.99881  0.53491  0.53491  1.0000 -1.1688875364
O   O15       1.0  0.53491  0.93137  0.99881  1.0000 -1.1688875364
O   O16       1.0  0.93137  0.53491  0.53491  1.0000 -1.1688875364
O   O17       1.0  0.53491  0.53491  0.93137  1.0000 -1.1688875364
O   O18       1.0  0.93137  0.99881  0.53491  1.0000 -1.1620563301
O   O19       1.0  0.53491  0.53491  0.99881  1.0000 -1.1620563301
O   O20       1.0  0.99881  0.93137  0.53491  1.0000 -1.1688875364
O   O21       1.0  0.99881  0.53491  0.93137  1.0000 -1.1688875364
O   O22       1.0  0.53491  0.93137  0.53491  1.0000 -1.1688875364
O   O23       1.0  0.93137  0.53491  0.99881  1.0000 -1.1620563301
O   O24       1.0  0.53491  0.99881  0.53491  1.0000 -1.1620563301
O   O25       1.0  0.51096  0.92462  0.43546  1.0000 -0.5722562356
O   O26       1.0  0.92462  0.51096  0.12896  1.0000 -0.5722562356
O   O27       1.0  0.43546  0.12896  0.51096  1.0000 -0.5722562356
O   O28       1.0  0.12896  0.43546  0.92462  1.0000 -0.5722562356
O   O29       1.0  0.43546  0.51096  0.92462  1.0000 -0.5722562356
O   O30       1.0  0.12896  0.92462  0.51096  1.0000 -0.5722562356
O   O31       1.0  0.51096  0.43546  0.12896  1.0000 -0.5722562356
O   O32       1.0  0.92462  0.12896  0.43546  1.0000 -0.5722562356
O   O33       1.0  0.92462  0.43546  0.51096  1.0000 -0.5722562356
O   O34       1.0  0.51096  0.12896  0.92462  1.0000 -0.5722562356
O   O35       1.0  0.12896  0.51096  0.43546  1.0000 -0.5722562356
O   O36       1.0  0.43546  0.92462  0.12896  1.0000 -0.5722562356
O   O37       1.0  0.48904  0.07538  0.87104  1.0000 -0.5722562356
O   O38       1.0  0.07538  0.48904  0.56454  1.0000 -0.5722562356
O   O39       1.0  0.56454  0.87104  0.07538  1.0000 -0.5722562356
O   O40       1.0  0.87104  0.56454  0.48904  1.0000 -0.5722562356
O   O41       1.0  0.56454  0.48904  0.87104  1.0000 -0.5722562356
O   O42       1.0  0.87104  0.07538  0.56454  1.0000 -0.5722562356
O   O43       1.0  0.48904  0.56454  0.07538  1.0000 -0.5722562356
O   O44       1.0  0.07538  0.87104  0.48904  1.0000 -0.5722562356
O   O45       1.0  0.07538  0.56454  0.87104  1.0000 -0.5722562356
O   O46       1.0  0.48904  0.87104  0.56454  1.0000 -0.5722562356
O   O47       1.0  0.87104  0.48904  0.07538  1.0000 -0.5722562356
O   O48       1.0  0.56454  0.07538  0.48904  1.0000 -0.5722562356
O   O49       1.0  0.48904  0.07538  0.56454  1.0000 -0.5722562356
O   O50       1.0  0.07538  0.48904  0.87104  1.0000 -0.5722562356
O   O51       1.0  0.56454  0.87104  0.48904  1.0000 -0.5722562356
O   O52       1.0  0.87104  0.56454  0.07538  1.0000 -0.5722562356
O   O53       1.0  0.56454  0.48904  0.07538  1.0000 -0.5722562356
O   O54       1.0  0.87104  0.07538  0.48904  1.0000 -0.5722562356
O   O55       1.0  0.48904  0.56454  0.87104  1.0000 -0.5722562356
O   O56       1.0  0.07538  0.87104  0.56454  1.0000 -0.5722562356
O   O57       1.0  0.07538  0.56454  0.48904  1.0000 -0.5722562356
O   O58       1.0  0.48904  0.87104  0.07538  1.0000 -0.5722562356
O   O59       1.0  0.87104  0.48904  0.56454  1.0000 -0.5722562356
O   O60       1.0  0.56454  0.07538  0.87104  1.0000 -0.5722562356
O   O61       1.0  0.51096  0.92462  0.12896  1.0000 -0.5722562356
O   O62       1.0  0.92462  0.51096  0.43546  1.0000 -0.5722562356
O   O63       1.0  0.43546  0.12896  0.92462  1.0000 -0.5722562356
O   O64       1.0  0.12896  0.43546  0.51096  1.0000 -0.5722562356
O   O65       1.0  0.43546  0.51096  0.12896  1.0000 -0.5722562356
O   O66       1.0  0.12896  0.92462  0.43546  1.0000 -0.5722562356
O   O67       1.0  0.51096  0.43546  0.92462  1.0000 -0.5722562356
O   O68       1.0  0.92462  0.12896  0.51096  1.0000 -0.5722562356
O   O69       1.0  0.92462  0.43546  0.12896  1.0000 -0.5722562356
O   O70       1.0  0.51096  0.12896  0.43546  1.0000 -0.5722562356
O   O71       1.0  0.12896  0.51096  0.92462  1.0000 -0.5722562356
O   O72       1.0  0.43546  0.92462  0.51096  1.0000 -0.5722562356
O   O73       1.0  0.52016  0.99202  0.38048  1.0000 -0.6281507498
O   O74       1.0  0.99202  0.52016  0.10734  1.0000 -0.6281507498
O   O75       1.0  0.38048  0.10734  0.52016  1.0000 -0.6281507498
O   O76       1.0  0.10734  0.38048  0.99202  1.0000 -0.6281507498
O   O77       1.0  0.38048  0.52016  0.99202  1.0000 -0.6281507498
O   O78       1.0  0.10734  0.99202  0.52016  1.0000 -0.6281507498
O   O79       1.0  0.52016  0.38048  0.10734  1.0000 -0.6281507498
O   O80       1.0  0.99202  0.10734  0.38048  1.0000 -0.6281507498
O   O81       1.0  0.99202  0.38048  0.52016  1.0000 -0.6281507498
O   O82       1.0  0.52016  0.10734  0.99202  1.0000 -0.6281507498
O   O83       1.0  0.10734  0.52016  0.38048  1.0000 -0.6281507498
O   O84       1.0  0.38048  0.99202  0.10734  1.0000 -0.6281507498
O   O85       1.0  0.47984  0.00798  0.89266  1.0000 -0.6281507498
O   O86       1.0  0.00798  0.47984  0.61952  1.0000 -0.6245924392
O   O87       1.0  0.61952  0.89266  0.00798  1.0000 -0.6281507498
O   O88       1.0  0.89266  0.61952  0.47984  1.0000 -0.6245924392
O   O89       1.0  0.61952  0.47984  0.89266  1.0000 -0.6281507498
O   O90       1.0  0.89266  0.00798  0.61952  1.0000 -0.6281507498
O   O91       1.0  0.47984  0.61952  0.00798  1.0000 -0.6281507498
O   O92       1.0  0.00798  0.89266  0.47984  1.0000 -0.6281507498
O   O93       1.0  0.00798  0.61952  0.89266  1.0000 -0.6281507498
O   O94       1.0  0.47984  0.89266  0.61952  1.0000 -0.6245924392
O   O95       1.0  0.89266  0.47984  0.00798  1.0000 -0.6281507498
O   O96       1.0  0.61952  0.00798  0.47984  1.0000 -0.6281507498
O   O97       1.0  0.47984  0.00798  0.61952  1.0000 -0.6281507498
O   O98       1.0  0.00798  0.47984  0.89266  1.0000 -0.6281507498
O   O99       1.0  0.61952  0.89266  0.47984  1.0000 -0.6281507498
O   O100      1.0  0.89266  0.61952  0.00798  1.0000 -0.6281507498
O   O101      1.0  0.61952  0.47984  0.00798  1.0000 -0.6281507498
O   O102      1.0  0.89266  0.00798  0.47984  1.0000 -0.6281507498
O   O103      1.0  0.47984  0.61952  0.89266  1.0000 -0.6281507498
O   O104      1.0  0.00798  0.89266  0.61952  1.0000 -0.6281507498
O   O105      1.0  0.00798  0.61952  0.47984  1.0000 -0.6281507498
O   O106      1.0  0.47984  0.89266  0.00798  1.0000 -0.6281507498
O   O107      1.0  0.89266  0.47984  0.61952  1.0000 -0.6281507498
O   O108      1.0  0.61952  0.00798  0.89266  1.0000 -0.6281507498
O   O109      1.0  0.52016  0.99202  0.10734  1.0000 -0.6281507498
O   O110      1.0  0.99202  0.52016  0.38048  1.0000 -0.6281507498
O   O111      1.0  0.38048  0.10734  0.99202  1.0000 -0.6281507498
O   O112      1.0  0.10734  0.38048  0.52016  1.0000 -0.6281507498
O   O113      1.0  0.38048  0.52016  0.10734  1.0000 -0.6281507498
O   O114      1.0  0.10734  0.99202  0.38048  1.0000 -0.6281507498
O   O115      1.0  0.52016  0.38048  0.99202  1.0000 -0.6281507498
O   O116      1.0  0.99202  0.10734  0.52016  1.0000 -0.6281507498
O   O117      1.0  0.99202  0.38048  0.10734  1.0000 -0.6245924392
O   O118      1.0  0.52016  0.10734  0.38048  1.0000 -0.6281507498
O   O119      1.0  0.10734  0.52016  0.99202  1.0000 -0.6281507498
O   O120      1.0  0.38048  0.99202  0.52016  1.0000 -0.6281507498
O   O121      1.0  0.45005  0.96583  0.54995  1.0000 -1.1688875364
O   O122      1.0  0.96583  0.45005  0.03417  1.0000 -1.1688875364
O   O123      1.0  0.54995  0.03417  0.45005  1.0000 -1.1688875364
O   O124      1.0  0.03417  0.54995  0.96583  1.0000 -1.1620563301
O   O125      1.0  0.54995  0.45005  0.96583  1.0000 -1.1688875364
O   O126      1.0  0.03417  0.96583  0.45005  1.0000 -1.1688875364
O   O127      1.0  0.45005  0.54995  0.03417  1.0000 -1.1688875364
O   O128      1.0  0.96583  0.03417  0.54995  1.0000 -1.1688875364
O   O129      1.0  0.96583  0.54995  0.45005  1.0000 -1.1688875364
O   O130      1.0  0.45005  0.03417  0.96583  1.0000 -1.1620563301
O   O131      1.0  0.03417  0.45005  0.54995  1.0000 -1.1688875364
O   O132      1.0  0.54995  0.96583  0.03417  1.0000 -1.1620563301
O   O133      1.0  0.54995  0.03417  0.96583  1.0000 -1.1620563301
O   O134      1.0  0.03417  0.54995  0.45005  1.0000 -1.1688875364
O   O135      1.0  0.45005  0.96583  0.03417  1.0000 -1.1620563301
O   O136      1.0  0.96583  0.45005  0.54995  1.0000 -1.1620563301
O   O137      1.0  0.45005  0.54995  0.96583  1.0000 -1.1620563301
O   O138      1.0  0.96583  0.03417  0.45005  1.0000 -1.1688875364
O   O139      1.0  0.54995  0.45005  0.03417  1.0000 -1.1620563301
O   O140      1.0  0.03417  0.96583  0.54995  1.0000 -1.1688875364
O   O141      1.0  0.03417  0.45005  0.96583  1.0000 -1.1620563301
O   O142      1.0  0.54995  0.96583  0.45005  1.0000 -1.1688875364
O   O143      1.0  0.96583  0.54995  0.03417  1.0000 -1.1620563301
O   O144      1.0  0.45005  0.03417  0.54995  1.0000 -1.1688875364
