# DDEC6 charges by PACMAN v1.1 (https://github.com/mtap-research/PACMAN-charge/)
data_2012[Co][ecu]3[ASR]7
_chemical_formula_sum              "Co8 H72 C96 N16 O36"
_cell_length_a       11.4777
_cell_length_b       13.3164
_cell_length_c       26.0307
_cell_angle_alpha    90
_cell_angle_beta     90
_cell_angle_gamma    90

_symmetry_space_group_name_H-M    "P 1"
_symmetry_Int_Tables_number       1

loop_
  _symmetry_equiv_pos_as_xyz
  'x, y, z'

loop_
  _atom_site_type_symbol
  _atom_site_label
  _atom_site_symmetry_multiplicity
  _atom_site_fract_x
  _atom_site_fract_y
  _atom_site_fract_z
  _atom_site_occupancy
  _atom_site_charge
Co  Co1       1.0  0.65420  0.55574  0.07816  1.0000 0.8808622908
Co  Co2       1.0  0.84580  0.44426  0.57816  1.0000 0.8808622908
Co  Co3       1.0  0.15420  0.94426  0.92184  1.0000 0.8808622908
Co  Co4       1.0  0.34580  0.05574  0.42184  1.0000 0.8808622908
Co  Co5       1.0  0.39778  0.45003  0.13961  1.0000 0.8808622908
Co  Co6       1.0  0.10222  0.54997  0.63961  1.0000 0.8808622908
Co  Co7       1.0  0.89778  0.04997  0.86039  1.0000 0.8808622908
Co  Co8       1.0  0.60222  0.95003  0.36039  1.0000 0.8808622908
H   H1        1.0  0.62640  0.41000  0.14490  1.0000 0.3864223014
H   H2        1.0  0.87360  0.59000  0.64490  1.0000 0.3864223014
H   H3        1.0  0.12640  0.09000  0.85510  1.0000 0.3864223014
H   H4        1.0  0.37360  0.91000  0.35510  1.0000 0.3864223014
H   H5        1.0  0.58110  0.37060  0.09040  1.0000 0.378624643
H   H6        1.0  0.91890  0.62940  0.59040  1.0000 0.378624643
H   H7        1.0  0.08110  0.12940  0.90960  1.0000 0.378624643
H   H8        1.0  0.41890  0.87060  0.40960  1.0000 0.378624643
H   H9        1.0  0.89860  0.48500  0.04490  1.0000 0.0927496206
H   H10       1.0  0.60140  0.51500  0.54490  1.0000 0.0927496206
H   H11       1.0  0.39860  0.01500  0.95510  1.0000 0.0927496206
H   H12       1.0  0.10140  0.98500  0.45510  1.0000 0.0927496206
H   H13       1.0  0.66240  0.92420  0.24540  1.0000 0.1019196487
H   H14       1.0  0.83760  0.07580  0.74540  1.0000 0.1019196487
H   H15       1.0  0.16240  0.57580  0.75460  1.0000 0.1019196487
H   H16       1.0  0.33760  0.42420  0.25460  1.0000 0.1019196487
H   H17       1.0  0.47370  0.75160  0.33620  1.0000 0.1083017427
H   H18       1.0  0.02630  0.24840  0.83620  1.0000 0.1083017427
H   H19       1.0  0.97370  0.74840  0.66380  1.0000 0.1083017427
H   H20       1.0  0.52630  0.25160  0.16380  1.0000 0.1083017427
H   H21       1.0  0.19080  0.31460  0.16920  1.0000 0.1019196487
H   H22       1.0  0.30920  0.68540  0.66920  1.0000 0.1019196487
H   H23       1.0  0.69080  0.18540  0.83080  1.0000 0.1019196487
H   H24       1.0  0.80920  0.81460  0.33080  1.0000 0.1019196487
H   H25       1.0  0.99070  0.36120  0.99730  1.0000 0.1318863603
H   H26       1.0  0.50930  0.63880  0.49730  1.0000 0.1318863603
H   H27       1.0  0.49070  0.13880  0.00270  1.0000 0.1318863603
H   H28       1.0  0.00930  0.86120  0.50270  1.0000 0.1318863603
H   H29       1.0  0.26660  0.73160  0.07440  1.0000 0.136659811
H   H30       1.0  0.23340  0.26840  0.57440  1.0000 0.136659811
H   H31       1.0  0.76660  0.76840  0.92560  1.0000 0.136659811
H   H32       1.0  0.73340  0.23160  0.42560  1.0000 0.136659811
H   H33       1.0  0.17490  0.85680  0.02870  1.0000 0.1019196487
H   H34       1.0  0.32510  0.14320  0.52870  1.0000 0.1019196487
H   H35       1.0  0.67490  0.64320  0.97130  1.0000 0.1019196487
H   H36       1.0  0.82510  0.35680  0.47130  1.0000 0.1019196487
H   H37       1.0  0.59380  0.40490  0.98920  1.0000 0.1083017427
H   H38       1.0  0.90620  0.59510  0.48920  1.0000 0.1083017427
H   H39       1.0  0.09380  0.09510  0.01080  1.0000 0.1083017427
H   H40       1.0  0.40620  0.90490  0.51080  1.0000 0.1083017427
H   H41       1.0  0.98940  0.31460  0.16960  1.0000 0.1318863603
H   H42       1.0  0.51060  0.68540  0.66960  1.0000 0.1318863603
H   H43       1.0  0.48940  0.18540  0.83040  1.0000 0.1318863603
H   H44       1.0  0.01060  0.81460  0.33040  1.0000 0.1318863603
H   H45       1.0  0.32220  0.76580  0.90020  1.0000 0.1083017427
H   H46       1.0  0.17780  0.23420  0.40020  1.0000 0.1083017427
H   H47       1.0  0.82220  0.73420  0.09980  1.0000 0.1083017427
H   H48       1.0  0.67780  0.26580  0.59980  1.0000 0.1083017427
H   H49       1.0  0.43480  0.64350  0.26800  1.0000 0.1318863603
H   H50       1.0  0.06520  0.35650  0.76800  1.0000 0.1318863603
H   H51       1.0  0.93480  0.85650  0.73200  1.0000 0.1318863603
H   H52       1.0  0.56520  0.14350  0.23200  1.0000 0.1318863603
H   H53       1.0  0.67950  0.28070  0.93870  1.0000 0.1318863603
H   H54       1.0  0.82050  0.71930  0.43870  1.0000 0.1318863603
H   H55       1.0  0.17950  0.21930  0.06130  1.0000 0.1318863603
H   H56       1.0  0.32050  0.78070  0.56130  1.0000 0.1318863603
H   H57       1.0  0.42290  0.64250  0.94340  1.0000 0.1318863603
H   H58       1.0  0.07710  0.35750  0.44340  1.0000 0.1318863603
H   H59       1.0  0.92290  0.85750  0.05660  1.0000 0.1318863603
H   H60       1.0  0.57710  0.14250  0.55660  1.0000 0.1318863603
H   H61       1.0  0.63870  0.81270  0.17750  1.0000 0.1318863603
H   H62       1.0  0.86130  0.18730  0.67750  1.0000 0.1318863603
H   H63       1.0  0.13870  0.68730  0.82250  1.0000 0.1318863603
H   H64       1.0  0.36130  0.31270  0.32250  1.0000 0.1318863603
H   H65       1.0  0.19920  0.60680  0.14940  1.0000 0.1083017427
H   H66       1.0  0.30080  0.39320  0.64940  1.0000 0.1083017427
H   H67       1.0  0.69920  0.89320  0.85060  1.0000 0.1083017427
H   H68       1.0  0.80080  0.10680  0.35060  1.0000 0.1083017427
H   H69       1.0  0.99870  0.61370  0.14360  1.0000 0.1318863603
H   H70       1.0  0.50130  0.38630  0.64360  1.0000 0.1318863603
H   H71       1.0  0.49870  0.88630  0.85640  1.0000 0.1318863603
H   H72       1.0  0.00130  0.11370  0.35640  1.0000 0.1318863603
C   C1        1.0  0.85300  0.44220  0.02370  1.0000 0.0697750326
C   C2        1.0  0.64700  0.55780  0.52370  1.0000 0.0697750326
C   C3        1.0  0.35300  0.05780  0.97630  1.0000 0.0697750326
C   C4        1.0  0.14700  0.94220  0.47630  1.0000 0.0697750326
C   C5        1.0  0.61700  0.86530  0.25050  1.0000 0.0804624181
C   C6        1.0  0.88300  0.13470  0.75050  1.0000 0.0804624181
C   C7        1.0  0.11700  0.63470  0.74950  1.0000 0.0804624181
C   C8        1.0  0.38300  0.36530  0.24950  1.0000 0.0804624181
C   C9        1.0  0.50550  0.76580  0.30330  1.0000 0.0804624181
C   C10       1.0  0.99450  0.23420  0.80330  1.0000 0.0804624181
C   C11       1.0  0.00550  0.73420  0.69670  1.0000 0.0804624181
C   C12       1.0  0.49450  0.26580  0.19670  1.0000 0.0804624181
C   C13       1.0  0.15100  0.37650  0.16450  1.0000 0.0804624181
C   C14       1.0  0.34900  0.62350  0.66450  1.0000 0.0804624181
C   C15       1.0  0.65100  0.12350  0.83550  1.0000 0.0804624181
C   C16       1.0  0.84900  0.87650  0.33550  1.0000 0.0804624181
C   C17       1.0  0.90860  0.36860  0.99500  1.0000 -0.1513315861
C   C18       1.0  0.59140  0.63140  0.49500  1.0000 -0.1513315861
C   C19       1.0  0.40860  0.13140  0.00500  1.0000 -0.1513315861
C   C20       1.0  0.09140  0.86860  0.50500  1.0000 -0.1513315861
C   C21       1.0  0.27910  0.73730  0.03840  1.0000 -0.1624201734
C   C22       1.0  0.22090  0.26270  0.53840  1.0000 -0.1624201734
C   C23       1.0  0.77910  0.76270  0.96160  1.0000 -0.1624201734
C   C24       1.0  0.72090  0.23730  0.46160  1.0000 -0.1624201734
C   C25       1.0  0.90730  0.22670  0.93330  1.0000 0.5634867798
C   C26       1.0  0.59270  0.77330  0.43330  1.0000 0.5634867798
C   C27       1.0  0.40730  0.27330  0.06670  1.0000 0.5634867798
C   C28       1.0  0.09270  0.72670  0.56670  1.0000 0.5634867798
C   C29       1.0  0.22430  0.81120  0.01090  1.0000 0.0697750326
C   C30       1.0  0.27570  0.18880  0.51090  1.0000 0.0697750326
C   C31       1.0  0.72430  0.68880  0.98910  1.0000 0.0697750326
C   C32       1.0  0.77570  0.31120  0.48910  1.0000 0.0697750326
C   C33       1.0  0.52100  0.63720  0.17370  1.0000 0.5851464819
C   C34       1.0  0.97900  0.36280  0.67370  1.0000 0.5851464819
C   C35       1.0  0.02100  0.86280  0.82630  1.0000 0.5851464819
C   C36       1.0  0.47900  0.13720  0.32630  1.0000 0.5851464819
C   C37       1.0  0.67580  0.39560  0.99100  1.0000 0.0927496206
C   C38       1.0  0.82420  0.60440  0.49100  1.0000 0.0927496206
C   C39       1.0  0.17580  0.10440  0.00900  1.0000 0.0927496206
C   C40       1.0  0.32420  0.89560  0.50900  1.0000 0.0927496206
C   C41       1.0  0.03050  0.37560  0.16400  1.0000 -0.1624201734
C   C42       1.0  0.46950  0.62440  0.66400  1.0000 -0.1624201734
C   C43       1.0  0.53050  0.12440  0.83600  1.0000 -0.1624201734
C   C44       1.0  0.96950  0.87560  0.33600  1.0000 -0.1624201734
C   C45       1.0  0.31080  0.75880  0.93620  1.0000 0.0804624181
C   C46       1.0  0.18920  0.24120  0.43620  1.0000 0.0804624181
C   C47       1.0  0.81080  0.74120  0.06380  1.0000 0.0804624181
C   C48       1.0  0.68920  0.25880  0.56380  1.0000 0.0804624181
C   C49       1.0  0.53550  0.71420  0.21650  1.0000 0.0286524442
C   C50       1.0  0.96450  0.28580  0.71650  1.0000 0.0286524442
C   C51       1.0  0.03550  0.78580  0.78350  1.0000 0.0286524442
C   C52       1.0  0.46450  0.21420  0.28350  1.0000 0.0286524442
C   C53       1.0  0.96980  0.46450  0.15530  1.0000 0.0286524442
C   C54       1.0  0.53020  0.53550  0.65530  1.0000 0.0286524442
C   C55       1.0  0.46980  0.03550  0.84470  1.0000 0.0286524442
C   C56       1.0  0.03020  0.96450  0.34470  1.0000 0.0286524442
C   C57       1.0  0.35240  0.67110  0.01360  1.0000 0.0417059313
C   C58       1.0  0.14760  0.32890  0.51360  1.0000 0.0417059313
C   C59       1.0  0.85240  0.82890  0.98640  1.0000 0.0417059313
C   C60       1.0  0.64760  0.17110  0.48640  1.0000 0.0417059313
C   C61       1.0  0.48480  0.69950  0.26300  1.0000 -0.1444559891
C   C62       1.0  0.01520  0.30050  0.76300  1.0000 -0.1444559891
C   C63       1.0  0.98480  0.80050  0.73700  1.0000 -0.1444559891
C   C64       1.0  0.51520  0.19950  0.23700  1.0000 -0.1444559891
C   C65       1.0  0.84590  0.30650  0.96340  1.0000 0.0195408564
C   C66       1.0  0.65410  0.69350  0.46340  1.0000 0.0195408564
C   C67       1.0  0.34590  0.19350  0.03660  1.0000 0.0195408564
C   C68       1.0  0.15410  0.80650  0.53660  1.0000 0.0195408564
C   C69       1.0  0.72610  0.32090  0.96070  1.0000 -0.1513315861
C   C70       1.0  0.77390  0.67910  0.46070  1.0000 -0.1513315861
C   C71       1.0  0.22610  0.17910  0.03930  1.0000 -0.1513315861
C   C72       1.0  0.27390  0.82090  0.53930  1.0000 -0.1513315861
C   C73       1.0  0.37010  0.68450  0.96150  1.0000 -0.1666209784
C   C74       1.0  0.12990  0.31550  0.46150  1.0000 -0.1666209784
C   C75       1.0  0.87010  0.81550  0.03850  1.0000 -0.1666209784
C   C76       1.0  0.62990  0.18450  0.53850  1.0000 -0.1666209784
C   C77       1.0  0.41370  0.58910  0.04420  1.0000 0.5782915007
C   C78       1.0  0.08630  0.41090  0.54420  1.0000 0.5782915007
C   C79       1.0  0.91370  0.91090  0.95580  1.0000 0.5782915007
C   C80       1.0  0.58630  0.08910  0.45580  1.0000 0.5782915007
C   C81       1.0  0.60280  0.79950  0.20970  1.0000 -0.1624201734
C   C82       1.0  0.89720  0.20050  0.70970  1.0000 -0.1624201734
C   C83       1.0  0.10280  0.70050  0.79030  1.0000 -0.1624201734
C   C84       1.0  0.39720  0.29950  0.29030  1.0000 -0.1624201734
C   C85       1.0  0.15600  0.54620  0.15220  1.0000 0.0804624181
C   C86       1.0  0.34400  0.45380  0.65220  1.0000 0.0804624181
C   C87       1.0  0.65600  0.95380  0.84780  1.0000 0.0804624181
C   C88       1.0  0.84400  0.04620  0.34780  1.0000 0.0804624181
C   C89       1.0  0.03600  0.55110  0.14940  1.0000 -0.1666209784
C   C90       1.0  0.46400  0.44890  0.64940  1.0000 -0.1666209784
C   C91       1.0  0.53600  0.94890  0.85060  1.0000 -0.1666209784
C   C92       1.0  0.96400  0.05110  0.35060  1.0000 -0.1666209784
C   C93       1.0  0.83840  0.46640  0.14790  1.0000 0.5535293471
C   C94       1.0  0.66160  0.53360  0.64790  1.0000 0.5535293471
C   C95       1.0  0.33840  0.03360  0.85210  1.0000 0.5535293471
C   C96       1.0  0.16160  0.96640  0.35210  1.0000 0.5535293471
N   N1        1.0  0.56960  0.84950  0.29677  1.0000 -0.2531858731
N   N2        1.0  0.93040  0.15050  0.79677  1.0000 -0.2531858731
N   N3        1.0  0.06960  0.65050  0.70323  1.0000 -0.2531858731
N   N4        1.0  0.43040  0.34950  0.20323  1.0000 -0.2531858731
N   N5        1.0  0.23770  0.82190  0.95972  1.0000 -0.230490749
N   N6        1.0  0.26230  0.17810  0.45972  1.0000 -0.230490749
N   N7        1.0  0.73770  0.67810  0.04028  1.0000 -0.230490749
N   N8        1.0  0.76230  0.32190  0.54028  1.0000 -0.230490749
N   N9        1.0  0.73690  0.45490  0.02264  1.0000 -0.2562949408
N   N10       1.0  0.76310  0.54510  0.52264  1.0000 -0.2562949408
N   N11       1.0  0.23690  0.04510  0.97736  1.0000 -0.2562949408
N   N12       1.0  0.26310  0.95490  0.47736  1.0000 -0.2562949408
N   N13       1.0  0.21440  0.46010  0.15860  1.0000 -0.2362529088
N   N14       1.0  0.28560  0.53990  0.65860  1.0000 -0.2362529088
N   N15       1.0  0.71440  0.03990  0.84140  1.0000 -0.2362529088
N   N16       1.0  0.78560  0.96010  0.34140  1.0000 -0.2362529088
O   O1        1.0  0.57850  0.42800  0.11459  1.0000 -0.7935412873
O   O2        1.0  0.92150  0.57200  0.61459  1.0000 -0.7935412873
O   O3        1.0  0.07850  0.07200  0.88541  1.0000 -0.7935412873
O   O4        1.0  0.42150  0.92800  0.38541  1.0000 -0.7935412873
O   O5        1.0  0.01370  0.22030  0.93940  1.0000 -0.5353505958
O   O6        1.0  0.48630  0.77970  0.43940  1.0000 -0.5353505958
O   O7        1.0  0.51370  0.27970  0.06060  1.0000 -0.5353505958
O   O8        1.0  0.98630  0.72030  0.56060  1.0000 -0.5353505958
O   O9        1.0  0.78190  0.39040  0.16160  1.0000 -0.5470290978
O   O10       1.0  0.71810  0.60960  0.66160  1.0000 -0.5470290978
O   O11       1.0  0.28190  0.10960  0.83840  1.0000 -0.5470290978
O   O12       1.0  0.21810  0.89040  0.33840  1.0000 -0.5470290978
O   O13       1.0  0.79800  0.54290  0.12680  1.0000 -0.5694752905
O   O14       1.0  0.70200  0.45710  0.62680  1.0000 -0.5694752905
O   O15       1.0  0.29800  0.95710  0.87320  1.0000 -0.5694752905
O   O16       1.0  0.20200  0.04290  0.37320  1.0000 -0.5694752905
O   O17       1.0  0.44980  0.56830  0.18345  1.0000 -0.5581446786
O   O18       1.0  0.05020  0.43170  0.68345  1.0000 -0.5581446786
O   O19       1.0  0.94980  0.93170  0.81655  1.0000 -0.5581446786
O   O20       1.0  0.55020  0.06830  0.31655  1.0000 -0.5581446786
O   O21       1.0  0.51450  0.56610  0.02878  1.0000 -0.5581446786
O   O22       1.0  0.98550  0.43390  0.52878  1.0000 -0.5581446786
O   O23       1.0  0.01450  0.93390  0.97122  1.0000 -0.5581446786
O   O24       1.0  0.48550  0.06610  0.47122  1.0000 -0.5581446786
O   O25       1.0  0.84510  0.17070  0.90546  1.0000 -0.5694752905
O   O26       1.0  0.65490  0.82930  0.40546  1.0000 -0.5694752905
O   O27       1.0  0.34510  0.32930  0.09454  1.0000 -0.5694752905
O   O28       1.0  0.15490  0.67070  0.59454  1.0000 -0.5694752905
O   O29       1.0  0.57890  0.65090  0.13384  1.0000 -0.5470290978
O   O30       1.0  0.92110  0.34910  0.63384  1.0000 -0.5470290978
O   O31       1.0  0.07890  0.84910  0.86616  1.0000 -0.5470290978
O   O32       1.0  0.42110  0.15090  0.36616  1.0000 -0.5470290978
O   O33       1.0  0.35990  0.55330  0.08094  1.0000 -0.5299328316
O   O34       1.0  0.14010  0.44670  0.58094  1.0000 -0.5299328316
O   O35       1.0  0.85990  0.94670  0.91906  1.0000 -0.5299328316
O   O36       1.0  0.64010  0.05330  0.41906  1.0000 -0.5299328316
