# DDEC6 charges by PACMAN v1.1 (https://github.com/mtap-research/PACMAN-charge/)
data_2012[Cu][unc]3[ASR]10
_chemical_formula_sum              "Cu4 H32 C24 N32 O4"
_cell_length_a       12.3919
_cell_length_b       12.3919
_cell_length_c       7.9043
_cell_angle_alpha    90
_cell_angle_beta     90
_cell_angle_gamma    90

_symmetry_space_group_name_H-M    "P 1"
_symmetry_Int_Tables_number       1

loop_
  _symmetry_equiv_pos_as_xyz
  'x, y, z'

loop_
  _atom_site_type_symbol
  _atom_site_label
  _atom_site_symmetry_multiplicity
  _atom_site_fract_x
  _atom_site_fract_y
  _atom_site_fract_z
  _atom_site_occupancy
  _atom_site_charge
Cu  Cu1       1.0  0.82313  0.51429  0.80505  1.0000 0.619960612
Cu  Cu2       1.0  0.51429  0.17687  0.05505  1.0000 0.619960612
Cu  Cu3       1.0  0.17687  0.48571  0.30505  1.0000 0.619960612
Cu  Cu4       1.0  0.48571  0.82313  0.55505  1.0000 0.619960612
H   H1        1.0  0.55430  0.71940  0.91980  1.0000 0.148945721
H   H2        1.0  0.71940  0.44570  0.16980  1.0000 0.148945721
H   H3        1.0  0.44570  0.28060  0.41980  1.0000 0.148945721
H   H4        1.0  0.28060  0.55430  0.66980  1.0000 0.148945721
H   H5        1.0  0.60170  0.60440  0.95400  1.0000 0.148945721
H   H6        1.0  0.60440  0.39830  0.20400  1.0000 0.148945721
H   H7        1.0  0.39830  0.39560  0.45400  1.0000 0.148945721
H   H8        1.0  0.39560  0.60170  0.70400  1.0000 0.148945721
H   H9        1.0  0.68480  0.73360  0.13190  1.0000 0.1005632167
H   H10       1.0  0.73360  0.31520  0.38190  1.0000 0.1005632167
H   H11       1.0  0.31520  0.26640  0.63190  1.0000 0.1005632167
H   H12       1.0  0.26640  0.68480  0.88190  1.0000 0.1005632167
H   H13       1.0  0.72800  0.79550  0.97140  1.0000 0.1005632167
H   H14       1.0  0.79550  0.27200  0.22140  1.0000 0.1005632167
H   H15       1.0  0.27200  0.20450  0.47140  1.0000 0.1005632167
H   H16       1.0  0.20450  0.72800  0.72140  1.0000 0.1005632167
H   H17       1.0  0.88910  0.75880  0.13390  1.0000 0.1005632167
H   H18       1.0  0.75880  0.11090  0.38390  1.0000 0.1005632167
H   H19       1.0  0.11090  0.24120  0.63390  1.0000 0.1005632167
H   H20       1.0  0.24120  0.88910  0.88390  1.0000 0.1005632167
H   H21       1.0  0.86520  0.65360  0.23830  1.0000 0.1059686452
H   H22       1.0  0.65360  0.13480  0.48830  1.0000 0.1059686452
H   H23       1.0  0.13480  0.34640  0.73830  1.0000 0.1059686452
H   H24       1.0  0.34640  0.86520  0.98830  1.0000 0.1059686452
H   H25       1.0  0.04580  0.65890  0.15090  1.0000 0.148945721
H   H26       1.0  0.65890  0.95420  0.40090  1.0000 0.148945721
H   H27       1.0  0.95420  0.34110  0.65090  1.0000 0.148945721
H   H28       1.0  0.34110  0.04580  0.90090  1.0000 0.1447682887
H   H29       1.0  0.00810  0.66210  0.96160  1.0000 0.148945721
H   H30       1.0  0.66210  0.99190  0.21160  1.0000 0.148945721
H   H31       1.0  0.99190  0.33790  0.46160  1.0000 0.148945721
H   H32       1.0  0.33790  0.00810  0.71160  1.0000 0.148945721
C   C1        1.0  0.64510  0.66370  0.72270  1.0000 0.3208954096
C   C2        1.0  0.66370  0.35490  0.97270  1.0000 0.3208954096
C   C3        1.0  0.35490  0.33630  0.22270  1.0000 0.3208954096
C   C4        1.0  0.33630  0.64510  0.47270  1.0000 0.3208954096
C   C5        1.0  0.61850  0.67520  0.90880  1.0000 -0.3188653864
C   C6        1.0  0.67520  0.38150  0.15880  1.0000 -0.3188653864
C   C7        1.0  0.38150  0.32480  0.40880  1.0000 -0.3188653864
C   C8        1.0  0.32480  0.61850  0.65880  1.0000 -0.3188653864
C   C9        1.0  0.70820  0.72510  0.01550  1.0000 0.0030179036
C   C10       1.0  0.72510  0.29180  0.26550  1.0000 0.0030179036
C   C11       1.0  0.29180  0.27490  0.51550  1.0000 0.0030179036
C   C12       1.0  0.27490  0.70820  0.76550  1.0000 0.0030179036
C   C13       1.0  0.88390  0.68080  0.12700  1.0000 0.0117756165
C   C14       1.0  0.68080  0.11610  0.37700  1.0000 0.0117756165
C   C15       1.0  0.11610  0.31920  0.62700  1.0000 0.0117756165
C   C16       1.0  0.31920  0.88390  0.87700  1.0000 0.0117756165
C   C17       1.0  0.99020  0.63480  0.07310  1.0000 -0.3188653864
C   C18       1.0  0.63480  0.00980  0.32310  1.0000 -0.3188653864
C   C19       1.0  0.00980  0.36520  0.57310  1.0000 -0.3188653864
C   C20       1.0  0.36520  0.99020  0.82310  1.0000 -0.3188653864
C   C21       1.0  0.98970  0.51530  0.06850  1.0000 0.3208954096
C   C22       1.0  0.51530  0.01030  0.31850  1.0000 0.3208954096
C   C23       1.0  0.01030  0.48470  0.56850  1.0000 0.3208954096
C   C24       1.0  0.48470  0.98970  0.81850  1.0000 0.3208954096
N   N1        1.0  0.72410  0.60010  0.66690  1.0000 -0.2495785147
N   N2        1.0  0.60010  0.27590  0.91690  1.0000 -0.2495785147
N   N3        1.0  0.27590  0.39990  0.16690  1.0000 -0.2495785147
N   N4        1.0  0.39990  0.72410  0.41690  1.0000 -0.2495785147
N   N5        1.0  0.72370  0.60730  0.49650  1.0000 -0.0827063069
N   N6        1.0  0.60730  0.27630  0.74650  1.0000 -0.0827063069
N   N7        1.0  0.27630  0.39270  0.99650  1.0000 -0.0827063069
N   N8        1.0  0.39270  0.72370  0.24650  1.0000 -0.0827063069
N   N9        1.0  0.64610  0.67370  0.45260  1.0000 -0.0951939855
N   N10       1.0  0.67370  0.35390  0.70260  1.0000 -0.0951939855
N   N11       1.0  0.35390  0.32630  0.95260  1.0000 -0.0951939855
N   N12       1.0  0.32630  0.64610  0.20260  1.0000 -0.0951939855
N   N13       1.0  0.59820  0.70830  0.59460  1.0000 -0.2495785147
N   N14       1.0  0.70830  0.40180  0.84460  1.0000 -0.2495785147
N   N15       1.0  0.40180  0.29170  0.09460  1.0000 -0.2495785147
N   N16       1.0  0.29170  0.59820  0.34460  1.0000 -0.2495785147
N   N17       1.0  0.92110  0.45480  0.97680  1.0000 -0.2746722937
N   N18       1.0  0.45480  0.07890  0.22680  1.0000 -0.2754180372
N   N19       1.0  0.07890  0.54520  0.47680  1.0000 -0.2754180372
N   N20       1.0  0.54520  0.92110  0.72680  1.0000 -0.2754180372
N   N21       1.0  0.94540  0.35000  0.00570  1.0000 -0.0709264038
N   N22       1.0  0.35000  0.05460  0.25570  1.0000 -0.0709264038
N   N23       1.0  0.05460  0.65000  0.50570  1.0000 -0.0709264038
N   N24       1.0  0.65000  0.94540  0.75570  1.0000 -0.0709264038
N   N25       1.0  0.02310  0.34220  0.11340  1.0000 -0.0709264038
N   N26       1.0  0.34220  0.97690  0.36340  1.0000 -0.0709264038
N   N27       1.0  0.97690  0.65780  0.61340  1.0000 -0.0827063069
N   N28       1.0  0.65780  0.02310  0.86340  1.0000 -0.0709264038
N   N29       1.0  0.05240  0.44720  0.15850  1.0000 -0.2885829747
N   N30       1.0  0.44720  0.94760  0.40850  1.0000 -0.2885829747
N   N31       1.0  0.94760  0.55280  0.65850  1.0000 -0.2885829747
N   N32       1.0  0.55280  0.05240  0.90850  1.0000 -0.2885829747
O   O1        1.0  0.80000  0.65100  0.00610  1.0000 -0.2555413187
O   O2        1.0  0.65100  0.20000  0.25610  1.0000 -0.2555413187
O   O3        1.0  0.20000  0.34900  0.50610  1.0000 -0.2555413187
O   O4        1.0  0.34900  0.80000  0.75610  1.0000 -0.2555413187
