# DDEC6 charges by PACMAN v1.1 (https://github.com/mtap-research/PACMAN-charge/)
data_2012[ZnGd][nan]3[ASR]1
_chemical_formula_sum              "Gd15 Zn3 H72 C108 N18 O54"
_cell_length_a       17.9869
_cell_length_b       17.9869
_cell_length_c       21.3482
_cell_angle_alpha    90
_cell_angle_beta     90
_cell_angle_gamma    120

_symmetry_space_group_name_H-M    "P 1"
_symmetry_Int_Tables_number       1

loop_
  _symmetry_equiv_pos_as_xyz
  'x, y, z'

loop_
  _atom_site_type_symbol
  _atom_site_label
  _atom_site_symmetry_multiplicity
  _atom_site_fract_x
  _atom_site_fract_y
  _atom_site_fract_z
  _atom_site_occupancy
  _atom_site_charge
Gd  Gd1       1.0  0.17275  0.77109  0.08778  1.0000 2.0734050061
Gd  Gd2       1.0  0.22891  0.40166  0.42111  1.0000 2.0734050061
Gd  Gd3       1.0  0.59834  0.82725  0.75445  1.0000 2.0734050061
Gd  Gd4       1.0  0.40166  0.22891  0.57889  1.0000 2.0734050061
Gd  Gd5       1.0  0.82725  0.59834  0.24555  1.0000 2.0734050061
Gd  Gd6       1.0  0.77109  0.17275  0.91222  1.0000 2.0734050061
Gd  Gd7       1.0  0.00000  0.81192  0.16667  1.0000 2.0083385095
Gd  Gd8       1.0  0.18808  0.18808  0.50000  1.0000 2.0083385095
Gd  Gd9       1.0  0.81192  0.00000  0.83333  1.0000 2.0198784456
Gd  Gd10      1.0  0.06527  0.66384  0.24474  1.0000 1.9996457284
Gd  Gd11      1.0  0.33616  0.40143  0.57807  1.0000 1.9996457284
Gd  Gd12      1.0  0.59857  0.93473  0.91141  1.0000 1.9996457284
Gd  Gd13      1.0  0.40143  0.33616  0.42193  1.0000 1.9996457284
Gd  Gd14      1.0  0.93473  0.59857  0.08859  1.0000 1.9996457284
Gd  Gd15      1.0  0.66384  0.06527  0.75526  1.0000 1.9996457284
Zn  Zn1       1.0  0.64894  0.00000  0.33333  1.0000 0.4728860841
Zn  Zn2       1.0  0.00000  0.64894  0.66667  1.0000 0.4728860841
Zn  Zn3       1.0  0.35106  0.35106  0.00000  1.0000 0.4728860841
H   H1        1.0  0.89000  0.94590  0.29750  1.0000 0.1227084503
H   H2        1.0  0.05410  0.94410  0.63083  1.0000 0.1227084503
H   H3        1.0  0.05590  0.11000  0.96417  1.0000 0.1227084503
H   H4        1.0  0.94410  0.05410  0.36917  1.0000 0.1227084503
H   H5        1.0  0.11000  0.05590  0.03583  1.0000 0.1227084503
H   H6        1.0  0.94590  0.89000  0.70250  1.0000 0.1227084503
H   H7        1.0  0.59810  0.81340  0.29030  1.0000 0.087443044
H   H8        1.0  0.18660  0.78470  0.62363  1.0000 0.087443044
H   H9        1.0  0.21530  0.40190  0.95697  1.0000 0.087443044
H   H10       1.0  0.78470  0.18660  0.37637  1.0000 0.087443044
H   H11       1.0  0.40190  0.21530  0.04303  1.0000 0.087443044
H   H12       1.0  0.81340  0.59810  0.70970  1.0000 0.087443044
H   H13       1.0  0.66220  0.73640  0.26020  1.0000 0.1227084503
H   H14       1.0  0.26360  0.92580  0.59353  1.0000 0.1227084503
H   H15       1.0  0.07420  0.33780  0.92687  1.0000 0.1227084503
H   H16       1.0  0.92580  0.26360  0.40647  1.0000 0.1227084503
H   H17       1.0  0.33780  0.07420  0.07313  1.0000 0.1227084503
H   H18       1.0  0.73640  0.66220  0.73980  1.0000 0.1227084503
H   H19       1.0  0.12900  0.77630  0.76800  1.0000 0.087443044
H   H20       1.0  0.22370  0.35270  0.10133  1.0000 0.087443044
H   H21       1.0  0.64730  0.87100  0.43467  1.0000 0.087443044
H   H22       1.0  0.35270  0.22370  0.89867  1.0000 0.087443044
H   H23       1.0  0.87100  0.64730  0.56533  1.0000 0.087443044
H   H24       1.0  0.77630  0.12900  0.23200  1.0000 0.087443044
H   H25       1.0  0.15080  0.78080  0.87510  1.0000 0.1227084503
H   H26       1.0  0.21920  0.37000  0.20843  1.0000 0.1227084503
H   H27       1.0  0.63000  0.84920  0.54177  1.0000 0.1227084503
H   H28       1.0  0.37000  0.21920  0.79157  1.0000 0.1227084503
H   H29       1.0  0.84920  0.63000  0.45823  1.0000 0.1227084503
H   H30       1.0  0.78080  0.15080  0.12490  1.0000 0.1227084503
H   H31       1.0  0.95300  0.54040  0.88580  1.0000 0.1286592475
H   H32       1.0  0.45960  0.41260  0.21913  1.0000 0.1286592475
H   H33       1.0  0.58740  0.04700  0.55247  1.0000 0.1286592475
H   H34       1.0  0.41260  0.45960  0.78087  1.0000 0.1286592475
H   H35       1.0  0.04700  0.58740  0.44753  1.0000 0.1286592475
H   H36       1.0  0.54040  0.95300  0.11420  1.0000 0.1286592475
H   H37       1.0  0.87050  0.42050  0.83230  1.0000 0.1286592475
H   H38       1.0  0.57950  0.45000  0.16563  1.0000 0.1286592475
H   H39       1.0  0.55000  0.12950  0.49897  1.0000 0.1286592475
H   H40       1.0  0.45000  0.57950  0.83437  1.0000 0.1286592475
H   H41       1.0  0.12950  0.55000  0.50103  1.0000 0.1286592475
H   H42       1.0  0.42050  0.87050  0.16770  1.0000 0.1286592475
H   H43       1.0  0.76330  0.33320  0.66590  1.0000 0.1286592475
H   H44       1.0  0.66680  0.43010  0.99923  1.0000 0.1286592475
H   H45       1.0  0.56990  0.23670  0.33257  1.0000 0.1286592475
H   H46       1.0  0.43010  0.66680  0.00077  1.0000 0.1286592475
H   H47       1.0  0.23670  0.56990  0.66743  1.0000 0.1286592475
H   H48       1.0  0.33320  0.76330  0.33410  1.0000 0.1286592475
H   H49       1.0  0.84540  0.46840  0.62510  1.0000 0.087443044
H   H50       1.0  0.53160  0.37700  0.95843  1.0000 0.087443044
H   H51       1.0  0.62300  0.15460  0.29177  1.0000 0.087443044
H   H52       1.0  0.37700  0.53160  0.04157  1.0000 0.087443044
H   H53       1.0  0.15460  0.62300  0.70823  1.0000 0.087443044
H   H54       1.0  0.46840  0.84540  0.37490  1.0000 0.087443044
H   H55       1.0  0.15540  0.84070  0.21020  1.0000 0.3776843335
H   H56       1.0  0.15930  0.31470  0.54353  1.0000 0.3776843335
H   H57       1.0  0.68530  0.84460  0.87687  1.0000 0.3776843335
H   H58       1.0  0.31470  0.15930  0.45647  1.0000 0.3776843335
H   H59       1.0  0.84460  0.68530  0.12313  1.0000 0.3776843335
H   H60       1.0  0.84070  0.15540  0.78980  1.0000 0.3776843335
H   H61       1.0  0.97010  0.74730  0.28820  1.0000 0.3776843335
H   H62       1.0  0.25270  0.22280  0.62153  1.0000 0.3776843335
H   H63       1.0  0.77720  0.02990  0.95487  1.0000 0.3776843335
H   H64       1.0  0.22280  0.25270  0.37847  1.0000 0.3776843335
H   H65       1.0  0.02990  0.77720  0.04513  1.0000 0.3776843335
H   H66       1.0  0.74730  0.97010  0.71180  1.0000 0.3776843335
H   H67       1.0  0.08070  0.60080  0.12270  1.0000 0.3566855625
H   H68       1.0  0.39920  0.47990  0.45603  1.0000 0.3566855625
H   H69       1.0  0.52010  0.91930  0.78937  1.0000 0.3566855625
H   H70       1.0  0.47990  0.39920  0.54397  1.0000 0.3566855625
H   H71       1.0  0.91930  0.52010  0.21063  1.0000 0.3566855625
H   H72       1.0  0.60080  0.08070  0.87730  1.0000 0.3566855625
C   C1        1.0  0.83100  0.78940  0.25030  1.0000 0.6055864677
C   C2        1.0  0.21060  0.04160  0.58363  1.0000 0.6055864677
C   C3        1.0  0.95840  0.16900  0.91697  1.0000 0.6055864677
C   C4        1.0  0.04160  0.21060  0.41637  1.0000 0.6055864677
C   C5        1.0  0.16900  0.95840  0.08303  1.0000 0.6055864677
C   C6        1.0  0.78940  0.83100  0.74970  1.0000 0.6055864677
C   C7        1.0  0.78610  0.83470  0.27460  1.0000 0.000148673
C   C8        1.0  0.16530  0.95140  0.60793  1.0000 0.000148673
C   C9        1.0  0.04860  0.21390  0.94127  1.0000 0.000148673
C   C10       1.0  0.95140  0.16530  0.39207  1.0000 0.000148673
C   C11       1.0  0.21390  0.04860  0.05873  1.0000 0.000148673
C   C12       1.0  0.83470  0.78610  0.72540  1.0000 0.000148673
C   C13       1.0  0.83030  0.91690  0.29720  1.0000 -0.1975563034
C   C14       1.0  0.08310  0.91340  0.63053  1.0000 -0.1975563034
C   C15       1.0  0.08660  0.16970  0.96387  1.0000 -0.1975563034
C   C16       1.0  0.91340  0.08310  0.36947  1.0000 -0.1975563034
C   C17       1.0  0.16970  0.08660  0.03613  1.0000 -0.1975563034
C   C18       1.0  0.91690  0.83030  0.70280  1.0000 -0.1975563034
C   C19       1.0  0.78750  0.95730  0.31940  1.0000 0.1227084503
C   C20       1.0  0.04270  0.83020  0.65273  1.0000 0.1227084503
C   C21       1.0  0.16980  0.21250  0.98607  1.0000 0.1227084503
C   C22       1.0  0.83020  0.04270  0.34727  1.0000 0.1227084503
C   C23       1.0  0.21250  0.16980  0.01393  1.0000 0.1227084503
C   C24       1.0  0.95730  0.78750  0.68060  1.0000 0.1227084503
C   C25       1.0  0.65740  0.83890  0.29310  1.0000 0.0283300881
C   C26       1.0  0.16110  0.81850  0.62643  1.0000 0.0283300881
C   C27       1.0  0.18150  0.34260  0.95977  1.0000 0.0283300881
C   C28       1.0  0.81850  0.16110  0.37357  1.0000 0.0283300881
C   C29       1.0  0.34260  0.18150  0.04023  1.0000 0.0283300881
C   C30       1.0  0.83890  0.65740  0.70690  1.0000 0.0283300881
C   C31       1.0  0.69510  0.79290  0.27360  1.0000 -0.1909724004
C   C32       1.0  0.20710  0.90220  0.60693  1.0000 -0.1909724004
C   C33       1.0  0.09780  0.30490  0.94027  1.0000 -0.1909724004
C   C34       1.0  0.90220  0.20710  0.39307  1.0000 -0.1909724004
C   C35       1.0  0.30490  0.09780  0.05973  1.0000 -0.1909724004
C   C36       1.0  0.79290  0.69510  0.72640  1.0000 -0.1909724004
C   C37       1.0  0.75790  0.27500  0.78300  1.0000 0.6005626008
C   C38       1.0  0.72500  0.48290  0.11633  1.0000 0.6005626008
C   C39       1.0  0.51710  0.24210  0.44967  1.0000 0.6005626008
C   C40       1.0  0.48290  0.72500  0.88367  1.0000 0.6005626008
C   C41       1.0  0.24210  0.51710  0.55033  1.0000 0.6005626008
C   C42       1.0  0.27500  0.75790  0.21700  1.0000 0.6005626008
C   C43       1.0  0.06340  0.66390  0.96160  1.0000 0.6005626008
C   C44       1.0  0.33610  0.39950  0.29493  1.0000 0.6005626008
C   C45       1.0  0.60050  0.93660  0.62827  1.0000 0.6005626008
C   C46       1.0  0.39950  0.33610  0.70507  1.0000 0.6005626008
C   C47       1.0  0.93660  0.60050  0.37173  1.0000 0.6005626008
C   C48       1.0  0.66390  0.06340  0.03840  1.0000 0.6005626008
C   C49       1.0  0.09440  0.72780  0.79180  1.0000 0.0236823408
C   C50       1.0  0.27220  0.36660  0.12513  1.0000 0.0236823408
C   C51       1.0  0.63340  0.90560  0.45847  1.0000 0.0236823408
C   C52       1.0  0.36660  0.27220  0.87487  1.0000 0.0236823408
C   C53       1.0  0.90560  0.63340  0.54153  1.0000 0.0236823408
C   C54       1.0  0.72780  0.09440  0.20820  1.0000 0.0236823408
C   C55       1.0  0.10680  0.73170  0.85640  1.0000 -0.1807495221
C   C56       1.0  0.26830  0.37510  0.18973  1.0000 -0.1807495221
C   C57       1.0  0.62490  0.89320  0.52307  1.0000 -0.1807495221
C   C58       1.0  0.37510  0.26830  0.81027  1.0000 -0.1807495221
C   C59       1.0  0.89320  0.62490  0.47693  1.0000 -0.1807495221
C   C60       1.0  0.73170  0.10680  0.14360  1.0000 -0.1807495221
C   C61       1.0  0.05330  0.66200  0.89190  1.0000 -0.0080107591
C   C62       1.0  0.33800  0.39130  0.22523  1.0000 -0.0080107591
C   C63       1.0  0.60870  0.94670  0.55857  1.0000 -0.0080107591
C   C64       1.0  0.39130  0.33800  0.77477  1.0000 -0.0080107591
C   C65       1.0  0.94670  0.60870  0.44143  1.0000 -0.0080107591
C   C66       1.0  0.66200  0.05330  0.10810  1.0000 -0.0080107591
C   C67       1.0  0.99010  0.58860  0.86250  1.0000 -0.1975563034
C   C68       1.0  0.41140  0.40150  0.19583  1.0000 -0.1975563034
C   C69       1.0  0.59850  0.00990  0.52917  1.0000 -0.1975563034
C   C70       1.0  0.40150  0.41140  0.80417  1.0000 -0.1975563034
C   C71       1.0  0.00990  0.59850  0.47083  1.0000 -0.1975563034
C   C72       1.0  0.58860  0.99010  0.13750  1.0000 -0.1975563034
C   C73       1.0  0.98340  0.58850  0.79810  1.0000 0.1286592475
C   C74       1.0  0.41150  0.39490  0.13143  1.0000 0.1286592475
C   C75       1.0  0.60510  0.01660  0.46477  1.0000 0.1286592475
C   C76       1.0  0.39490  0.41150  0.86857  1.0000 0.1286592475
C   C77       1.0  0.01660  0.60510  0.53523  1.0000 0.1286592475
C   C78       1.0  0.58850  0.98340  0.20190  1.0000 0.1286592475
C   C79       1.0  0.91860  0.51250  0.76320  1.0000 0.1227084503
C   C80       1.0  0.48750  0.40610  0.09653  1.0000 0.1227084503
C   C81       1.0  0.59390  0.08140  0.42987  1.0000 0.1227084503
C   C82       1.0  0.40610  0.48750  0.90347  1.0000 0.1227084503
C   C83       1.0  0.08140  0.59390  0.57013  1.0000 0.1227084503
C   C84       1.0  0.51250  0.91860  0.23680  1.0000 0.1227084503
C   C85       1.0  0.86610  0.42930  0.78980  1.0000 -0.2074131831
C   C86       1.0  0.57070  0.43680  0.12313  1.0000 -0.2074131831
C   C87       1.0  0.56320  0.13390  0.45647  1.0000 -0.2074131831
C   C88       1.0  0.43680  0.57070  0.87687  1.0000 -0.2074131831
C   C89       1.0  0.13390  0.56320  0.54353  1.0000 -0.2074131831
C   C90       1.0  0.42930  0.86610  0.21020  1.0000 -0.2074131831
C   C91       1.0  0.81110  0.36420  0.75420  1.0000 -0.0080107591
C   C92       1.0  0.63580  0.44690  0.08753  1.0000 -0.0080107591
C   C93       1.0  0.55310  0.18890  0.42087  1.0000 -0.0080107591
C   C94       1.0  0.44690  0.63580  0.91247  1.0000 -0.0080107591
C   C95       1.0  0.18890  0.55310  0.57913  1.0000 -0.0080107591
C   C96       1.0  0.36420  0.81110  0.24580  1.0000 -0.0080107591
C   C97       1.0  0.80230  0.37790  0.69120  1.0000 -0.1909724004
C   C98       1.0  0.62210  0.42440  0.02453  1.0000 -0.1909724004
C   C99       1.0  0.57560  0.19770  0.35787  1.0000 -0.1909724004
C   C100      1.0  0.42440  0.62210  0.97547  1.0000 -0.1909724004
C   C101      1.0  0.19770  0.57560  0.64213  1.0000 -0.1909724004
C   C102      1.0  0.37790  0.80230  0.30880  1.0000 -0.1909724004
C   C103      1.0  0.85250  0.45890  0.66700  1.0000 0.0283300881
C   C104      1.0  0.54110  0.39360  0.00033  1.0000 0.0283300881
C   C105      1.0  0.60640  0.14750  0.33367  1.0000 0.0283300881
C   C106      1.0  0.39360  0.54110  0.99967  1.0000 0.0283300881
C   C107      1.0  0.14750  0.60640  0.66633  1.0000 0.0283300881
C   C108      1.0  0.45890  0.85250  0.33300  1.0000 0.0283300881
N   N1        1.0  0.70140  0.91790  0.31570  1.0000 -0.2479078536
N   N2        1.0  0.08210  0.78350  0.64903  1.0000 -0.2479078536
N   N3        1.0  0.21650  0.29860  0.98237  1.0000 -0.2479078536
N   N4        1.0  0.78350  0.08210  0.35097  1.0000 -0.2479078536
N   N5        1.0  0.29860  0.21650  0.01763  1.0000 -0.2479078536
N   N6        1.0  0.91790  0.70140  0.68430  1.0000 -0.2479078536
N   N7        1.0  0.03440  0.65690  0.76260  1.0000 -0.2720502302
N   N8        1.0  0.34310  0.37750  0.09593  1.0000 -0.2720502302
N   N9        1.0  0.62250  0.96560  0.42927  1.0000 -0.2720502302
N   N10       1.0  0.37750  0.34310  0.90407  1.0000 -0.2720502302
N   N11       1.0  0.96560  0.62250  0.57073  1.0000 -0.2720502302
N   N12       1.0  0.65690  0.03440  0.23740  1.0000 -0.2720502302
N   N13       1.0  0.91090  0.52460  0.70080  1.0000 -0.2720502302
N   N14       1.0  0.47540  0.38630  0.03413  1.0000 -0.2753627911
N   N15       1.0  0.61370  0.08910  0.36747  1.0000 -0.2720502302
N   N16       1.0  0.38630  0.47540  0.96587  1.0000 -0.2720502302
N   N17       1.0  0.08910  0.61370  0.63253  1.0000 -0.2753627911
N   N18       1.0  0.52460  0.91090  0.29920  1.0000 -0.2720502302
O   O1        1.0  0.12190  0.79270  0.18518  1.0000 -1.1874306613
O   O2        1.0  0.20730  0.32920  0.51851  1.0000 -1.1874306613
O   O3        1.0  0.67080  0.87810  0.85185  1.0000 -1.1874306613
O   O4        1.0  0.32920  0.20730  0.48149  1.0000 -1.1874306613
O   O5        1.0  0.87810  0.67080  0.14815  1.0000 -1.1874306613
O   O6        1.0  0.79270  0.12190  0.81482  1.0000 -1.1874306613
O   O7        1.0  0.96840  0.71720  0.25351  1.0000 -1.1994419708
O   O8        1.0  0.28280  0.25120  0.58684  1.0000 -1.1994419708
O   O9        1.0  0.74880  0.03160  0.92018  1.0000 -1.1994419708
O   O10       1.0  0.25120  0.28280  0.41316  1.0000 -1.1994419708
O   O11       1.0  0.03160  0.74880  0.07982  1.0000 -1.1994419708
O   O12       1.0  0.71720  0.96840  0.74649  1.0000 -1.1994419708
O   O13       1.0  0.90280  0.83660  0.22360  1.0000 -0.7144484534
O   O14       1.0  0.16340  0.06620  0.55693  1.0000 -0.7144484534
O   O15       1.0  0.93380  0.09720  0.89027  1.0000 -0.7144484534
O   O16       1.0  0.06620  0.16340  0.44307  1.0000 -0.7144484534
O   O17       1.0  0.09720  0.93380  0.10973  1.0000 -0.7144484534
O   O18       1.0  0.83660  0.90280  0.77640  1.0000 -0.7144484534
O   O19       1.0  0.79620  0.70980  0.25840  1.0000 -0.6865003024
O   O20       1.0  0.29020  0.08640  0.59173  1.0000 -0.6865003024
O   O21       1.0  0.91360  0.20380  0.92507  1.0000 -0.6865003024
O   O22       1.0  0.08640  0.29020  0.40827  1.0000 -0.6865003024
O   O23       1.0  0.20380  0.91360  0.07493  1.0000 -0.6865003024
O   O24       1.0  0.70980  0.79620  0.74160  1.0000 -0.6865003024
O   O25       1.0  0.07460  0.64040  0.13350  1.0000 -1.1635851279
O   O26       1.0  0.35960  0.43420  0.46683  1.0000 -1.1635851279
O   O27       1.0  0.56580  0.92540  0.80017  1.0000 -1.1635851279
O   O28       1.0  0.43420  0.35960  0.53317  1.0000 -1.1635851279
O   O29       1.0  0.92540  0.56580  0.19983  1.0000 -1.1635851279
O   O30       1.0  0.64040  0.07460  0.86650  1.0000 -1.1635851279
O   O31       1.0  0.00870  0.60550  0.99330  1.0000 -0.6680637016
O   O32       1.0  0.39450  0.40320  0.32663  1.0000 -0.6680637016
O   O33       1.0  0.59680  0.99130  0.65997  1.0000 -0.6680637016
O   O34       1.0  0.40320  0.39450  0.67337  1.0000 -0.6680637016
O   O35       1.0  0.99130  0.59680  0.34003  1.0000 -0.6680637016
O   O36       1.0  0.60550  0.00870  0.00670  1.0000 -0.6680637016
O   O37       1.0  0.13100  0.72880  0.98340  1.0000 -0.7172847405
O   O38       1.0  0.27120  0.40220  0.31673  1.0000 -0.7172847405
O   O39       1.0  0.59780  0.86900  0.65007  1.0000 -0.7172847405
O   O40       1.0  0.40220  0.27120  0.68327  1.0000 -0.7172847405
O   O41       1.0  0.86900  0.59780  0.34993  1.0000 -0.7172847405
O   O42       1.0  0.72880  0.13100  0.01660  1.0000 -0.7172847405
O   O43       1.0  0.77780  0.27130  0.83990  1.0000 -0.7318790967
O   O44       1.0  0.72870  0.50650  0.17323  1.0000 -0.7318790967
O   O45       1.0  0.49350  0.22220  0.50657  1.0000 -0.7318790967
O   O46       1.0  0.50650  0.72870  0.82677  1.0000 -0.7318790967
O   O47       1.0  0.22220  0.49350  0.49343  1.0000 -0.7318790967
O   O48       1.0  0.27130  0.77780  0.16010  1.0000 -0.7318790967
O   O49       1.0  0.70640  0.21490  0.75090  1.0000 -0.66236363
O   O50       1.0  0.78510  0.49150  0.08423  1.0000 -0.66236363
O   O51       1.0  0.50850  0.29360  0.41757  1.0000 -0.66236363
O   O52       1.0  0.49150  0.78510  0.91577  1.0000 -0.66236363
O   O53       1.0  0.29360  0.50850  0.58243  1.0000 -0.66236363
O   O54       1.0  0.21490  0.70640  0.24910  1.0000 -0.66236363
