# DDEC6 charges by PACMAN v1.1 (https://github.com/mtap-research/PACMAN-charge/)
data_2012[Zn][sod]3[ASR]4
_chemical_formula_sum              "Zn6 H60 C48 N24"
_cell_length_a       14.7307
_cell_length_b       14.7307
_cell_length_c       14.7307
_cell_angle_alpha    109.471
_cell_angle_beta     109.471
_cell_angle_gamma    109.471

_symmetry_space_group_name_H-M    "P 1"
_symmetry_Int_Tables_number       1

loop_
  _symmetry_equiv_pos_as_xyz
  'x, y, z'

loop_
  _atom_site_type_symbol
  _atom_site_label
  _atom_site_symmetry_multiplicity
  _atom_site_fract_x
  _atom_site_fract_y
  _atom_site_fract_z
  _atom_site_occupancy
  _atom_site_charge
Zn  Zn1       1.0  0.25000  0.75000  0.50000  1.0000 0.6587376806
Zn  Zn2       1.0  0.75000  0.25000  0.50000  1.0000 0.6587376806
Zn  Zn3       1.0  0.50000  0.75000  0.25000  1.0000 0.6587376806
Zn  Zn4       1.0  0.50000  0.25000  0.75000  1.0000 0.6587376806
Zn  Zn5       1.0  0.75000  0.50000  0.25000  1.0000 0.6587376806
Zn  Zn6       1.0  0.25000  0.50000  0.75000  1.0000 0.6587376806
H   H1        1.0  0.10249  0.88103  0.52632  1.0000 0.0804938476
H   H2        1.0  0.35471  0.57617  0.47368  1.0000 0.0804938476
H   H3        1.0  0.64529  0.11897  0.22146  1.0000 0.0804938476
H   H4        1.0  0.89751  0.42383  0.77854  1.0000 0.0804938476
H   H5        1.0  0.22146  0.64529  0.11897  1.0000 0.0804938476
H   H6        1.0  0.77854  0.89751  0.42383  1.0000 0.0804938476
H   H7        1.0  0.52632  0.10249  0.88103  1.0000 0.0804938476
H   H8        1.0  0.47368  0.35471  0.57617  1.0000 0.0804938476
H   H9        1.0  0.57617  0.47368  0.35471  1.0000 0.0804938476
H   H10       1.0  0.88103  0.52632  0.10249  1.0000 0.0804938476
H   H11       1.0  0.42383  0.77854  0.89751  1.0000 0.0804938476
H   H12       1.0  0.11897  0.22146  0.64529  1.0000 0.0804938476
H   H13       1.0  0.57617  0.35471  0.47368  1.0000 0.0804938476
H   H14       1.0  0.88103  0.10249  0.52632  1.0000 0.0804938476
H   H15       1.0  0.42383  0.89751  0.77854  1.0000 0.0804938476
H   H16       1.0  0.11897  0.64529  0.22146  1.0000 0.0804938476
H   H17       1.0  0.10249  0.52632  0.88103  1.0000 0.0804938476
H   H18       1.0  0.35471  0.47368  0.57617  1.0000 0.0804938476
H   H19       1.0  0.64529  0.22146  0.11897  1.0000 0.0804938476
H   H20       1.0  0.89751  0.77854  0.42383  1.0000 0.0804938476
H   H21       1.0  0.22146  0.11897  0.64529  1.0000 0.0804938476
H   H22       1.0  0.77854  0.42383  0.89751  1.0000 0.0804938476
H   H23       1.0  0.52632  0.88103  0.10249  1.0000 0.0804938476
H   H24       1.0  0.47368  0.57617  0.35471  1.0000 0.0804938476
H   H25       1.0  0.02357  0.50305  0.25087  1.0000 0.1172543106
H   H26       1.0  0.91357  0.43460  0.27938  1.0000 0.1310321149
H   H27       1.0  0.06286  0.50421  0.38534  1.0000 0.1310321149
H   H28       1.0  0.13039  0.61918  0.69286  1.0000 0.1310321149
H   H29       1.0  0.14112  0.70558  0.62494  1.0000 0.1310321149
H   H30       1.0  0.25476  0.75966  0.76661  1.0000 0.1172543106
H   H31       1.0  0.85888  0.56445  0.48382  1.0000 0.1310321149
H   H32       1.0  0.86961  0.48879  0.56246  1.0000 0.1310321149
H   H33       1.0  0.74524  0.50490  0.51186  1.0000 0.1172543106
H   H34       1.0  0.05137  0.38696  0.49727  1.0000 0.1310321149
H   H35       1.0  0.91099  0.26677  0.43514  1.0000 0.1310321149
H   H36       1.0  0.03764  0.26185  0.50945  1.0000 0.1172543106
H   H37       1.0  0.56183  0.87202  0.49009  1.0000 0.1310321149
H   H38       1.0  0.51355  0.74553  0.50329  1.0000 0.1172543106
H   H39       1.0  0.48276  0.85618  0.56477  1.0000 0.1310321149
H   H40       1.0  0.50165  0.02058  0.24879  1.0000 0.1172543106
H   H41       1.0  0.29874  0.92152  0.43610  1.0000 0.1310321149
H   H42       1.0  0.37906  0.07625  0.51299  1.0000 0.1310321149
H   H43       1.0  0.23779  0.00222  0.49276  1.0000 0.1172543106
H   H44       1.0  0.74120  0.17743  0.65186  1.0000 0.1310321149
H   H45       1.0  0.61325  0.10553  0.65597  1.0000 0.1310321149
H   H46       1.0  0.72997  0.24331  0.77659  1.0000 0.1172543106
H   H47       1.0  0.62094  0.69720  0.13394  1.0000 0.1310321149
H   H48       1.0  0.70126  0.62278  0.13736  1.0000 0.1310321149
H   H49       1.0  0.76221  0.76443  0.25497  1.0000 0.1172543106
H   H50       1.0  0.48645  0.23197  0.98973  1.0000 0.1172543106
H   H51       1.0  0.43817  0.31019  0.92826  1.0000 0.1310321149
H   H52       1.0  0.51724  0.37342  0.08201  1.0000 0.1310321149
H   H53       1.0  0.38675  0.49229  0.04272  1.0000 0.1310321149
H   H54       1.0  0.25881  0.43623  0.91067  1.0000 0.1310321149
H   H55       1.0  0.27002  0.51334  0.04661  1.0000 0.1172543106
H   H56       1.0  0.49835  0.51893  0.74714  1.0000 0.1172543106
H   H57       1.0  0.56535  0.47975  0.84742  1.0000 0.1310321149
H   H58       1.0  0.49444  0.55946  0.87917  1.0000 0.1310321149
H   H59       1.0  0.50556  0.06502  0.38472  1.0000 0.1310321149
H   H60       1.0  0.43465  0.91440  0.28207  1.0000 0.1310321149
C   C1        1.0  0.05510  0.78730  0.46780  1.0000 -0.0497148489
C   C2        1.0  0.31950  0.58730  0.53220  1.0000 -0.0497148489
C   C3        1.0  0.68050  0.21270  0.26780  1.0000 -0.0497148489
C   C4        1.0  0.94490  0.41270  0.73220  1.0000 -0.0497148489
C   C5        1.0  0.26780  0.68050  0.21270  1.0000 -0.0497148489
C   C6        1.0  0.73220  0.94490  0.41270  1.0000 -0.0497148489
C   C7        1.0  0.46780  0.05510  0.78730  1.0000 -0.0497148489
C   C8        1.0  0.53220  0.31950  0.58730  1.0000 -0.0497148489
C   C9        1.0  0.58730  0.53220  0.31950  1.0000 -0.0497148489
C   C10       1.0  0.78730  0.46780  0.05510  1.0000 -0.0497148489
C   C11       1.0  0.41270  0.73220  0.94490  1.0000 -0.0497148489
C   C12       1.0  0.21270  0.26780  0.68050  1.0000 -0.0497148489
C   C13       1.0  0.58730  0.31950  0.53220  1.0000 -0.0497148489
C   C14       1.0  0.78730  0.05510  0.46780  1.0000 -0.0497148489
C   C15       1.0  0.41270  0.94490  0.73220  1.0000 -0.0497148489
C   C16       1.0  0.21270  0.68050  0.26780  1.0000 -0.0497148489
C   C17       1.0  0.05510  0.46780  0.78730  1.0000 -0.0497148489
C   C18       1.0  0.31950  0.53220  0.58730  1.0000 -0.0497148489
C   C19       1.0  0.68050  0.26780  0.21270  1.0000 -0.0497148489
C   C20       1.0  0.94490  0.73220  0.41270  1.0000 -0.0497148489
C   C21       1.0  0.26780  0.21270  0.68050  1.0000 -0.0497148489
C   C22       1.0  0.73220  0.41270  0.94490  1.0000 -0.0497148489
C   C23       1.0  0.46780  0.78730  0.05510  1.0000 -0.0497148489
C   C24       1.0  0.53220  0.58730  0.31950  1.0000 -0.0497148489
C   C25       1.0  0.00000  0.61470  0.36810  1.0000 0.3573300901
C   C26       1.0  0.00000  0.50770  0.31790  1.0000 -0.4177181435
C   C27       1.0  0.24660  0.63190  0.63190  1.0000 0.3573300901
C   C28       1.0  0.18980  0.68210  0.68210  1.0000 -0.4177181435
C   C29       1.0  0.75340  0.38530  0.38530  1.0000 0.3573300901
C   C30       1.0  0.81020  0.49230  0.49230  1.0000 -0.4177181435
C   C31       1.0  0.00000  0.36810  0.61470  1.0000 0.3573300901
C   C32       1.0  0.00000  0.31790  0.50770  1.0000 -0.4177181435
C   C33       1.0  0.38530  0.75340  0.38530  1.0000 0.3573300901
C   C34       1.0  0.49230  0.81020  0.49230  1.0000 -0.4177181435
C   C35       1.0  0.61470  0.00000  0.36810  1.0000 0.3573300901
C   C36       1.0  0.50770  0.00000  0.31790  1.0000 -0.4177181435
C   C37       1.0  0.36810  0.00000  0.61470  1.0000 0.3573300901
C   C38       1.0  0.31790  0.00000  0.50770  1.0000 -0.4177181435
C   C39       1.0  0.63190  0.24660  0.63190  1.0000 0.3573300901
C   C40       1.0  0.68210  0.18980  0.68210  1.0000 -0.4177181435
C   C41       1.0  0.63190  0.63190  0.24660  1.0000 0.3573300901
C   C42       1.0  0.68210  0.68210  0.18980  1.0000 -0.4177181435
C   C43       1.0  0.61470  0.36810  0.00000  1.0000 0.3573300901
C   C44       1.0  0.50770  0.31790  0.00000  1.0000 -0.4177181435
C   C45       1.0  0.36810  0.61470  0.00000  1.0000 0.3573300901
C   C46       1.0  0.31790  0.50770  0.00000  1.0000 -0.4177181435
C   C47       1.0  0.38530  0.38530  0.75340  1.0000 0.3573300901
C   C48       1.0  0.49230  0.49230  0.81020  1.0000 -0.4177181435
N   N1        1.0  0.09230  0.71360  0.44050  1.0000 -0.3538473186
N   N2        1.0  0.27310  0.65180  0.55950  1.0000 -0.3560100061
N   N3        1.0  0.72690  0.28640  0.37870  1.0000 -0.3538473186
N   N4        1.0  0.90770  0.34820  0.62130  1.0000 -0.3560100061
N   N5        1.0  0.37870  0.72690  0.28640  1.0000 -0.3560100061
N   N6        1.0  0.62130  0.90770  0.34820  1.0000 -0.3538473186
N   N7        1.0  0.44050  0.09230  0.71360  1.0000 -0.3538473186
N   N8        1.0  0.55950  0.27310  0.65180  1.0000 -0.3560100061
N   N9        1.0  0.65180  0.55950  0.27310  1.0000 -0.3560100061
N   N10       1.0  0.71360  0.44050  0.09230  1.0000 -0.3560100061
N   N11       1.0  0.34820  0.62130  0.90770  1.0000 -0.3538473186
N   N12       1.0  0.28640  0.37870  0.72690  1.0000 -0.3538473186
N   N13       1.0  0.65180  0.27310  0.55950  1.0000 -0.3538473186
N   N14       1.0  0.71360  0.09230  0.44050  1.0000 -0.3560100061
N   N15       1.0  0.34820  0.90770  0.62130  1.0000 -0.3560100061
N   N16       1.0  0.28640  0.72690  0.37870  1.0000 -0.3538473186
N   N17       1.0  0.09230  0.44050  0.71360  1.0000 -0.3560100061
N   N18       1.0  0.27310  0.55950  0.65180  1.0000 -0.3538473186
N   N19       1.0  0.72690  0.37870  0.28640  1.0000 -0.3560100061
N   N20       1.0  0.90770  0.62130  0.34820  1.0000 -0.3538473186
N   N21       1.0  0.37870  0.28640  0.72690  1.0000 -0.3538473186
N   N22       1.0  0.62130  0.34820  0.90770  1.0000 -0.3560100061
N   N23       1.0  0.44050  0.71360  0.09230  1.0000 -0.3560100061
N   N24       1.0  0.55950  0.65180  0.27310  1.0000 -0.3538473186
