# DDEC6 charges by PACMAN v1.1 (https://github.com/mtap-research/PACMAN-charge/)
data_2012[Cu][nan]3[ASR]2
_chemical_formula_sum              "Cu24 H60 C108 S12 N84 O48"
_cell_length_a       24.6401
_cell_length_b       24.6401
_cell_length_c       24.6401
_cell_angle_alpha    114.098
_cell_angle_beta     114.098
_cell_angle_gamma    114.098

_symmetry_space_group_name_H-M    "P 1"
_symmetry_Int_Tables_number       1

loop_
  _symmetry_equiv_pos_as_xyz
  'x, y, z'

loop_
  _atom_site_type_symbol
  _atom_site_label
  _atom_site_symmetry_multiplicity
  _atom_site_fract_x
  _atom_site_fract_y
  _atom_site_fract_z
  _atom_site_occupancy
  _atom_site_charge
Cu  Cu1       1.0  0.13284  0.85016  0.29995  1.0000 0.7795305302
Cu  Cu2       1.0  0.85016  0.29995  0.13284  1.0000 0.7795305302
Cu  Cu3       1.0  0.29995  0.13284  0.85016  1.0000 0.7795305302
Cu  Cu4       1.0  0.86716  0.14984  0.70005  1.0000 0.7795305302
Cu  Cu5       1.0  0.14984  0.70005  0.86716  1.0000 0.7795305302
Cu  Cu6       1.0  0.70005  0.86716  0.14984  1.0000 0.7795305302
Cu  Cu7       1.0  0.12004  0.90828  0.47093  1.0000 0.5833238413
Cu  Cu8       1.0  0.90828  0.47093  0.12004  1.0000 0.5833238413
Cu  Cu9       1.0  0.47093  0.12004  0.90828  1.0000 0.5861677577
Cu  Cu10      1.0  0.87996  0.09172  0.52907  1.0000 0.5861677577
Cu  Cu11      1.0  0.09172  0.52907  0.87996  1.0000 0.5861677577
Cu  Cu12      1.0  0.52907  0.87996  0.09172  1.0000 0.5861677577
Cu  Cu13      1.0  0.20754  0.80860  0.16844  1.0000 0.6629265745
Cu  Cu14      1.0  0.80860  0.16844  0.20754  1.0000 0.6629265745
Cu  Cu15      1.0  0.16844  0.20754  0.80860  1.0000 0.6668393959
Cu  Cu16      1.0  0.79246  0.19140  0.83156  1.0000 0.6668393959
Cu  Cu17      1.0  0.19140  0.83156  0.79246  1.0000 0.6629265745
Cu  Cu18      1.0  0.83156  0.79246  0.19140  1.0000 0.6629265745
Cu  Cu19      1.0  0.03970  0.93055  0.59665  1.0000 0.8158995757
Cu  Cu20      1.0  0.93055  0.59665  0.03970  1.0000 0.8158995757
Cu  Cu21      1.0  0.59665  0.03970  0.93055  1.0000 0.814236169
Cu  Cu22      1.0  0.96030  0.06945  0.40335  1.0000 0.814236169
Cu  Cu23      1.0  0.06945  0.40335  0.96030  1.0000 0.8158995757
Cu  Cu24      1.0  0.40335  0.96030  0.06945  1.0000 0.814236169
H   H1        1.0  0.94480  0.95090  0.64480  1.0000 0.1200415815
H   H2        1.0  0.95090  0.64480  0.94480  1.0000 0.1200415815
H   H3        1.0  0.64480  0.94480  0.95090  1.0000 0.1200415815
H   H4        1.0  0.05520  0.04910  0.35520  1.0000 0.1200415815
H   H5        1.0  0.04910  0.35520  0.05520  1.0000 0.1200415815
H   H6        1.0  0.35520  0.05520  0.04910  1.0000 0.1200415815
H   H7        1.0  0.83810  0.94480  0.59290  1.0000 0.1492861056
H   H8        1.0  0.94480  0.59290  0.83810  1.0000 0.1492861056
H   H9        1.0  0.59290  0.83810  0.94480  1.0000 0.1492861056
H   H10       1.0  0.16190  0.05520  0.40710  1.0000 0.1492861056
H   H11       1.0  0.05520  0.40710  0.16190  1.0000 0.1492861056
H   H12       1.0  0.40710  0.16190  0.05520  1.0000 0.1492861056
H   H13       1.0  0.77440  0.91510  0.47150  1.0000 0.1289363653
H   H14       1.0  0.91510  0.47150  0.77440  1.0000 0.1289363653
H   H15       1.0  0.47150  0.77440  0.91510  1.0000 0.1289363653
H   H16       1.0  0.22560  0.08490  0.52850  1.0000 0.1289363653
H   H17       1.0  0.08490  0.52850  0.22560  1.0000 0.1289363653
H   H18       1.0  0.52850  0.22560  0.08490  1.0000 0.1289363653
H   H19       1.0  0.81990  0.89530  0.40620  1.0000 0.1612203345
H   H20       1.0  0.89530  0.40620  0.81990  1.0000 0.1612203345
H   H21       1.0  0.40620  0.81990  0.89530  1.0000 0.1612203345
H   H22       1.0  0.18010  0.10470  0.59380  1.0000 0.1612203345
H   H23       1.0  0.10470  0.59380  0.18010  1.0000 0.1612203345
H   H24       1.0  0.59380  0.18010  0.10470  1.0000 0.1612203345
H   H25       1.0  0.31870  0.80870  0.13440  1.0000 0.1200415815
H   H26       1.0  0.80870  0.13440  0.31870  1.0000 0.1200415815
H   H27       1.0  0.13440  0.31870  0.80870  1.0000 0.1200415815
H   H28       1.0  0.68130  0.19130  0.86560  1.0000 0.1200415815
H   H29       1.0  0.19130  0.86560  0.68130  1.0000 0.1200415815
H   H30       1.0  0.86560  0.68130  0.19130  1.0000 0.1200415815
H   H31       1.0  0.45090  0.86480  0.21010  1.0000 0.1492861056
H   H32       1.0  0.86480  0.21010  0.45090  1.0000 0.1492861056
H   H33       1.0  0.21010  0.45090  0.86480  1.0000 0.1492861056
H   H34       1.0  0.54910  0.13520  0.78990  1.0000 0.1492861056
H   H35       1.0  0.13520  0.78990  0.54910  1.0000 0.1492861056
H   H36       1.0  0.78990  0.54910  0.13520  1.0000 0.1492861056
H   H37       1.0  0.53190  0.93230  0.34630  1.0000 0.1200415815
H   H38       1.0  0.93230  0.34630  0.53190  1.0000 0.1200415815
H   H39       1.0  0.34630  0.53190  0.93230  1.0000 0.1200415815
H   H40       1.0  0.46810  0.06770  0.65370  1.0000 0.1200415815
H   H41       1.0  0.06770  0.65370  0.46810  1.0000 0.1200415815
H   H42       1.0  0.65370  0.46810  0.06770  1.0000 0.1200415815
H   H43       1.0  0.48150  0.95090  0.40750  1.0000 0.1492861056
H   H44       1.0  0.95090  0.40750  0.48150  1.0000 0.1492861056
H   H45       1.0  0.40750  0.48150  0.95090  1.0000 0.1492861056
H   H46       1.0  0.51850  0.04910  0.59250  1.0000 0.1492861056
H   H47       1.0  0.04910  0.59250  0.51850  1.0000 0.1492861056
H   H48       1.0  0.59250  0.51850  0.04910  1.0000 0.1492861056
H   H49       1.0  0.29600  0.97860  0.59230  1.0000 0.1289363653
H   H50       1.0  0.97860  0.59230  0.29600  1.0000 0.1289363653
H   H51       1.0  0.59230  0.29600  0.97860  1.0000 0.1289363653
H   H52       1.0  0.70400  0.02140  0.40770  1.0000 0.1289363653
H   H53       1.0  0.02140  0.40770  0.70400  1.0000 0.1289363653
H   H54       1.0  0.40770  0.70400  0.02140  1.0000 0.1289363653
H   H55       1.0  0.96820  0.80840  0.18820  1.0000 0.1492861056
H   H56       1.0  0.80840  0.18820  0.96820  1.0000 0.1492861056
H   H57       1.0  0.18820  0.96820  0.80840  1.0000 0.1492861056
H   H58       1.0  0.03180  0.19160  0.81180  1.0000 0.1492861056
H   H59       1.0  0.19160  0.81180  0.03180  1.0000 0.1492861056
H   H60       1.0  0.81180  0.03180  0.19160  1.0000 0.1492861056
C   C1        1.0  0.91995  0.94032  0.59683  1.0000 0.1200415815
C   C2        1.0  0.94032  0.59683  0.91995  1.0000 0.1200415815
C   C3        1.0  0.59683  0.91995  0.94032  1.0000 0.1200415815
C   C4        1.0  0.08005  0.05968  0.40317  1.0000 0.1200415815
C   C5        1.0  0.05968  0.40317  0.08005  1.0000 0.1200415815
C   C6        1.0  0.40317  0.08005  0.05968  1.0000 0.1200415815
C   C7        1.0  0.85553  0.93612  0.56585  1.0000 -0.14276672
C   C8        1.0  0.93612  0.56585  0.85553  1.0000 -0.14276672
C   C9        1.0  0.56585  0.85553  0.93612  1.0000 -0.14276672
C   C10       1.0  0.14447  0.06388  0.43415  1.0000 -0.1492006474
C   C11       1.0  0.06388  0.43415  0.14447  1.0000 -0.14276672
C   C12       1.0  0.43415  0.14447  0.06388  1.0000 -0.14276672
C   C13       1.0  0.81803  0.91861  0.49366  1.0000 -0.0405306659
C   C14       1.0  0.91861  0.49366  0.81803  1.0000 -0.0405306659
C   C15       1.0  0.49366  0.81803  0.91861  1.0000 -0.0405306659
C   C16       1.0  0.18197  0.08139  0.50634  1.0000 -0.0405306659
C   C17       1.0  0.08139  0.50634  0.18197  1.0000 -0.0405306659
C   C18       1.0  0.50634  0.18197  0.08139  1.0000 -0.0405306659
C   C19       1.0  0.84443  0.90666  0.45461  1.0000 -0.1492006474
C   C20       1.0  0.90666  0.45461  0.84443  1.0000 -0.1492006474
C   C21       1.0  0.45461  0.84443  0.90666  1.0000 -0.1492006474
C   C22       1.0  0.15557  0.09334  0.54539  1.0000 -0.1492006474
C   C23       1.0  0.09334  0.54539  0.15557  1.0000 -0.1492006474
C   C24       1.0  0.54539  0.15557  0.09334  1.0000 -0.1492006474
C   C25       1.0  0.90881  0.91185  0.48974  1.0000 0.1668260445
C   C26       1.0  0.91185  0.48974  0.90881  1.0000 0.1668260445
C   C27       1.0  0.48974  0.90881  0.91185  1.0000 0.1668260445
C   C28       1.0  0.09119  0.08815  0.51026  1.0000 0.1668260445
C   C29       1.0  0.08815  0.51026  0.09119  1.0000 0.1668260445
C   C30       1.0  0.51026  0.09119  0.08815  1.0000 0.1668260445
C   C31       1.0  0.94412  0.89971  0.45547  1.0000 0.232665201
C   C32       1.0  0.89971  0.45547  0.94412  1.0000 0.232665201
C   C33       1.0  0.45547  0.94412  0.89971  1.0000 0.232665201
C   C34       1.0  0.05588  0.10029  0.54453  1.0000 0.232665201
C   C35       1.0  0.10029  0.54453  0.05588  1.0000 0.232665201
C   C36       1.0  0.54453  0.05588  0.10029  1.0000 0.232665201
C   C37       1.0  0.97410  0.87622  0.38778  1.0000 0.220436116
C   C38       1.0  0.87622  0.38778  0.97410  1.0000 0.220436116
C   C39       1.0  0.38778  0.97410  0.87622  1.0000 0.220436116
C   C40       1.0  0.02590  0.12378  0.61222  1.0000 0.220436116
C   C41       1.0  0.12378  0.61222  0.02590  1.0000 0.220436116
C   C42       1.0  0.61222  0.02590  0.12378  1.0000 0.220436116
C   C43       1.0  0.98700  0.85932  0.33268  1.0000 0.249425451
C   C44       1.0  0.85932  0.33268  0.98700  1.0000 0.249425451
C   C45       1.0  0.33268  0.98700  0.85932  1.0000 0.249425451
C   C46       1.0  0.01300  0.14068  0.66732  1.0000 0.249425451
C   C47       1.0  0.14068  0.66732  0.01300  1.0000 0.249425451
C   C48       1.0  0.66732  0.01300  0.14068  1.0000 0.249425451
C   C49       1.0  0.35224  0.83820  0.19016  1.0000 0.0801313371
C   C50       1.0  0.83820  0.19016  0.35224  1.0000 0.0801313371
C   C51       1.0  0.19016  0.35224  0.83820  1.0000 0.0801313371
C   C52       1.0  0.64776  0.16180  0.80984  1.0000 0.0801313371
C   C53       1.0  0.16180  0.80984  0.64776  1.0000 0.0801313371
C   C54       1.0  0.80984  0.64776  0.16180  1.0000 0.0801313371
C   C55       1.0  0.43080  0.87070  0.23480  1.0000 -0.1176009898
C   C56       1.0  0.87070  0.23480  0.43080  1.0000 -0.1176009898
C   C57       1.0  0.23480  0.43080  0.87070  1.0000 -0.1176009898
C   C58       1.0  0.56920  0.12930  0.76520  1.0000 -0.1176009898
C   C59       1.0  0.12930  0.76520  0.56920  1.0000 -0.1176009898
C   C60       1.0  0.76520  0.56920  0.12930  1.0000 -0.1176009898
C   C61       1.0  0.47910  0.91150  0.31550  1.0000 -0.0340060902
C   C62       1.0  0.91150  0.31550  0.47910  1.0000 -0.0340060902
C   C63       1.0  0.31550  0.47910  0.91150  1.0000 -0.0405306659
C   C64       1.0  0.52090  0.08850  0.68450  1.0000 -0.0340060902
C   C65       1.0  0.08850  0.68450  0.52090  1.0000 -0.0405306659
C   C66       1.0  0.68450  0.52090  0.08850  1.0000 -0.0405306659
C   C67       1.0  0.44910  0.92230  0.35210  1.0000 -0.14276672
C   C68       1.0  0.92230  0.35210  0.44910  1.0000 -0.14276672
C   C69       1.0  0.35210  0.44910  0.92230  1.0000 -0.14276672
C   C70       1.0  0.55090  0.07770  0.64790  1.0000 -0.14276672
C   C71       1.0  0.07770  0.64790  0.55090  1.0000 -0.14276672
C   C72       1.0  0.64790  0.55090  0.07770  1.0000 -0.14276672
C   C73       1.0  0.36987  0.88934  0.30379  1.0000 0.177712058
C   C74       1.0  0.88934  0.30379  0.36987  1.0000 0.177712058
C   C75       1.0  0.30379  0.36987  0.88934  1.0000 0.177712058
C   C76       1.0  0.63013  0.11066  0.69621  1.0000 0.177712058
C   C77       1.0  0.11066  0.69621  0.63013  1.0000 0.177712058
C   C78       1.0  0.69621  0.63013  0.11066  1.0000 0.177712058
C   C79       1.0  0.32936  0.89382  0.33412  1.0000 0.2394116533
C   C80       1.0  0.89382  0.33412  0.32936  1.0000 0.2394116533
C   C81       1.0  0.33412  0.32936  0.89382  1.0000 0.2394116533
C   C82       1.0  0.67064  0.10618  0.66588  1.0000 0.2394116533
C   C83       1.0  0.10618  0.66588  0.67064  1.0000 0.2394116533
C   C84       1.0  0.66588  0.67064  0.10618  1.0000 0.2394116533
C   C85       1.0  0.29307  0.91028  0.39595  1.0000 0.232665201
C   C86       1.0  0.91028  0.39595  0.29307  1.0000 0.232665201
C   C87       1.0  0.39595  0.29307  0.91028  1.0000 0.232665201
C   C88       1.0  0.70693  0.08972  0.60405  1.0000 0.232665201
C   C89       1.0  0.08972  0.60405  0.70693  1.0000 0.232665201
C   C90       1.0  0.60405  0.70693  0.08972  1.0000 0.232665201
C   C91       1.0  0.28018  0.92796  0.45086  1.0000 0.2394116533
C   C92       1.0  0.92796  0.45086  0.28018  1.0000 0.2394116533
C   C93       1.0  0.45086  0.28018  0.92796  1.0000 0.2394116533
C   C94       1.0  0.71982  0.07204  0.54914  1.0000 0.2394116533
C   C95       1.0  0.07204  0.54914  0.71982  1.0000 0.2394116533
C   C96       1.0  0.54914  0.71982  0.07204  1.0000 0.2394116533
C   C97       1.0  0.27997  0.95905  0.54238  1.0000 0.1612203345
C   C98       1.0  0.95905  0.54238  0.27997  1.0000 0.1612203345
C   C99       1.0  0.54238  0.27997  0.95905  1.0000 0.1612203345
C   C100      1.0  0.72003  0.04095  0.45762  1.0000 0.1612203345
C   C101      1.0  0.04095  0.45762  0.72003  1.0000 0.1612203345
C   C102      1.0  0.45762  0.72003  0.04095  1.0000 0.1612203345
C   C103      1.0  0.98429  0.82645  0.23776  1.0000 0.1612203345
C   C104      1.0  0.82645  0.23776  0.98429  1.0000 0.1612203345
C   C105      1.0  0.23776  0.98429  0.82645  1.0000 0.1612203345
C   C106      1.0  0.01571  0.17355  0.76224  1.0000 0.1612203345
C   C107      1.0  0.17355  0.76224  0.01571  1.0000 0.1612203345
C   C108      1.0  0.76224  0.01571  0.17355  1.0000 0.1612203345
S   S1        1.0  0.98984  0.65297  0.20463  1.0000 1.4002102067
S   S2        1.0  0.65297  0.20463  0.98984  1.0000 1.4002102067
S   S3        1.0  0.20463  0.98984  0.65297  1.0000 1.4002102067
S   S4        1.0  0.01016  0.34703  0.79537  1.0000 1.4002102067
S   S5        1.0  0.34703  0.79537  0.01016  1.0000 1.4002102067
S   S6        1.0  0.79537  0.01016  0.34703  1.0000 1.4002102067
S   S7        1.0  0.04994  0.77359  0.11973  1.0000 1.4095829377
S   S8        1.0  0.77359  0.11973  0.04994  1.0000 1.4095829377
S   S9        1.0  0.11973  0.04994  0.77359  1.0000 1.4095829377
S   S10       1.0  0.95006  0.22641  0.88027  1.0000 1.4095829377
S   S11       1.0  0.22641  0.88027  0.95006  1.0000 1.4095829377
S   S12       1.0  0.88027  0.95006  0.22641  1.0000 1.4095829377
N   N1        1.0  0.94749  0.92976  0.56095  1.0000 -0.2835611949
N   N2        1.0  0.92976  0.56095  0.94749  1.0000 -0.2835611949
N   N3        1.0  0.56095  0.94749  0.92976  1.0000 -0.2835611949
N   N4        1.0  0.05251  0.07024  0.43905  1.0000 -0.2835611949
N   N5        1.0  0.07024  0.43905  0.05251  1.0000 -0.2835611949
N   N6        1.0  0.43905  0.05251  0.07024  1.0000 -0.2835611949
N   N7        1.0  0.01016  0.91342  0.50022  1.0000 -0.223893104
N   N8        1.0  0.91342  0.50022  0.01016  1.0000 -0.2321339562
N   N9        1.0  0.50022  0.01016  0.91342  1.0000 -0.223893104
N   N10       1.0  0.98984  0.08658  0.49978  1.0000 -0.223893104
N   N11       1.0  0.08658  0.49978  0.98984  1.0000 -0.223893104
N   N12       1.0  0.49978  0.98984  0.08658  1.0000 -0.223893104
N   N13       1.0  0.03042  0.89770  0.45644  1.0000 -0.1965701344
N   N14       1.0  0.89770  0.45644  0.03042  1.0000 -0.1965701344
N   N15       1.0  0.45644  0.03042  0.89770  1.0000 -0.1965701344
N   N16       1.0  0.96958  0.10230  0.54356  1.0000 -0.1965701344
N   N17       1.0  0.10230  0.54356  0.96958  1.0000 -0.1965701344
N   N18       1.0  0.54356  0.96958  0.10230  1.0000 -0.1965701344
N   N19       1.0  0.91817  0.87576  0.38327  1.0000 -0.3517018457
N   N20       1.0  0.87576  0.38327  0.91817  1.0000 -0.3517018457
N   N21       1.0  0.38327  0.91817  0.87576  1.0000 -0.3517018457
N   N22       1.0  0.08183  0.12424  0.61673  1.0000 -0.3517018457
N   N23       1.0  0.12424  0.61673  0.08183  1.0000 -0.3517018457
N   N24       1.0  0.61673  0.08183  0.12424  1.0000 -0.3517018457
N   N25       1.0  0.05284  0.87129  0.35855  1.0000 -0.2442320834
N   N26       1.0  0.87129  0.35855  0.05284  1.0000 -0.2442320834
N   N27       1.0  0.35855  0.05284  0.87129  1.0000 -0.2442320834
N   N28       1.0  0.94716  0.12871  0.64145  1.0000 -0.2442320834
N   N29       1.0  0.12871  0.64145  0.94716  1.0000 -0.2442320834
N   N30       1.0  0.64145  0.94716  0.12871  1.0000 -0.2442320834
N   N31       1.0  0.05118  0.85001  0.29665  1.0000 -0.1697440843
N   N32       1.0  0.85001  0.29665  0.05118  1.0000 -0.1697440843
N   N33       1.0  0.29665  0.05118  0.85001  1.0000 -0.1697440843
N   N34       1.0  0.94882  0.14999  0.70335  1.0000 -0.1697440843
N   N35       1.0  0.14999  0.70335  0.94882  1.0000 -0.1697440843
N   N36       1.0  0.70335  0.94882  0.14999  1.0000 -0.1697440843
N   N37       1.0  0.32148  0.84746  0.22426  1.0000 -0.2675860475
N   N38       1.0  0.84746  0.22426  0.32148  1.0000 -0.2675860475
N   N39       1.0  0.22426  0.32148  0.84746  1.0000 -0.2675860475
N   N40       1.0  0.67852  0.15254  0.77574  1.0000 -0.2675860475
N   N41       1.0  0.15254  0.77574  0.67852  1.0000 -0.2675860475
N   N42       1.0  0.77574  0.67852  0.15254  1.0000 -0.2675860475
N   N43       1.0  0.25398  0.86167  0.27965  1.0000 -0.1965701344
N   N44       1.0  0.86167  0.27965  0.25398  1.0000 -0.1965701344
N   N45       1.0  0.27965  0.25398  0.86167  1.0000 -0.1965701344
N   N46       1.0  0.74602  0.13833  0.72035  1.0000 -0.1965701344
N   N47       1.0  0.13833  0.72035  0.74602  1.0000 -0.1965701344
N   N48       1.0  0.72035  0.74602  0.13833  1.0000 -0.1965701344
N   N49       1.0  0.23021  0.87313  0.32103  1.0000 -0.1774815301
N   N50       1.0  0.87313  0.32103  0.23021  1.0000 -0.1774815301
N   N51       1.0  0.32103  0.23021  0.87313  1.0000 -0.1774815301
N   N52       1.0  0.76979  0.12687  0.67897  1.0000 -0.1774815301
N   N53       1.0  0.12687  0.67897  0.76979  1.0000 -0.1774815301
N   N54       1.0  0.67897  0.76979  0.12687  1.0000 -0.1774815301
N   N55       1.0  0.35769  0.92598  0.40863  1.0000 -0.3595671356
N   N56       1.0  0.92598  0.40863  0.35769  1.0000 -0.3595671356
N   N57       1.0  0.40863  0.35769  0.92598  1.0000 -0.3595671356
N   N58       1.0  0.64231  0.07402  0.59137  1.0000 -0.3595671356
N   N59       1.0  0.07402  0.59137  0.64231  1.0000 -0.3595671356
N   N60       1.0  0.59137  0.64231  0.07402  1.0000 -0.3595671356
N   N61       1.0  0.20818  0.90606  0.41906  1.0000 -0.2321339562
N   N62       1.0  0.90606  0.41906  0.20818  1.0000 -0.2321339562
N   N63       1.0  0.41906  0.20818  0.90606  1.0000 -0.2321339562
N   N64       1.0  0.79182  0.09394  0.58094  1.0000 -0.2321339562
N   N65       1.0  0.09394  0.58094  0.79182  1.0000 -0.2321339562
N   N66       1.0  0.58094  0.79182  0.09394  1.0000 -0.2321339562
N   N67       1.0  0.20819  0.92662  0.47919  1.0000 -0.1697440843
N   N68       1.0  0.92662  0.47919  0.20819  1.0000 -0.1774815301
N   N69       1.0  0.47919  0.20819  0.92662  1.0000 -0.1774815301
N   N70       1.0  0.79181  0.07338  0.52081  1.0000 -0.1774815301
N   N71       1.0  0.07338  0.52081  0.79181  1.0000 -0.1774815301
N   N72       1.0  0.52081  0.79181  0.07338  1.0000 -0.1697440843
N   N73       1.0  0.32721  0.96093  0.52746  1.0000 -0.3517018457
N   N74       1.0  0.96093  0.52746  0.32721  1.0000 -0.3517018457
N   N75       1.0  0.52746  0.32721  0.96093  1.0000 -0.3517018457
N   N76       1.0  0.67279  0.03907  0.47254  1.0000 -0.3517018457
N   N77       1.0  0.03907  0.47254  0.67279  1.0000 -0.3517018457
N   N78       1.0  0.47254  0.67279  0.03907  1.0000 -0.3517018457
N   N79       1.0  0.94179  0.83138  0.25751  1.0000 -0.3386217952
N   N80       1.0  0.83138  0.25751  0.94179  1.0000 -0.3386217952
N   N81       1.0  0.25751  0.94179  0.83138  1.0000 -0.3386217952
N   N82       1.0  0.05821  0.16862  0.74249  1.0000 -0.3386217952
N   N83       1.0  0.16862  0.74249  0.05821  1.0000 -0.3386217952
N   N84       1.0  0.74249  0.05821  0.16862  1.0000 -0.3386217952
O   O1        1.0  0.09431  0.74738  0.12065  1.0000 -0.6543044696
O   O2        1.0  0.74738  0.12065  0.09431  1.0000 -0.6543044696
O   O3        1.0  0.12065  0.09431  0.74738  1.0000 -0.6558476935
O   O4        1.0  0.90569  0.25262  0.87935  1.0000 -0.6558476935
O   O5        1.0  0.25262  0.87935  0.90569  1.0000 -0.6543044696
O   O6        1.0  0.87935  0.90569  0.25262  1.0000 -0.6543044696
O   O7        1.0  0.04645  0.80429  0.08106  1.0000 -0.607434834
O   O8        1.0  0.80429  0.08106  0.04645  1.0000 -0.607434834
O   O9        1.0  0.08106  0.04645  0.80429  1.0000 -0.607434834
O   O10       1.0  0.95355  0.19571  0.91894  1.0000 -0.607434834
O   O11       1.0  0.19571  0.91894  0.95355  1.0000 -0.607434834
O   O12       1.0  0.91894  0.95355  0.19571  1.0000 -0.607434834
O   O13       1.0  0.09078  0.83910  0.20457  1.0000 -0.6308609623
O   O14       1.0  0.83910  0.20457  0.09078  1.0000 -0.6308609623
O   O15       1.0  0.20457  0.09078  0.83910  1.0000 -0.6412720184
O   O16       1.0  0.90922  0.16090  0.79543  1.0000 -0.6412720184
O   O17       1.0  0.16090  0.79543  0.90922  1.0000 -0.6308609623
O   O18       1.0  0.79543  0.90922  0.16090  1.0000 -0.6308609623
O   O19       1.0  0.96999  0.67574  0.25322  1.0000 -0.6412720184
O   O20       1.0  0.67574  0.25322  0.96999  1.0000 -0.6412720184
O   O21       1.0  0.25322  0.96999  0.67574  1.0000 -0.6412720184
O   O22       1.0  0.03001  0.32426  0.74678  1.0000 -0.6412720184
O   O23       1.0  0.32426  0.74678  0.03001  1.0000 -0.6412720184
O   O24       1.0  0.74678  0.03001  0.32426  1.0000 -0.6412720184
O   O25       1.0  0.92421  0.61627  0.12159  1.0000 -0.6412720184
O   O26       1.0  0.61627  0.12159  0.92421  1.0000 -0.6412720184
O   O27       1.0  0.12159  0.92421  0.61627  1.0000 -0.6412720184
O   O28       1.0  0.07579  0.38373  0.87841  1.0000 -0.6412720184
O   O29       1.0  0.38373  0.87841  0.07579  1.0000 -0.6412720184
O   O30       1.0  0.87841  0.07579  0.38373  1.0000 -0.6412720184
O   O31       1.0  0.99217  0.59079  0.19602  1.0000 -0.6308609623
O   O32       1.0  0.59079  0.19602  0.99217  1.0000 -0.6308609623
O   O33       1.0  0.19602  0.99217  0.59079  1.0000 -0.6308609623
O   O34       1.0  0.00783  0.40921  0.80398  1.0000 -0.6308609623
O   O35       1.0  0.40921  0.80398  0.00783  1.0000 -0.6308609623
O   O36       1.0  0.80398  0.00783  0.40921  1.0000 -0.6308609623
O   O37       1.0  0.96586  0.70058  0.07444  1.0000 -0.6308609623
O   O38       1.0  0.70058  0.07444  0.96586  1.0000 -0.6308609623
O   O39       1.0  0.07444  0.96586  0.70058  1.0000 -0.6412720184
O   O40       1.0  0.03414  0.29942  0.92556  1.0000 -0.6412720184
O   O41       1.0  0.29942  0.92556  0.03414  1.0000 -0.6308609623
O   O42       1.0  0.92556  0.03414  0.29942  1.0000 -0.6308609623
O   O43       1.0  0.06977  0.72213  0.24235  1.0000 -0.6662028482
O   O44       1.0  0.72213  0.24235  0.06977  1.0000 -0.6662028482
O   O45       1.0  0.24235  0.06977  0.72213  1.0000 -0.6662028482
O   O46       1.0  0.93023  0.27787  0.75765  1.0000 -0.6662028482
O   O47       1.0  0.27787  0.75765  0.93023  1.0000 -0.6662028482
O   O48       1.0  0.75765  0.93023  0.27787  1.0000 -0.6662028482
