# DDEC6 charges by PACMAN v1.1 (https://github.com/mtap-research/PACMAN-charge/)
data_2012[Zn][flu]3[ASR]1
_chemical_formula_sum              "Zn40 H160 C296 O168"
_cell_length_a       21.883
_cell_length_b       21.883
_cell_length_c       40.184
_cell_angle_alpha    90
_cell_angle_beta     90
_cell_angle_gamma    90

_symmetry_space_group_name_H-M    "P 1"
_symmetry_Int_Tables_number       1

loop_
  _symmetry_equiv_pos_as_xyz
  'x, y, z'

loop_
  _atom_site_type_symbol
  _atom_site_label
  _atom_site_symmetry_multiplicity
  _atom_site_fract_x
  _atom_site_fract_y
  _atom_site_fract_z
  _atom_site_occupancy
  _atom_site_charge
Zn  Zn1       1.0  0.18185  0.01029  0.28576  1.0000 0.9421577778
Zn  Zn2       1.0  0.31815  0.98971  0.78576  1.0000 0.9421577778
Zn  Zn3       1.0  0.68185  0.48971  0.71424  1.0000 0.9421577778
Zn  Zn4       1.0  0.81815  0.51029  0.21424  1.0000 0.9421577778
Zn  Zn5       1.0  0.73752  0.56897  0.03515  1.0000 0.930150601
Zn  Zn6       1.0  0.76248  0.43103  0.53515  1.0000 0.930150601
Zn  Zn7       1.0  0.23752  0.93103  0.96485  1.0000 0.930150601
Zn  Zn8       1.0  0.26248  0.06897  0.46485  1.0000 0.930150601
Zn  Zn9       1.0  0.22033  0.65677  0.28975  1.0000 1.030165824
Zn  Zn10      1.0  0.27967  0.34323  0.78975  1.0000 1.030165824
Zn  Zn11      1.0  0.72033  0.84323  0.71025  1.0000 1.030165824
Zn  Zn12      1.0  0.77967  0.15677  0.21025  1.0000 1.030165824
Zn  Zn13      1.0  0.80655  0.48235  0.97464  1.0000 0.975850771
Zn  Zn14      1.0  0.69345  0.51765  0.47464  1.0000 0.975850771
Zn  Zn15      1.0  0.30655  0.01765  0.02536  1.0000 0.975850771
Zn  Zn16      1.0  0.19345  0.98235  0.52536  1.0000 0.975850771
Zn  Zn17      1.0  0.25956  0.08619  0.22611  1.0000 0.975850771
Zn  Zn18      1.0  0.24044  0.91381  0.72611  1.0000 0.975850771
Zn  Zn19      1.0  0.75956  0.41381  0.77389  1.0000 0.975850771
Zn  Zn20      1.0  0.74044  0.58619  0.27389  1.0000 0.975850771
Zn  Zn21      1.0  0.80925  0.07237  0.01046  1.0000 1.030165824
Zn  Zn22      1.0  0.69075  0.92763  0.51046  1.0000 1.030165824
Zn  Zn23      1.0  0.30925  0.42763  0.98954  1.0000 1.030165824
Zn  Zn24      1.0  0.19075  0.57237  0.48954  1.0000 1.030165824
Zn  Zn25      1.0  0.37019  0.53331  0.03295  1.0000 1.009631398
Zn  Zn26      1.0  0.12981  0.46669  0.53295  1.0000 1.009631398
Zn  Zn27      1.0  0.87019  0.96669  0.96705  1.0000 1.009631398
Zn  Zn28      1.0  0.62981  0.03331  0.46705  1.0000 1.009631398
Zn  Zn29      1.0  0.79976  0.03027  0.25562  1.0000 1.009631398
Zn  Zn30      1.0  0.70024  0.96973  0.75562  1.0000 1.009631398
Zn  Zn31      1.0  0.29976  0.46973  0.74438  1.0000 1.009631398
Zn  Zn32      1.0  0.20024  0.53027  0.24438  1.0000 1.009631398
Zn  Zn33      1.0  0.34440  0.60437  0.25554  1.0000 1.009631398
Zn  Zn34      1.0  0.15560  0.39563  0.75554  1.0000 1.009631398
Zn  Zn35      1.0  0.84440  0.89563  0.74446  1.0000 1.009631398
Zn  Zn36      1.0  0.65560  0.10437  0.24446  1.0000 1.009631398
Zn  Zn37      1.0  0.25083  0.57701  0.98849  1.0000 1.0430553284
Zn  Zn38      1.0  0.24917  0.42299  0.48849  1.0000 1.0430553284
Zn  Zn39      1.0  0.75083  0.92299  0.01151  1.0000 1.0430553284
Zn  Zn40      1.0  0.74917  0.07701  0.51151  1.0000 1.0430553284
H   H1        1.0  0.73740  0.59180  0.14720  1.0000 0.1388624472
H   H2        1.0  0.76260  0.40820  0.64720  1.0000 0.1388624472
H   H3        1.0  0.23740  0.90820  0.85280  1.0000 0.1388624472
H   H4        1.0  0.26260  0.09180  0.35280  1.0000 0.1388624472
H   H5        1.0  0.62820  0.71400  0.10330  1.0000 0.1271170181
H   H6        1.0  0.87180  0.28600  0.60330  1.0000 0.1271170181
H   H7        1.0  0.12820  0.78600  0.89670  1.0000 0.1271170181
H   H8        1.0  0.37180  0.21400  0.39670  1.0000 0.1271170181
H   H9        1.0  0.64930  0.71040  0.20360  1.0000 0.1388624472
H   H10       1.0  0.85070  0.28960  0.70360  1.0000 0.1388624472
H   H11       1.0  0.14930  0.78960  0.79640  1.0000 0.1388624472
H   H12       1.0  0.35070  0.21040  0.29640  1.0000 0.1388624472
H   H13       1.0  0.53560  0.75130  0.12370  1.0000 0.1022992363
H   H14       1.0  0.96440  0.24870  0.62370  1.0000 0.1022992363
H   H15       1.0  0.03560  0.74870  0.87630  1.0000 0.1022992363
H   H16       1.0  0.46440  0.25130  0.37630  1.0000 0.1022992363
H   H17       1.0  0.58350  0.80130  0.11320  1.0000 0.1022992363
H   H18       1.0  0.91650  0.19870  0.61320  1.0000 0.1022992363
H   H19       1.0  0.08350  0.69870  0.88680  1.0000 0.1022992363
H   H20       1.0  0.41650  0.30130  0.38680  1.0000 0.1022992363
H   H21       1.0  0.43930  0.87910  0.11910  1.0000 0.1022992363
H   H22       1.0  0.06070  0.12090  0.61910  1.0000 0.1022992363
H   H23       1.0  0.93930  0.62090  0.88090  1.0000 0.1022992363
H   H24       1.0  0.56070  0.37910  0.38090  1.0000 0.1022992363
H   H25       1.0  0.49120  0.86280  0.09340  1.0000 0.1022992363
H   H26       1.0  0.00880  0.13720  0.59340  1.0000 0.1022992363
H   H27       1.0  0.99120  0.63720  0.90660  1.0000 0.1022992363
H   H28       1.0  0.50880  0.36280  0.40660  1.0000 0.1022992363
H   H29       1.0  0.45530  0.78070  0.16750  1.0000 0.1022992363
H   H30       1.0  0.04470  0.21930  0.66750  1.0000 0.1022992363
H   H31       1.0  0.95530  0.71930  0.83250  1.0000 0.1022992363
H   H32       1.0  0.54470  0.28070  0.33250  1.0000 0.1022992363
H   H33       1.0  0.50580  0.80940  0.19050  1.0000 0.1022992363
H   H34       1.0  0.99420  0.19060  0.69050  1.0000 0.1022992363
H   H35       1.0  0.00580  0.69060  0.80950  1.0000 0.1022992363
H   H36       1.0  0.49420  0.30940  0.30950  1.0000 0.1022992363
H   H37       1.0  0.38810  0.87780  0.06910  1.0000 0.1213004877
H   H38       1.0  0.11190  0.12220  0.56910  1.0000 0.1213004877
H   H39       1.0  0.88810  0.62220  0.93090  1.0000 0.1213004877
H   H40       1.0  0.61190  0.37780  0.43090  1.0000 0.1213004877
H   H41       1.0  0.29490  0.76480  0.00830  1.0000 0.1388624472
H   H42       1.0  0.20510  0.23520  0.50830  1.0000 0.1388624472
H   H43       1.0  0.79490  0.73520  0.99170  1.0000 0.1388624472
H   H44       1.0  0.70510  0.26480  0.49170  1.0000 0.1388624472
H   H45       1.0  0.40700  0.69760  0.07820  1.0000 0.1388624472
H   H46       1.0  0.09300  0.30240  0.57820  1.0000 0.1388624472
H   H47       1.0  0.90700  0.80240  0.92180  1.0000 0.1388624472
H   H48       1.0  0.59300  0.19760  0.42180  1.0000 0.1388624472
H   H49       1.0  0.36850  0.94240  0.20320  1.0000 0.1388624472
H   H50       1.0  0.13150  0.05760  0.70320  1.0000 0.1388624472
H   H51       1.0  0.86850  0.55760  0.79680  1.0000 0.1388624472
H   H52       1.0  0.63150  0.44240  0.29680  1.0000 0.1388624472
H   H53       1.0  0.26410  0.83840  0.26330  1.0000 0.1388624472
H   H54       1.0  0.23590  0.16160  0.76330  1.0000 0.1388624472
H   H55       1.0  0.76410  0.66160  0.73670  1.0000 0.1388624472
H   H56       1.0  0.73590  0.33840  0.23670  1.0000 0.1388624472
H   H57       1.0  0.40630  0.76570  0.21540  1.0000 0.1213004877
H   H58       1.0  0.09370  0.23430  0.71540  1.0000 0.1213004877
H   H59       1.0  0.90630  0.73430  0.78460  1.0000 0.1213004877
H   H60       1.0  0.59370  0.26570  0.28460  1.0000 0.1213004877
H   H61       1.0  0.61100  0.99010  0.16730  1.0000 0.1271170181
H   H62       1.0  0.88900  0.00990  0.66730  1.0000 0.1271170181
H   H63       1.0  0.11100  0.50990  0.83270  1.0000 0.1271170181
H   H64       1.0  0.38900  0.49010  0.33270  1.0000 0.1271170181
H   H65       1.0  0.52220  0.92670  0.15540  1.0000 0.1022992363
H   H66       1.0  0.97780  0.07330  0.65540  1.0000 0.1022992363
H   H67       1.0  0.02220  0.57330  0.84460  1.0000 0.1022992363
H   H68       1.0  0.47780  0.42670  0.34460  1.0000 0.1022992363
H   H69       1.0  0.57900  0.88730  0.16630  1.0000 0.105460622
H   H70       1.0  0.92100  0.11270  0.66630  1.0000 0.105460622
H   H71       1.0  0.07900  0.61270  0.83370  1.0000 0.105460622
H   H72       1.0  0.42100  0.38730  0.33370  1.0000 0.105460622
H   H73       1.0  0.63770  0.94990  0.07050  1.0000 0.1388624472
H   H74       1.0  0.86230  0.05010  0.57050  1.0000 0.1388624472
H   H75       1.0  0.13770  0.55010  0.92950  1.0000 0.1388624472
H   H76       1.0  0.36230  0.44990  0.42950  1.0000 0.1388624472
H   H77       1.0  0.73100  0.08330  0.11300  1.0000 0.1388624472
H   H78       1.0  0.76900  0.91670  0.61300  1.0000 0.1388624472
H   H79       1.0  0.23100  0.41670  0.88700  1.0000 0.1388624472
H   H80       1.0  0.26900  0.58330  0.38700  1.0000 0.1388624472
H   H81       1.0  0.28550  0.49630  0.11960  1.0000 0.1388624472
H   H82       1.0  0.21450  0.50370  0.61960  1.0000 0.1388624472
H   H83       1.0  0.78550  0.00370  0.88040  1.0000 0.1388624472
H   H84       1.0  0.71450  0.99630  0.38040  1.0000 0.1388624472
H   H85       1.0  0.19920  0.36540  0.07190  1.0000 0.1271170181
H   H86       1.0  0.30080  0.63460  0.57190  1.0000 0.1271170181
H   H87       1.0  0.69920  0.13460  0.92810  1.0000 0.1271170181
H   H88       1.0  0.80080  0.86540  0.42810  1.0000 0.1271170181
H   H89       1.0  0.15280  0.40280  0.16660  1.0000 0.1388624472
H   H90       1.0  0.34720  0.59720  0.66667  1.0000 0.1388624472
H   H91       1.0  0.65280  0.09720  0.83340  1.0000 0.1388624472
H   H92       1.0  0.84720  0.90280  0.33340  1.0000 0.1388624472
H   H93       1.0  0.14780  0.26580  0.08970  1.0000 0.105460622
H   H94       1.0  0.35220  0.73420  0.58970  1.0000 0.105460622
H   H95       1.0  0.64780  0.23420  0.91030  1.0000 0.105460622
H   H96       1.0  0.85220  0.76580  0.41030  1.0000 0.1022992363
H   H97       1.0  0.10630  0.31910  0.07620  1.0000 0.1022992363
H   H98       1.0  0.39370  0.68090  0.57620  1.0000 0.1022992363
H   H99       1.0  0.60630  0.18090  0.92380  1.0000 0.1022992363
H   H100      1.0  0.89370  0.81910  0.42380  1.0000 0.1022992363
H   H101      1.0  0.10440  0.18690  0.12610  1.0000 0.1022992363
H   H102      1.0  0.39560  0.81310  0.62610  1.0000 0.1022992363
H   H103      1.0  0.60440  0.31310  0.87390  1.0000 0.1022992363
H   H104      1.0  0.89560  0.68690  0.37390  1.0000 0.1022992363
H   H105      1.0  0.08740  0.23870  0.15160  1.0000 0.1022992363
H   H106      1.0  0.41260  0.76130  0.65160  1.0000 0.1022992363
H   H107      1.0  0.58740  0.26130  0.84840  1.0000 0.1022992363
H   H108      1.0  0.91260  0.73870  0.34840  1.0000 0.1022992363
H   H109      1.0  0.11080  0.13840  0.17860  1.0000 0.1271170181
H   H110      1.0  0.38920  0.86160  0.67860  1.0000 0.1271170181
H   H111      1.0  0.61080  0.36160  0.82140  1.0000 0.1271170181
H   H112      1.0  0.88920  0.63840  0.32140  1.0000 0.1271170181
H   H113      1.0  0.00700  0.05180  0.24540  1.0000 0.1388624472
H   H114      1.0  0.49300  0.94820  0.74540  1.0000 0.1388624472
H   H115      1.0  0.50700  0.44820  0.75460  1.0000 0.1388624472
H   H116      1.0  0.99300  0.55180  0.25460  1.0000 0.1388624472
H   H117      1.0  0.92770  0.14490  0.16970  1.0000 0.1388624472
H   H118      1.0  0.57230  0.85510  0.66970  1.0000 0.1388624472
H   H119      1.0  0.42770  0.35510  0.83030  1.0000 0.1388624472
H   H120      1.0  0.07230  0.64490  0.33030  1.0000 0.1388624472
H   H121      1.0  0.97270  0.27440  0.12380  1.0000 0.1022992363
H   H122      1.0  0.52730  0.72560  0.62380  1.0000 0.1022992363
H   H123      1.0  0.47270  0.22560  0.87620  1.0000 0.1022992363
H   H124      1.0  0.02730  0.77440  0.37620  1.0000 0.1022992363
H   H125      1.0  0.02130  0.32400  0.13410  1.0000 0.1022992363
H   H126      1.0  0.47870  0.67600  0.63410  1.0000 0.1022992363
H   H127      1.0  0.52130  0.17600  0.86590  1.0000 0.1022992363
H   H128      1.0  0.97870  0.82400  0.36590  1.0000 0.1022992363
H   H129      1.0  0.93960  0.37630  0.14460  1.0000 0.1213004877
H   H130      1.0  0.56040  0.62370  0.64460  1.0000 0.1213004877
H   H131      1.0  0.43960  0.12370  0.85540  1.0000 0.1213004877
H   H132      1.0  0.06040  0.87630  0.35540  1.0000 0.1213004877
H   H133      1.0  0.82650  0.49670  0.10490  1.0000 0.1388624472
H   H134      1.0  0.67350  0.50330  0.60490  1.0000 0.1388624472
H   H135      1.0  0.32650  0.00330  0.89510  1.0000 0.1388624472
H   H136      1.0  0.17350  0.99670  0.39510  1.0000 0.1388624472
H   H137      1.0  0.93120  0.39290  0.04570  1.0000 0.1388624472
H   H138      1.0  0.56880  0.60710  0.54570  1.0000 0.1388624472
H   H139      1.0  0.43120  0.10710  0.95430  1.0000 0.1388624472
H   H140      1.0  0.06880  0.89290  0.45430  1.0000 0.1388624472
H   H141      1.0  0.16170  0.11640  0.04180  1.0000 0.1388624472
H   H142      1.0  0.33830  0.88360  0.54180  1.0000 0.1388624472
H   H143      1.0  0.66170  0.38360  0.95820  1.0000 0.1388624472
H   H144      1.0  0.83830  0.61640  0.45820  1.0000 0.1388624472
H   H145      1.0  0.00010  0.19330  0.08100  1.0000 0.1022992363
H   H146      1.0  0.49990  0.80670  0.58100  1.0000 0.1022992363
H   H147      1.0  0.50010  0.30670  0.91900  1.0000 0.1022992363
H   H148      1.0  0.99990  0.69330  0.41900  1.0000 0.1022992363
H   H149      1.0  0.01930  0.24710  0.05710  1.0000 0.1022992363
H   H150      1.0  0.48070  0.75290  0.55710  1.0000 0.1022992363
H   H151      1.0  0.51930  0.25290  0.94290  1.0000 0.1022992363
H   H152      1.0  0.98070  0.74710  0.44290  1.0000 0.1022992363
H   H153      1.0  0.98100  0.14470  0.03560  1.0000 0.1213004877
H   H154      1.0  0.51900  0.85530  0.53560  1.0000 0.1213004877
H   H155      1.0  0.48100  0.35530  0.96440  1.0000 0.1213004877
H   H156      1.0  0.01900  0.64470  0.46440  1.0000 0.1213004877
H   H157      1.0  0.05420  0.00340  0.98760  1.0000 0.1388624472
H   H158      1.0  0.44580  0.99660  0.48760  1.0000 0.1388624472
H   H159      1.0  0.55420  0.49660  0.01240  1.0000 0.1388624472
H   H160      1.0  0.94580  0.50340  0.51240  1.0000 0.1388624472
C   C1        1.0  0.12260  0.07310  0.23076  1.0000 0.6082499501
C   C2        1.0  0.37740  0.92690  0.73076  1.0000 0.6082499501
C   C3        1.0  0.62260  0.42690  0.76924  1.0000 0.6082499501
C   C4        1.0  0.87740  0.57310  0.26924  1.0000 0.6082499501
C   C5        1.0  0.27280  0.95490  0.24283  1.0000 0.5992266265
C   C6        1.0  0.22720  0.04510  0.74283  1.0000 0.5992266265
C   C7        1.0  0.77280  0.54510  0.75717  1.0000 0.5992266265
C   C8        1.0  0.72720  0.45490  0.25717  1.0000 0.5992266265
C   C9        1.0  0.72350  0.61840  0.21030  1.0000 0.5895749983
C   C10       1.0  0.77650  0.38160  0.71030  1.0000 0.5895749983
C   C11       1.0  0.22350  0.88160  0.78970  1.0000 0.5895749983
C   C12       1.0  0.27650  0.11840  0.28970  1.0000 0.5895749983
C   C13       1.0  0.69810  0.64760  0.18033  1.0000 -0.0403546623
C   C14       1.0  0.80190  0.35240  0.68033  1.0000 -0.0403546623
C   C15       1.0  0.19810  0.85240  0.81967  1.0000 -0.0403546623
C   C16       1.0  0.30190  0.14760  0.31967  1.0000 -0.0403546623
C   C17       1.0  0.71010  0.62420  0.14899  1.0000 -0.1180244369
C   C18       1.0  0.78990  0.37580  0.64899  1.0000 -0.1180244369
C   C19       1.0  0.21010  0.87580  0.85101  1.0000 -0.1180244369
C   C20       1.0  0.28990  0.12420  0.35101  1.0000 -0.1180244369
C   C21       1.0  0.68430  0.64610  0.12112  1.0000 0.020420638
C   C22       1.0  0.81570  0.35390  0.62112  1.0000 0.020420638
C   C23       1.0  0.18430  0.85390  0.87888  1.0000 0.020420638
C   C24       1.0  0.31570  0.14610  0.37888  1.0000 0.020420638
C   C25       1.0  0.64480  0.69760  0.12261  1.0000 -0.2706806931
C   C26       1.0  0.85520  0.30240  0.62261  1.0000 -0.2706806931
C   C27       1.0  0.14480  0.80240  0.87739  1.0000 -0.2706806931
C   C28       1.0  0.35520  0.19760  0.37739  1.0000 -0.2706806931
C   C29       1.0  0.63130  0.72340  0.15395  1.0000 0.2954661128
C   C30       1.0  0.86870  0.27660  0.65395  1.0000 0.2954661128
C   C31       1.0  0.13130  0.77660  0.84605  1.0000 0.2954661128
C   C32       1.0  0.36870  0.22340  0.34605  1.0000 0.2954661128
C   C33       1.0  0.65880  0.69520  0.18266  1.0000 -0.2033855157
C   C34       1.0  0.84120  0.30480  0.68266  1.0000 -0.2033855157
C   C35       1.0  0.15880  0.80480  0.81734  1.0000 -0.2033855157
C   C36       1.0  0.34120  0.19520  0.31734  1.0000 -0.2033855157
C   C37       1.0  0.55820  0.78680  0.13137  1.0000 -0.1010506541
C   C38       1.0  0.94180  0.21320  0.63137  1.0000 -0.1010506541
C   C39       1.0  0.05820  0.71320  0.86863  1.0000 -0.1010506541
C   C40       1.0  0.44180  0.28680  0.36863  1.0000 -0.1010506541
C   C41       1.0  0.51400  0.83660  0.14197  1.0000 0.045528419
C   C42       1.0  0.98600  0.16340  0.64197  1.0000 0.045528419
C   C43       1.0  0.01400  0.66340  0.85803  1.0000 0.045528419
C   C44       1.0  0.48600  0.33660  0.35803  1.0000 0.045528419
C   C45       1.0  0.46930  0.84850  0.11290  1.0000 -0.0915818403
C   C46       1.0  0.03070  0.15150  0.61290  1.0000 -0.0915818403
C   C47       1.0  0.96930  0.65150  0.88710  1.0000 -0.0915818403
C   C48       1.0  0.53070  0.34850  0.38710  1.0000 -0.0915818403
C   C49       1.0  0.47820  0.81770  0.17222  1.0000 -0.0696426268
C   C50       1.0  0.02180  0.18230  0.67222  1.0000 -0.0696426268
C   C51       1.0  0.97820  0.68230  0.82778  1.0000 -0.0696426268
C   C52       1.0  0.52180  0.31770  0.32778  1.0000 -0.0696426268
C   C53       1.0  0.40160  0.78880  0.07951  1.0000 0.239385641
C   C54       1.0  0.09840  0.21120  0.57951  1.0000 0.239385641
C   C55       1.0  0.90160  0.71120  0.92049  1.0000 0.239385641
C   C56       1.0  0.59840  0.28880  0.42049  1.0000 0.239385641
C   C57       1.0  0.37760  0.83820  0.06297  1.0000 -0.2562981519
C   C58       1.0  0.12240  0.16180  0.56297  1.0000 -0.2562981519
C   C59       1.0  0.87760  0.66180  0.93703  1.0000 -0.2562981519
C   C60       1.0  0.62240  0.33820  0.43703  1.0000 -0.2562981519
C   C61       1.0  0.33640  0.82740  0.03625  1.0000 -0.0108762538
C   C62       1.0  0.16360  0.17260  0.53625  1.0000 -0.0108762538
C   C63       1.0  0.83640  0.67260  0.96375  1.0000 -0.0108762538
C   C64       1.0  0.66360  0.32740  0.46375  1.0000 -0.0108762538
C   C65       1.0  0.32220  0.77070  0.02570  1.0000 -0.1180244369
C   C66       1.0  0.17780  0.22930  0.52570  1.0000 -0.1180244369
C   C67       1.0  0.82220  0.72930  0.97430  1.0000 -0.1180244369
C   C68       1.0  0.67780  0.27070  0.47430  1.0000 -0.1180244369
C   C69       1.0  0.34920  0.72170  0.04132  1.0000 -0.0108762538
C   C70       1.0  0.15080  0.27830  0.54132  1.0000 -0.0108762538
C   C71       1.0  0.84920  0.77830  0.95868  1.0000 -0.0108762538
C   C72       1.0  0.65080  0.22170  0.45868  1.0000 -0.0108762538
C   C73       1.0  0.38880  0.73110  0.06800  1.0000 -0.2228733237
C   C74       1.0  0.11120  0.26890  0.56800  1.0000 -0.2228733237
C   C75       1.0  0.88880  0.76890  0.93200  1.0000 -0.2228733237
C   C76       1.0  0.61120  0.23110  0.43200  1.0000 -0.2228733237
C   C77       1.0  0.33570  0.65770  0.02951  1.0000 0.5810068873
C   C78       1.0  0.16430  0.34230  0.52951  1.0000 0.5810068873
C   C79       1.0  0.83570  0.84230  0.97049  1.0000 0.5810068873
C   C80       1.0  0.66430  0.15770  0.47049  1.0000 0.5810068873
C   C81       1.0  0.39250  0.85370  0.20474  1.0000 0.2203268436
C   C82       1.0  0.10750  0.14630  0.70474  1.0000 0.2203268436
C   C83       1.0  0.89250  0.64630  0.79526  1.0000 0.2203268436
C   C84       1.0  0.60750  0.35370  0.29526  1.0000 0.2203268436
C   C85       1.0  0.35890  0.90480  0.21270  1.0000 -0.2033855157
C   C86       1.0  0.14110  0.09520  0.71270  1.0000 -0.2033855157
C   C87       1.0  0.85890  0.59520  0.78730  1.0000 -0.2033855157
C   C88       1.0  0.64110  0.40480  0.28730  1.0000 -0.2033855157
C   C89       1.0  0.31050  0.90000  0.23497  1.0000 -0.0321190296
C   C90       1.0  0.18950  0.10000  0.73497  1.0000 -0.0196152365
C   C91       1.0  0.81050  0.60000  0.76503  1.0000 -0.0196152365
C   C92       1.0  0.68950  0.40000  0.26503  1.0000 -0.0196152365
C   C93       1.0  0.29730  0.84290  0.24902  1.0000 -0.1010506541
C   C94       1.0  0.20270  0.15710  0.74902  1.0000 -0.0915818403
C   C95       1.0  0.79730  0.65710  0.75098  1.0000 -0.0915818403
C   C96       1.0  0.70270  0.34290  0.25098  1.0000 -0.0915818403
C   C97       1.0  0.33350  0.79400  0.24158  1.0000 -0.0403546623
C   C98       1.0  0.16650  0.20600  0.74158  1.0000 -0.0321190296
C   C99       1.0  0.83350  0.70600  0.75842  1.0000 -0.0321190296
C   C100      1.0  0.66650  0.29400  0.25842  1.0000 -0.0321190296
C   C101      1.0  0.38150  0.79930  0.21982  1.0000 -0.2117958424
C   C102      1.0  0.11850  0.20070  0.71982  1.0000 -0.2117958424
C   C103      1.0  0.88150  0.70070  0.78018  1.0000 -0.2117958424
C   C104      1.0  0.61850  0.29930  0.28018  1.0000 -0.2117958424
C   C105      1.0  0.31940  0.73350  0.25550  1.0000 0.5992266265
C   C106      1.0  0.18060  0.26650  0.75550  1.0000 0.5992266265
C   C107      1.0  0.81940  0.76650  0.74450  1.0000 0.5992266265
C   C108      1.0  0.68060  0.23350  0.24450  1.0000 0.5992266265
C   C109      1.0  0.68790  0.07770  0.17630  1.0000 0.5895749983
C   C110      1.0  0.81210  0.92230  0.67630  1.0000 0.5895749983
C   C111      1.0  0.18790  0.42230  0.82370  1.0000 0.5895749983
C   C112      1.0  0.31210  0.57770  0.32370  1.0000 0.5895749983
C   C113      1.0  0.67390  0.04050  0.14493  1.0000 -0.0108762538
C   C114      1.0  0.82610  0.95950  0.64493  1.0000 -0.0108762538
C   C115      1.0  0.17390  0.45950  0.85507  1.0000 -0.0108762538
C   C116      1.0  0.32610  0.54050  0.35507  1.0000 -0.0108762538
C   C117      1.0  0.63170  0.99600  0.14738  1.0000 -0.2280708143
C   C118      1.0  0.86830  0.00400  0.64738  1.0000 -0.2280708143
C   C119      1.0  0.13170  0.50400  0.85262  1.0000 -0.2280708143
C   C120      1.0  0.36830  0.49600  0.35262  1.0000 -0.2280708143
C   C121      1.0  0.61880  0.95830  0.11988  1.0000 0.2560632926
C   C122      1.0  0.88120  0.04170  0.61988  1.0000 0.2560632926
C   C123      1.0  0.11880  0.54170  0.88012  1.0000 0.2560632926
C   C124      1.0  0.38120  0.45830  0.38012  1.0000 0.2560632926
C   C125      1.0  0.54960  0.89420  0.14863  1.0000 -0.0820309977
C   C126      1.0  0.95040  0.10580  0.64863  1.0000 -0.0820309977
C   C127      1.0  0.04960  0.60580  0.85137  1.0000 -0.0820309977
C   C128      1.0  0.45040  0.39420  0.35137  1.0000 -0.0820309977
C   C129      1.0  0.64730  0.97230  0.08953  1.0000 -0.2117958424
C   C130      1.0  0.85270  0.02770  0.58953  1.0000 -0.2117958424
C   C131      1.0  0.14730  0.52770  0.91047  1.0000 -0.2117958424
C   C132      1.0  0.35270  0.47230  0.41047  1.0000 -0.2117958424
C   C133      1.0  0.68890  0.01860  0.08787  1.0000 -0.0108762538
C   C134      1.0  0.81110  0.98140  0.58787  1.0000 -0.0108762538
C   C135      1.0  0.18890  0.48140  0.91213  1.0000 -0.0196152365
C   C136      1.0  0.31110  0.51860  0.41213  1.0000 -0.0108762538
C   C137      1.0  0.70240  0.05210  0.11460  1.0000 -0.1065073791
C   C138      1.0  0.79760  0.94790  0.61460  1.0000 -0.1065073791
C   C139      1.0  0.20240  0.44790  0.88540  1.0000 -0.1065073791
C   C140      1.0  0.29760  0.55210  0.38540  1.0000 -0.1065073791
C   C141      1.0  0.72090  0.02820  0.05479  1.0000 0.5895749983
C   C142      1.0  0.77910  0.97180  0.55479  1.0000 0.5895749983
C   C143      1.0  0.22090  0.47180  0.94521  1.0000 0.5895749983
C   C144      1.0  0.27910  0.52820  0.44521  1.0000 0.5895749983
C   C145      1.0  0.89280  0.07750  0.22037  1.0000 0.5734595683
C   C146      1.0  0.60720  0.92250  0.72037  1.0000 0.5734595683
C   C147      1.0  0.39280  0.42250  0.77963  1.0000 0.5734595683
C   C148      1.0  0.10720  0.57750  0.27963  1.0000 0.5734595683
C   C149      1.0  0.22630  0.49660  0.17856  1.0000 0.5255933729
C   C150      1.0  0.27370  0.50340  0.67856  1.0000 0.5210489955
C   C151      1.0  0.72630  0.00340  0.82144  1.0000 0.5210489955
C   C152      1.0  0.77370  0.99660  0.32144  1.0000 0.5210489955
C   C153      1.0  0.21960  0.45730  0.14789  1.0000 0.0145824467
C   C154      1.0  0.28040  0.54270  0.64789  1.0000 0.020420638
C   C155      1.0  0.71960  0.04270  0.85211  1.0000 0.020420638
C   C156      1.0  0.78040  0.95730  0.35211  1.0000 0.020420638
C   C157      1.0  0.25480  0.46690  0.11935  1.0000 -0.1010506541
C   C158      1.0  0.24520  0.53310  0.61935  1.0000 -0.1010506541
C   C159      1.0  0.75480  0.03310  0.88065  1.0000 -0.1010506541
C   C160      1.0  0.74520  0.96690  0.38065  1.0000 -0.1010506541
C   C161      1.0  0.24510  0.43500  0.09222  1.0000 -0.0196152365
C   C162      1.0  0.25490  0.56500  0.59222  1.0000 -0.0196152365
C   C163      1.0  0.74510  0.06500  0.90778  1.0000 -0.0196152365
C   C164      1.0  0.75490  0.93500  0.40778  1.0000 -0.0196152365
C   C165      1.0  0.28110  0.44910  0.06131  1.0000 0.6082499501
C   C166      1.0  0.21890  0.55090  0.56131  1.0000 0.6082499501
C   C167      1.0  0.78110  0.05090  0.93869  1.0000 0.6082499501
C   C168      1.0  0.71890  0.94910  0.43869  1.0000 0.6082499501
C   C169      1.0  0.94830  0.05120  0.99898  1.0000 0.5895749983
C   C170      1.0  0.55170  0.94880  0.49898  1.0000 0.5895749983
C   C171      1.0  0.44830  0.44880  0.00102  1.0000 0.5895749983
C   C172      1.0  0.05170  0.55120  0.50102  1.0000 0.5895749983
C   C173      1.0  0.20470  0.38770  0.09135  1.0000 -0.2280708143
C   C174      1.0  0.29530  0.61230  0.59135  1.0000 -0.2280708143
C   C175      1.0  0.70470  0.11230  0.90865  1.0000 -0.2280708143
C   C176      1.0  0.79530  0.88770  0.40865  1.0000 -0.2280708143
C   C177      1.0  0.17160  0.37280  0.11978  1.0000 0.2560632926
C   C178      1.0  0.32840  0.62720  0.61978  1.0000 0.2560632926
C   C179      1.0  0.67160  0.12720  0.88022  1.0000 0.2560632926
C   C180      1.0  0.82840  0.87280  0.38022  1.0000 0.2560632926
C   C181      1.0  0.17710  0.40980  0.14804  1.0000 -0.2228733237
C   C182      1.0  0.32290  0.59020  0.64804  1.0000 -0.2280708143
C   C183      1.0  0.67710  0.09020  0.85196  1.0000 -0.2280708143
C   C184      1.0  0.82290  0.90980  0.35196  1.0000 -0.2280708143
C   C185      1.0  0.11460  0.29320  0.09532  1.0000 -0.0696426268
C   C186      1.0  0.38540  0.70680  0.59532  1.0000 -0.0696426268
C   C187      1.0  0.61460  0.20680  0.90468  1.0000 -0.0696426268
C   C188      1.0  0.88540  0.79320  0.40468  1.0000 -0.0696426268
C   C189      1.0  0.05740  0.25680  0.10480  1.0000 0.0426473595
C   C190      1.0  0.44260  0.74320  0.60480  1.0000 0.0426473595
C   C191      1.0  0.55740  0.24320  0.89520  1.0000 0.0426473595
C   C192      1.0  0.94260  0.75680  0.39520  1.0000 0.045528419
C   C193      1.0  0.07260  0.21530  0.13281  1.0000 -0.0820309977
C   C194      1.0  0.42740  0.78470  0.63281  1.0000 -0.0820309977
C   C195      1.0  0.57260  0.28470  0.86719  1.0000 -0.0820309977
C   C196      1.0  0.92740  0.71530  0.36719  1.0000 -0.0820309977
C   C197      1.0  0.02050  0.14950  0.17021  1.0000 0.239385641
C   C198      1.0  0.47950  0.85050  0.67021  1.0000 0.239385641
C   C199      1.0  0.52050  0.35050  0.82979  1.0000 0.239385641
C   C200      1.0  0.97950  0.64950  0.32979  1.0000 0.239385641
C   C201      1.0  0.07220  0.12850  0.18657  1.0000 -0.2117958424
C   C202      1.0  0.42780  0.87150  0.68657  1.0000 -0.2033855157
C   C203      1.0  0.57220  0.37150  0.81343  1.0000 -0.2033855157
C   C204      1.0  0.92780  0.62850  0.31343  1.0000 -0.2033855157
C   C205      1.0  0.06640  0.09380  0.21385  1.0000 -0.0403546623
C   C206      1.0  0.43360  0.90620  0.71385  1.0000 -0.0403546623
C   C207      1.0  0.56640  0.40620  0.78615  1.0000 -0.0403546623
C   C208      1.0  0.93360  0.59380  0.28615  1.0000 -0.0403546623
C   C209      1.0  0.00980  0.07600  0.22641  1.0000 -0.0915818403
C   C210      1.0  0.49020  0.92400  0.72641  1.0000 -0.1010506541
C   C211      1.0  0.50980  0.42400  0.77359  1.0000 -0.1010506541
C   C212      1.0  0.99020  0.57600  0.27359  1.0000 -0.0915818403
C   C213      1.0  0.95600  0.09610  0.20932  1.0000 -0.0108762538
C   C214      1.0  0.54400  0.90390  0.70932  1.0000 -0.0108762538
C   C215      1.0  0.45600  0.40390  0.79068  1.0000 -0.0108762538
C   C216      1.0  0.04400  0.59610  0.29068  1.0000 -0.0108762538
C   C217      1.0  0.96220  0.13210  0.18127  1.0000 -0.2117958424
C   C218      1.0  0.53780  0.86790  0.68127  1.0000 -0.2117958424
C   C219      1.0  0.46220  0.36790  0.81873  1.0000 -0.2117958424
C   C220      1.0  0.03780  0.63210  0.31873  1.0000 -0.2117958424
C   C221      1.0  0.00710  0.29830  0.11595  1.0000 -0.0915818403
C   C222      1.0  0.49290  0.70170  0.61595  1.0000 -0.0915818403
C   C223      1.0  0.50710  0.20170  0.88405  1.0000 -0.0915818403
C   C224      1.0  0.99290  0.79830  0.38405  1.0000 -0.0915818403
C   C225      1.0  0.94520  0.37910  0.09448  1.0000 0.239385641
C   C226      1.0  0.55480  0.62090  0.59448  1.0000 0.239385641
C   C227      1.0  0.44520  0.12090  0.90552  1.0000 0.239385641
C   C228      1.0  0.05480  0.87910  0.40552  1.0000 0.239385641
C   C229      1.0  0.92440  0.39610  0.12580  1.0000 -0.2228733237
C   C230      1.0  0.57560  0.60390  0.62580  1.0000 -0.2228733237
C   C231      1.0  0.42440  0.10390  0.87420  1.0000 -0.2228733237
C   C232      1.0  0.07560  0.89610  0.37420  1.0000 -0.2228733237
C   C233      1.0  0.88220  0.44120  0.12938  1.0000 -0.0108762538
C   C234      1.0  0.61780  0.55880  0.62938  1.0000 -0.0046781059
C   C235      1.0  0.38220  0.05880  0.87062  1.0000 -0.0046781059
C   C236      1.0  0.11780  0.94120  0.37062  1.0000 -0.0046781059
C   C237      1.0  0.86230  0.45950  0.16324  1.0000 0.5525349108
C   C238      1.0  0.63770  0.54050  0.66324  1.0000 0.5525349108
C   C239      1.0  0.36230  0.04050  0.83676  1.0000 0.5525349108
C   C240      1.0  0.13770  0.95950  0.33676  1.0000 0.5525349108
C   C241      1.0  0.85560  0.46610  0.10234  1.0000 -0.1010506541
C   C242      1.0  0.64440  0.53390  0.60234  1.0000 -0.1010506541
C   C243      1.0  0.35560  0.03390  0.89766  1.0000 -0.1010506541
C   C244      1.0  0.14440  0.96610  0.39766  1.0000 -0.1065073791
C   C245      1.0  0.87190  0.44560  0.06971  1.0000 -0.0517544468
C   C246      1.0  0.62810  0.55440  0.56971  1.0000 -0.0517544468
C   C247      1.0  0.37190  0.05440  0.93029  1.0000 -0.0517544468
C   C248      1.0  0.12810  0.94560  0.43029  1.0000 -0.0517544468
C   C249      1.0  0.91790  0.40440  0.06675  1.0000 -0.1809594068
C   C250      1.0  0.58210  0.59560  0.56675  1.0000 -0.1809594068
C   C251      1.0  0.41790  0.09560  0.93325  1.0000 -0.1809594068
C   C252      1.0  0.08210  0.90440  0.43325  1.0000 -0.1809594068
C   C253      1.0  0.84260  0.47250  0.04077  1.0000 0.5992266265
C   C254      1.0  0.65740  0.52750  0.54077  1.0000 0.5992266265
C   C255      1.0  0.34260  0.02750  0.95923  1.0000 0.5992266265
C   C256      1.0  0.15740  0.97250  0.45923  1.0000 0.5992266265
C   C257      1.0  0.30820  0.88280  0.01932  1.0000 0.5992266265
C   C258      1.0  0.19180  0.11720  0.51932  1.0000 0.5992266265
C   C259      1.0  0.80820  0.61720  0.98068  1.0000 0.5992266265
C   C260      1.0  0.69180  0.38280  0.48068  1.0000 0.5992266265
C   C261      1.0  0.69640  0.62440  0.08430  1.0000 0.5210489955
C   C262      1.0  0.80360  0.37560  0.58430  1.0000 0.5210489955
C   C263      1.0  0.19640  0.87560  0.91570  1.0000 0.5210489955
C   C264      1.0  0.30360  0.12440  0.41570  1.0000 0.5210489955
C   C265      1.0  0.17620  0.02090  0.00280  1.0000 0.5895749983
C   C266      1.0  0.32380  0.97910  0.50280  1.0000 0.5895749983
C   C267      1.0  0.67620  0.47910  0.99720  1.0000 0.5895749983
C   C268      1.0  0.82380  0.52090  0.49720  1.0000 0.5895749983
C   C269      1.0  0.11970  0.05470  0.01134  1.0000 -0.0321190296
C   C270      1.0  0.38030  0.94530  0.51134  1.0000 -0.0321190296
C   C271      1.0  0.61970  0.44530  0.98866  1.0000 -0.0321190296
C   C272      1.0  0.88030  0.55470  0.48866  1.0000 -0.0321190296
C   C273      1.0  0.12390  0.10530  0.03306  1.0000 -0.2228733237
C   C274      1.0  0.37610  0.89470  0.53306  1.0000 -0.2280708143
C   C275      1.0  0.62390  0.39470  0.96694  1.0000 -0.2228733237
C   C276      1.0  0.87610  0.60530  0.46694  1.0000 -0.2228733237
C   C277      1.0  0.07310  0.13770  0.04136  1.0000 0.2471634698
C   C278      1.0  0.42690  0.86230  0.54136  1.0000 0.2471634698
C   C279      1.0  0.57310  0.36230  0.95864  1.0000 0.2471634698
C   C280      1.0  0.92690  0.63770  0.45864  1.0000 0.2471634698
C   C281      1.0  0.03350  0.21980  0.07443  1.0000 -0.0820309977
C   C282      1.0  0.46650  0.78020  0.57443  1.0000 -0.0820309977
C   C283      1.0  0.53350  0.28020  0.92557  1.0000 -0.0820309977
C   C284      1.0  0.96650  0.71980  0.42557  1.0000 -0.0820309977
C   C285      1.0  0.01520  0.12190  0.02964  1.0000 -0.2280708143
C   C286      1.0  0.48480  0.87810  0.52964  1.0000 -0.2280708143
C   C287      1.0  0.51520  0.37810  0.97036  1.0000 -0.2280708143
C   C288      1.0  0.98480  0.62190  0.47036  1.0000 -0.2280708143
C   C289      1.0  0.00940  0.07140  0.00897  1.0000 -0.0321190296
C   C290      1.0  0.49060  0.92860  0.50897  1.0000 -0.0321190296
C   C291      1.0  0.50940  0.42860  0.99103  1.0000 -0.0321190296
C   C292      1.0  0.99060  0.57140  0.49103  1.0000 -0.0321190296
C   C293      1.0  0.05920  0.03810  0.00063  1.0000 -0.0915818403
C   C294      1.0  0.44080  0.96190  0.50063  1.0000 -0.0915818403
C   C295      1.0  0.55920  0.46190  0.99937  1.0000 -0.0915818403
C   C296      1.0  0.94080  0.53810  0.49937  1.0000 -0.0915818403
O   O1        1.0  0.11762  0.04197  0.25753  1.0000 -0.5317412315
O   O2        1.0  0.38238  0.95803  0.75753  1.0000 -0.5317412315
O   O3        1.0  0.61762  0.45803  0.74247  1.0000 -0.5317412315
O   O4        1.0  0.88238  0.54197  0.24247  1.0000 -0.5317412315
O   O5        1.0  0.17291  0.09091  0.21989  1.0000 -0.578309531
O   O6        1.0  0.32709  0.90909  0.71989  1.0000 -0.578309531
O   O7        1.0  0.67291  0.40909  0.78011  1.0000 -0.578309531
O   O8        1.0  0.82709  0.59091  0.28011  1.0000 -0.578309531
O   O9        1.0  0.28690  0.00284  0.22861  1.0000 -0.5675791058
O   O10       1.0  0.21310  0.99716  0.72861  1.0000 -0.5675791058
O   O11       1.0  0.78690  0.49716  0.77139  1.0000 -0.5675791058
O   O12       1.0  0.71310  0.50284  0.27139  1.0000 -0.5675791058
O   O13       1.0  0.23146  0.94806  0.26440  1.0000 -0.5379253251
O   O14       1.0  0.26854  0.05194  0.76440  1.0000 -0.5379253251
O   O15       1.0  0.73146  0.55194  0.73560  1.0000 -0.5379253251
O   O16       1.0  0.76854  0.44806  0.23560  1.0000 -0.5379253251
O   O17       1.0  0.76150  0.58000  0.20797  1.0000 -0.4974852177
O   O18       1.0  0.73850  0.42000  0.70797  1.0000 -0.4974852177
O   O19       1.0  0.26150  0.92000  0.79203  1.0000 -0.4974852177
O   O20       1.0  0.23850  0.08000  0.29203  1.0000 -0.4974852177
O   O21       1.0  0.70630  0.63622  0.23910  1.0000 -0.5481324765
O   O22       1.0  0.79370  0.36378  0.73910  1.0000 -0.5481324765
O   O23       1.0  0.20630  0.86378  0.76090  1.0000 -0.5481324765
O   O24       1.0  0.29370  0.13622  0.26090  1.0000 -0.5481324765
O   O25       1.0  0.59563  0.77056  0.15898  1.0000 -0.1809594068
O   O26       1.0  0.90437  0.22944  0.65898  1.0000 -0.1809594068
O   O27       1.0  0.09563  0.72944  0.84102  1.0000 -0.1809594068
O   O28       1.0  0.40437  0.27056  0.34102  1.0000 -0.1809594068
O   O29       1.0  0.43823  0.86449  0.18089  1.0000 -0.2117958424
O   O30       1.0  0.06177  0.13551  0.68089  1.0000 -0.2117958424
O   O31       1.0  0.93823  0.63551  0.81911  1.0000 -0.2117958424
O   O32       1.0  0.56177  0.36449  0.31911  1.0000 -0.2117958424
O   O33       1.0  0.44002  0.79161  0.10612  1.0000 -0.2117958424
O   O34       1.0  0.05998  0.20839  0.60612  1.0000 -0.2117958424
O   O35       1.0  0.94002  0.70839  0.89388  1.0000 -0.2117958424
O   O36       1.0  0.55998  0.29161  0.39388  1.0000 -0.2117958424
O   O37       1.0  0.35481  0.69043  0.24793  1.0000 -0.578309531
O   O38       1.0  0.14519  0.30957  0.74793  1.0000 -0.578309531
O   O39       1.0  0.85481  0.80957  0.75207  1.0000 -0.578309531
O   O40       1.0  0.64519  0.19043  0.25207  1.0000 -0.578309531
O   O41       1.0  0.27459  0.72941  0.27553  1.0000 -0.560235901
O   O42       1.0  0.22541  0.27059  0.77553  1.0000 -0.560235901
O   O43       1.0  0.77459  0.77059  0.72447  1.0000 -0.560235901
O   O44       1.0  0.72541  0.22941  0.22447  1.0000 -0.560235901
O   O45       1.0  0.37083  0.61757  0.04231  1.0000 -0.560235901
O   O46       1.0  0.12917  0.38243  0.54231  1.0000 -0.560235901
O   O47       1.0  0.87083  0.88243  0.95769  1.0000 -0.560235901
O   O48       1.0  0.62917  0.11757  0.45769  1.0000 -0.560235901
O   O49       1.0  0.29640  0.64939  0.00973  1.0000 -0.5481324765
O   O50       1.0  0.20360  0.35061  0.50973  1.0000 -0.5481324765
O   O51       1.0  0.79640  0.85061  0.99027  1.0000 -0.5481324765
O   O52       1.0  0.70360  0.14939  0.49027  1.0000 -0.5481324765
O   O53       1.0  0.24867  0.60413  0.24815  1.0000 -1.0416884694
O   O54       1.0  0.25133  0.39587  0.74815  1.0000 -1.0416884694
O   O55       1.0  0.74867  0.89587  0.75185  1.0000 -1.0416884694
O   O56       1.0  0.75133  0.10413  0.25185  1.0000 -1.0416884694
O   O57       1.0  0.65512  0.06690  0.20111  1.0000 -0.578309531
O   O58       1.0  0.84488  0.93310  0.70111  1.0000 -0.578309531
O   O59       1.0  0.15512  0.43310  0.79889  1.0000 -0.578309531
O   O60       1.0  0.34488  0.56690  0.29889  1.0000 -0.578309531
O   O61       1.0  0.72768  0.11620  0.17482  1.0000 -0.5086466718
O   O62       1.0  0.77232  0.88380  0.67482  1.0000 -0.5086466718
O   O63       1.0  0.22768  0.38380  0.82518  1.0000 -0.5086466718
O   O64       1.0  0.27232  0.61620  0.32518  1.0000 -0.5086466718
O   O65       1.0  0.84895  0.09530  0.20226  1.0000 -0.5995588648
O   O66       1.0  0.65105  0.90470  0.70226  1.0000 -0.5995588648
O   O67       1.0  0.34895  0.40470  0.79774  1.0000 -0.5995588648
O   O68       1.0  0.15105  0.59530  0.29774  1.0000 -0.5995588648
O   O69       1.0  0.88694  0.04850  0.24652  1.0000 -0.5317412315
O   O70       1.0  0.61306  0.95150  0.74652  1.0000 -0.5317412315
O   O71       1.0  0.38694  0.45150  0.75348  1.0000 -0.5317412315
O   O72       1.0  0.11306  0.54850  0.25348  1.0000 -0.5317412315
O   O73       1.0  0.19250  0.48490  0.20303  1.0000 -0.5675791058
O   O74       1.0  0.30750  0.51510  0.70303  1.0000 -0.560235901
O   O75       1.0  0.69250  0.01510  0.79697  1.0000 -0.560235901
O   O76       1.0  0.80750  0.98490  0.29697  1.0000 -0.560235901
O   O77       1.0  0.26650  0.53470  0.17796  1.0000 -0.4791572067
O   O78       1.0  0.23350  0.46530  0.67796  1.0000 -0.4791572067
O   O79       1.0  0.76650  0.96530  0.82204  1.0000 -0.4791572067
O   O80       1.0  0.73350  0.03470  0.32204  1.0000 -0.4791572067
O   O81       1.0  0.94459  0.00532  0.98002  1.0000 -0.5317412315
O   O82       1.0  0.55541  0.99468  0.48002  1.0000 -0.5317412315
O   O83       1.0  0.44459  0.49468  0.01998  1.0000 -0.5317412315
O   O84       1.0  0.05541  0.50532  0.51998  1.0000 -0.5317412315
O   O85       1.0  0.90130  0.08126  0.00914  1.0000 -0.5858865652
O   O86       1.0  0.59870  0.91874  0.50914  1.0000 -0.5858865652
O   O87       1.0  0.40130  0.41874  0.99086  1.0000 -0.5858865652
O   O88       1.0  0.09870  0.58126  0.49086  1.0000 -0.5858865652
O   O89       1.0  0.32188  0.48844  0.06525  1.0000 -0.5317412315
O   O90       1.0  0.17812  0.51156  0.56525  1.0000 -0.5317412315
O   O91       1.0  0.82188  0.01156  0.93475  1.0000 -0.5317412315
O   O92       1.0  0.67812  0.98844  0.43475  1.0000 -0.5317412315
O   O93       1.0  0.27078  0.42156  0.03450  1.0000 -0.560235901
O   O94       1.0  0.22922  0.57844  0.53450  1.0000 -0.560235901
O   O95       1.0  0.77078  0.07844  0.96550  1.0000 -0.560235901
O   O96       1.0  0.72922  0.92156  0.46550  1.0000 -0.560235901
O   O97       1.0  0.82009  0.97842  0.00763  1.0000 -1.0416884694
O   O98       1.0  0.67991  0.02158  0.50763  1.0000 -1.0416884694
O   O99       1.0  0.32009  0.52158  0.99237  1.0000 -1.0416884694
O   O100      1.0  0.17991  0.47842  0.49237  1.0000 -1.0416884694
O   O101      1.0  0.70267  0.99614  0.03020  1.0000 -0.5995588648
O   O102      1.0  0.79733  0.00386  0.53020  1.0000 -0.5995588648
O   O103      1.0  0.20267  0.50386  0.96980  1.0000 -0.5995588648
O   O104      1.0  0.29733  0.49614  0.46980  1.0000 -0.5995588648
O   O105      1.0  0.76385  0.06587  0.05333  1.0000 -0.5379253251
O   O106      1.0  0.73615  0.93413  0.55333  1.0000 -0.5379253251
O   O107      1.0  0.26385  0.43413  0.94667  1.0000 -0.5379253251
O   O108      1.0  0.23615  0.56587  0.44667  1.0000 -0.5379253251
O   O109      1.0  0.12987  0.32840  0.12255  1.0000 -0.1809594068
O   O110      1.0  0.37013  0.67160  0.62255  1.0000 -0.1809594068
O   O111      1.0  0.62987  0.17160  0.87745  1.0000 -0.1809594068
O   O112      1.0  0.87013  0.82840  0.37745  1.0000 -0.1809594068
O   O113      1.0  0.57983  0.91041  0.11944  1.0000 -0.1809594068
O   O114      1.0  0.92017  0.08959  0.61944  1.0000 -0.1809594068
O   O115      1.0  0.07983  0.58959  0.88056  1.0000 -0.1809594068
O   O116      1.0  0.42017  0.41041  0.38056  1.0000 -0.1809594068
O   O117      1.0  0.02042  0.18359  0.14155  1.0000 -0.1809594068
O   O118      1.0  0.47958  0.81641  0.64155  1.0000 -0.1809594068
O   O119      1.0  0.52042  0.31641  0.85845  1.0000 -0.1809594068
O   O120      1.0  0.97958  0.68359  0.35845  1.0000 -0.1809594068
O   O121      1.0  0.88140  0.43220  0.18879  1.0000 -0.5317412315
O   O122      1.0  0.61860  0.56780  0.68879  1.0000 -0.5317412315
O   O123      1.0  0.38140  0.06780  0.81121  1.0000 -0.5317412315
O   O124      1.0  0.11860  0.93220  0.31121  1.0000 -0.5317412315
O   O125      1.0  0.82882  0.50437  0.16622  1.0000 -0.4974852177
O   O126      1.0  0.67118  0.49563  0.66622  1.0000 -0.4974852177
O   O127      1.0  0.32882  0.99563  0.83378  1.0000 -0.4974852177
O   O128      1.0  0.17118  0.00437  0.33378  1.0000 -0.4974852177
O   O129      1.0  0.85602  0.45225  0.01248  1.0000 -0.5379253251
O   O130      1.0  0.64398  0.54775  0.51248  1.0000 -0.5379253251
O   O131      1.0  0.35602  0.04775  0.98752  1.0000 -0.5379253251
O   O132      1.0  0.14398  0.95225  0.48752  1.0000 -0.5379253251
O   O133      1.0  0.80570  0.51330  0.04504  1.0000 -0.5317412315
O   O134      1.0  0.69430  0.48670  0.54504  1.0000 -0.5317412315
O   O135      1.0  0.30570  0.98670  0.95496  1.0000 -0.5317412315
O   O136      1.0  0.19430  0.01330  0.45496  1.0000 -0.5317412315
O   O137      1.0  0.32276  0.93343  0.03151  1.0000 -0.578309531
O   O138      1.0  0.17724  0.06657  0.53151  1.0000 -0.5858865652
O   O139      1.0  0.82276  0.56657  0.96849  1.0000 -0.5858865652
O   O140      1.0  0.67724  0.43343  0.46849  1.0000 -0.5858865652
O   O141      1.0  0.27337  0.87261  0.99604  1.0000 -0.5086466718
O   O142      1.0  0.22663  0.12739  0.49604  1.0000 -0.5086466718
O   O143      1.0  0.77337  0.62739  0.00396  1.0000 -0.5086466718
O   O144      1.0  0.72663  0.37261  0.50396  1.0000 -0.5086466718
O   O145      1.0  0.22279  0.03830  0.01561  1.0000 -0.5481324765
O   O146      1.0  0.27721  0.96170  0.51561  1.0000 -0.5481324765
O   O147      1.0  0.72279  0.46170  0.98439  1.0000 -0.5481324765
O   O148      1.0  0.77721  0.53830  0.48439  1.0000 -0.5481324765
O   O149      1.0  0.16957  0.97599  0.98394  1.0000 -0.5230392489
O   O150      1.0  0.33043  0.02401  0.48394  1.0000 -0.5230392489
O   O151      1.0  0.66957  0.52401  0.01606  1.0000 -0.5230392489
O   O152      1.0  0.83043  0.47599  0.51606  1.0000 -0.5230392489
O   O153      1.0  0.73240  0.58020  0.08379  1.0000 -0.4658073458
O   O154      1.0  0.76760  0.41980  0.58379  1.0000 -0.4658073458
O   O155      1.0  0.23240  0.91980  0.91621  1.0000 -0.4658073458
O   O156      1.0  0.26760  0.08020  0.41621  1.0000 -0.4658073458
O   O157      1.0  0.67420  0.64200  0.06135  1.0000 -0.4015730518
O   O158      1.0  0.82580  0.35800  0.56135  1.0000 -0.4015730518
O   O159      1.0  0.17420  0.85800  0.93865  1.0000 -0.4015730518
O   O160      1.0  0.32580  0.14200  0.43865  1.0000 -0.4015730518
O   O161      1.0  0.08507  0.18427  0.06293  1.0000 -0.2117958424
O   O162      1.0  0.41493  0.81573  0.56293  1.0000 -0.2117958424
O   O163      1.0  0.58507  0.31573  0.93707  1.0000 -0.2117958424
O   O164      1.0  0.91493  0.68427  0.43707  1.0000 -0.2117958424
O   O165      1.0  0.98893  0.33509  0.08876  1.0000 -0.1897883687
O   O166      1.0  0.51107  0.66491  0.58876  1.0000 -0.1897883687
O   O167      1.0  0.48893  0.16491  0.91124  1.0000 -0.1897883687
O   O168      1.0  0.01107  0.83509  0.41124  1.0000 -0.1897883687
