# DDEC6 charges by PACMAN v1.1 (https://github.com/mtap-research/PACMAN-charge/)
data_2012[La][hex]3[ASR]1
_chemical_formula_sum              "La6 P6 H90 C74 N6 O46"
_cell_length_a       15.2688
_cell_length_b       15.3552
_cell_length_c       15.403
_cell_angle_alpha    106.787
_cell_angle_beta     117.059
_cell_angle_gamma    103.195

_symmetry_space_group_name_H-M    "P 1"
_symmetry_Int_Tables_number       1

loop_
  _symmetry_equiv_pos_as_xyz
  'x, y, z'

loop_
  _atom_site_type_symbol
  _atom_site_label
  _atom_site_symmetry_multiplicity
  _atom_site_fract_x
  _atom_site_fract_y
  _atom_site_fract_z
  _atom_site_occupancy
  _atom_site_charge
La  La1       1.0  0.05702  0.19746  0.36576  1.0000 1.9076868096
La  La2       1.0  0.94298  0.80254  0.63424  1.0000 1.9076868096
La  La3       1.0  0.32161  0.18393  0.61665  1.0000 1.8819222251
La  La4       1.0  0.67839  0.81607  0.38335  1.0000 1.8819222251
La  La5       1.0  0.08488  0.85361  0.43676  1.0000 2.0039231578
La  La6       1.0  0.91512  0.14639  0.56324  1.0000 2.0039231578
P   P1        1.0  0.12590  0.01680  0.30900  1.0000 1.3022078673
P   P2        1.0  0.87410  0.98320  0.69100  1.0000 1.3022078673
P   P3        1.0  0.19670  0.30660  0.67560  1.0000 1.2847709457
P   P4        1.0  0.80330  0.69340  0.32440  1.0000 1.2854298154
P   P5        1.0  0.88250  0.97490  0.35610  1.0000 1.3451475898
P   P6        1.0  0.11750  0.02510  0.64390  1.0000 1.3451475898
H   H1        1.0  0.70670  0.47530  0.82330  1.0000 0.3615466753
H   H2        1.0  0.29330  0.52470  0.17670  1.0000 0.3615466753
H   H3        1.0  0.33760  0.05490  0.39140  1.0000 0.2772760192
H   H4        1.0  0.66240  0.94510  0.60860  1.0000 0.2772760192
H   H5        1.0  0.15870  0.43780  0.59580  1.0000 0.2772760192
H   H6        1.0  0.84130  0.56220  0.40420  1.0000 0.2772760192
H   H7        1.0  0.74580  0.78590  0.17940  1.0000 0.2772760192
H   H8        1.0  0.25420  0.21410  0.82060  1.0000 0.2772760192
H   H9        1.0  0.17280  0.98990  0.18340  1.0000 0.1599374313
H   H10       1.0  0.82720  0.01010  0.81660  1.0000 0.1599374313
H   H11       1.0  0.22210  0.10510  0.25820  1.0000 0.1697043577
H   H12       1.0  0.77790  0.89490  0.74180  1.0000 0.1697043577
H   H13       1.0  0.40490  0.18290  0.36310  1.0000 0.1291318052
H   H14       1.0  0.59510  0.81710  0.63690  1.0000 0.1291318052
H   H15       1.0  0.38910  0.10440  0.25940  1.0000 0.1113930775
H   H16       1.0  0.61090  0.89560  0.74060  1.0000 0.1113930775
H   H17       1.0  0.57060  0.17270  0.40500  1.0000 0.1199120556
H   H18       1.0  0.42940  0.82730  0.59500  1.0000 0.1199120556
H   H19       1.0  0.53600  0.14310  0.47770  1.0000 0.1291318052
H   H20       1.0  0.46400  0.85690  0.52230  1.0000 0.1291318052
H   H21       1.0  0.50850  0.00710  0.28960  1.0000 0.1113930775
H   H22       1.0  0.49150  0.99290  0.71040  1.0000 0.1113930775
H   H23       1.0  0.42510  0.87450  0.30850  1.0000 0.1199120556
H   H24       1.0  0.57490  0.12550  0.69150  1.0000 0.1199120556
H   H25       1.0  0.44180  0.94760  0.41540  1.0000 0.1113930775
H   H26       1.0  0.55820  0.05240  0.58460  1.0000 0.1113930775
H   H27       1.0  0.29830  0.92030  0.20260  1.0000 0.1113930775
H   H28       1.0  0.70170  0.07970  0.79740  1.0000 0.1113930775
H   H29       1.0  0.26370  0.89040  0.27520  1.0000 0.1291318052
H   H30       1.0  0.73630  0.10960  0.72480  1.0000 0.1291318052
H   H31       1.0  0.29930  0.47560  0.80360  1.0000 0.1599374313
H   H32       1.0  0.70070  0.52440  0.19640  1.0000 0.1599374313
H   H33       1.0  0.33910  0.44960  0.72580  1.0000 0.1697043577
H   H34       1.0  0.66090  0.55040  0.27420  1.0000 0.1697043577
H   H35       1.0  0.21510  0.58150  0.79130  1.0000 0.1113930775
H   H36       1.0  0.78490  0.41850  0.20870  1.0000 0.1113930775
H   H37       1.0  0.11230  0.47860  0.71930  1.0000 0.1291318052
H   H38       1.0  0.88770  0.52140  0.28070  1.0000 0.1291318052
H   H39       1.0  0.03080  0.52460  0.58310  1.0000 0.1113930775
H   H40       1.0  0.96920  0.47540  0.41690  1.0000 0.1113930775
H   H41       1.0  0.06740  0.61140  0.69310  1.0000 0.1199120556
H   H42       1.0  0.93260  0.38860  0.30690  1.0000 0.1199120556
H   H43       1.0  0.21420  0.70760  0.70650  1.0000 0.1113930775
H   H44       1.0  0.78580  0.29240  0.29350  1.0000 0.1113930775
H   H45       1.0  0.16110  0.55460  0.51260  1.0000 0.1199120556
H   H46       1.0  0.83890  0.44540  0.48740  1.0000 0.1199120556
H   H47       1.0  0.26200  0.65910  0.58440  1.0000 0.1199120556
H   H48       1.0  0.73800  0.34090  0.41560  1.0000 0.1199120556
H   H49       1.0  0.31500  0.53520  0.62320  1.0000 0.1291318052
H   H50       1.0  0.68500  0.46480  0.37680  1.0000 0.1291318052
H   H51       1.0  0.33730  0.61770  0.72850  1.0000 0.1113930775
H   H52       1.0  0.66270  0.38230  0.27150  1.0000 0.1113930775
H   H53       1.0  0.72420  0.93840  0.19380  1.0000 0.1697043577
H   H54       1.0  0.27580  0.06160  0.80620  1.0000 0.1697043577
H   H55       1.0  0.82240  0.96460  0.18250  1.0000 0.1599374313
H   H56       1.0  0.17760  0.03540  0.81750  1.0000 0.1599374313
H   H57       1.0  0.90430  0.83350  0.18510  1.0000 0.1291318052
H   H58       1.0  0.09570  0.16650  0.81490  1.0000 0.1291318052
H   H59       1.0  0.83540  0.82790  0.06920  1.0000 0.1199120556
H   H60       1.0  0.16460  0.17210  0.93080  1.0000 0.1199120556
H   H61       1.0  0.80710  0.66290  0.11550  1.0000 0.1291318052
H   H62       1.0  0.19290  0.33710  0.88450  1.0000 0.1291318052
H   H63       1.0  0.85680  0.68020  0.04910  1.0000 0.1199120556
H   H64       1.0  0.14320  0.31980  0.95090  1.0000 0.1199120556
H   H65       1.0  0.69090  0.65500  0.90500  1.0000 0.0936209509
H   H66       1.0  0.30910  0.34500  0.09500  1.0000 0.0936209509
H   H67       1.0  0.59580  0.62850  0.02100  1.0000 0.1291318052
H   H68       1.0  0.40420  0.37150  0.97900  1.0000 0.1291318052
H   H69       1.0  0.53790  0.62960  0.90740  1.0000 0.1113930775
H   H70       1.0  0.46210  0.37040  0.09260  1.0000 0.1113930775
H   H71       1.0  0.65100  0.80280  0.98980  1.0000 0.1113930775
H   H72       1.0  0.34900  0.19720  0.01020  1.0000 0.1113930775
H   H73       1.0  0.59270  0.78750  0.04950  1.0000 0.1199120556
H   H74       1.0  0.40730  0.21250  0.95050  1.0000 0.1199120556
H   H75       1.0  0.72200  0.31700  0.93780  1.0000 0.1291318052
H   H76       1.0  0.27800  0.68300  0.06220  1.0000 0.1291318052
H   H77       1.0  0.86490  0.31230  0.07680  1.0000 0.1291318052
H   H78       1.0  0.13510  0.68770  0.92320  1.0000 0.1291318052
H   H79       1.0  0.65810  0.08530  0.05960  1.0000 0.1291318052
H   H80       1.0  0.34190  0.91470  0.94040  1.0000 0.1291318052
H   H81       1.0  0.51430  0.08420  0.91290  1.0000 0.1199120556
H   H82       1.0  0.48570  0.91580  0.08710  1.0000 0.1199120556
H   H83       1.0  0.49140  0.46480  0.32880  1.0000 0.1199120556
H   H84       1.0  0.50860  0.53520  0.67120  1.0000 0.1199120556
H   H85       1.0  0.36890  0.34330  0.32690  1.0000 0.1199120556
H   H86       1.0  0.63110  0.65670  0.67310  1.0000 0.1199120556
H   H87       1.0  0.27130  0.54240  0.43930  1.0000 0.1113930775
H   H88       1.0  0.72870  0.45760  0.56070  1.0000 0.1113930775
H   H89       1.0  0.39630  0.66780  0.44730  1.0000 0.1199120556
H   H90       1.0  0.60370  0.33220  0.55270  1.0000 0.1199120556
C   C1        1.0  0.21120  0.04050  0.25850  1.0000 -0.4267121753
C   C2        1.0  0.78880  0.95950  0.74150  1.0000 -0.4267121753
C   C3        1.0  0.40500  0.11830  0.33190  1.0000 -0.0996613162
C   C4        1.0  0.59500  0.88170  0.66810  1.0000 -0.0996613162
C   C5        1.0  0.51730  0.12270  0.40350  1.0000 -0.2134493193
C   C6        1.0  0.48270  0.87730  0.59650  1.0000 -0.2134493193
C   C7        1.0  0.52100  0.02220  0.36170  1.0000 -0.1198222585
C   C8        1.0  0.47900  0.97780  0.63830  1.0000 -0.1198222585
C   C9        1.0  0.42750  0.93910  0.34460  1.0000 -0.2184681123
C   C10       1.0  0.57250  0.06090  0.65540  1.0000 -0.2184681123
C   C11       1.0  0.31830  0.93940  0.27710  1.0000 -0.0996613162
C   C12       1.0  0.68170  0.06060  0.72290  1.0000 -0.0996613162
C   C13       1.0  0.63080  0.02470  0.43320  1.0000 0.606729726
C   C14       1.0  0.36920  0.97530  0.56680  1.0000 0.606729726
C   C15       1.0  0.27520  0.44060  0.72790  1.0000 -0.44378378
C   C16       1.0  0.72480  0.55940  0.27210  1.0000 -0.44378378
C   C17       1.0  0.15940  0.53080  0.71680  1.0000 -0.0996613162
C   C18       1.0  0.84060  0.46920  0.28320  1.0000 -0.0996613162
C   C19       1.0  0.09350  0.57760  0.65320  1.0000 -0.2184681123
C   C20       1.0  0.90650  0.42240  0.34680  1.0000 -0.2184681123
C   C21       1.0  0.15720  0.65120  0.63440  1.0000 -0.1198222585
C   C22       1.0  0.84280  0.34880  0.36560  1.0000 -0.1198222585
C   C23       1.0  0.21450  0.60720  0.58680  1.0000 -0.2134493193
C   C24       1.0  0.78550  0.39280  0.41320  1.0000 -0.2134493193
C   C25       1.0  0.28060  0.56420  0.65580  1.0000 -0.0996613162
C   C26       1.0  0.71940  0.43580  0.34420  1.0000 -0.0996613162
C   C27       1.0  0.09000  0.69470  0.56580  1.0000 0.606729726
C   C28       1.0  0.91000  0.30530  0.43420  1.0000 0.606729726
C   C29       1.0  0.78790  0.92640  0.20730  1.0000 -0.4218048727
C   C30       1.0  0.21210  0.07360  0.79270  1.0000 -0.4218048727
C   C31       1.0  0.83290  0.79980  0.11740  1.0000 -0.0830635851
C   C32       1.0  0.16710  0.20020  0.88260  1.0000 -0.0830635851
C   C33       1.0  0.80410  0.68990  0.06500  1.0000 -0.2001801332
C   C34       1.0  0.19590  0.31010  0.93500  1.0000 -0.2001801332
C   C35       1.0  0.68890  0.63230  0.95770  1.0000 -0.1274465801
C   C36       1.0  0.31110  0.36770  0.04230  1.0000 -0.1274465801
C   C37       1.0  0.60680  0.65810  0.97700  1.0000 -0.2001801332
C   C38       1.0  0.39320  0.34190  0.02300  1.0000 -0.2001801332
C   C39       1.0  0.64530  0.77340  0.03600  1.0000 -0.0863224802
C   C40       1.0  0.35470  0.22660  0.96400  1.0000 -0.0863224802
C   C41       1.0  0.66060  0.52030  0.91030  1.0000 0.5589107076
C   C42       1.0  0.33940  0.47970  0.08970  1.0000 0.5589107076
C   C43       1.0  0.50930  0.20760  0.82380  1.0000 0.5304928819
C   C44       1.0  0.49070  0.79240  0.17620  1.0000 0.5304928819
C   C45       1.0  0.60300  0.20660  0.91550  1.0000 -0.0221570948
C   C46       1.0  0.39700  0.79340  0.08450  1.0000 -0.0221570948
C   C47       1.0  0.70830  0.27000  0.96220  1.0000 -0.0996613162
C   C48       1.0  0.29170  0.73000  0.03780  1.0000 -0.0996613162
C   C49       1.0  0.79450  0.26610  0.04410  1.0000 -0.1198222585
C   C50       1.0  0.20550  0.73390  0.95590  1.0000 -0.1198222585
C   C51       1.0  0.77650  0.19410  0.07760  1.0000 -0.0124565348
C   C52       1.0  0.22350  0.80590  0.92240  1.0000 -0.0124565348
C   C53       1.0  0.67120  0.13020  0.03270  1.0000 -0.1198222585
C   C54       1.0  0.32880  0.86980  0.96730  1.0000 -0.1198222585
C   C55       1.0  0.58430  0.13220  0.94790  1.0000 -0.1274465801
C   C56       1.0  0.41570  0.86780  0.05210  1.0000 -0.1274465801
C   C57       1.0  0.87100  0.18950  0.16900  1.0000 0.5304928819
C   C58       1.0  0.12900  0.81050  0.83100  1.0000 0.5304928819
C   C59       1.0  0.54110  0.66300  0.39980  1.0000 0.5429106752
C   C60       1.0  0.45890  0.33700  0.60020  1.0000 0.5429106752
C   C61       1.0  0.46180  0.58210  0.39510  1.0000 -0.0318108288
C   C62       1.0  0.53820  0.41790  0.60490  1.0000 -0.0318108288
C   C63       1.0  0.44930  0.48140  0.35360  1.0000 -0.1274465801
C   C64       1.0  0.55070  0.51860  0.64640  1.0000 -0.1274465801
C   C65       1.0  0.37380  0.40820  0.35040  1.0000 -0.0996613162
C   C66       1.0  0.62620  0.59180  0.64960  1.0000 -0.0996613162
C   C67       1.0  0.30620  0.42790  0.38050  1.0000 -0.0318108288
C   C68       1.0  0.69380  0.57210  0.61950  1.0000 -0.0318108288
C   C69       1.0  0.31630  0.52730  0.41810  1.0000 -0.1127723804
C   C70       1.0  0.68370  0.47270  0.58190  1.0000 -0.1127723804
C   C71       1.0  0.39210  0.60300  0.42400  1.0000 -0.1274465801
C   C72       1.0  0.60790  0.39700  0.57600  1.0000 -0.1274465801
C   C73       1.0  0.22620  0.35020  0.37770  1.0000 0.5589107076
C   C74       1.0  0.77380  0.64980  0.62230  1.0000 0.5589107076
N   N1        1.0  0.32100  0.04030  0.32330  1.0000 0.0417955589
N   N2        1.0  0.67900  0.95970  0.67670  1.0000 0.0417955589
N   N3        1.0  0.21160  0.48650  0.66380  1.0000 0.0417955589
N   N4        1.0  0.78840  0.51350  0.33620  1.0000 0.0417955589
N   N5        1.0  0.75200  0.81830  0.14080  1.0000 0.0216816502
N   N6        1.0  0.24800  0.18170  0.85920  1.0000 0.0216816502
O   O1        1.0  0.02360  0.02530  0.23380  1.0000 -0.7989674708
O   O2        1.0  0.97640  0.97470  0.76620  1.0000 -0.7989674708
O   O3        1.0  0.18670  0.10830  0.42150  1.0000 -0.8692641954
O   O4        1.0  0.81330  0.89170  0.57850  1.0000 -0.8692641954
O   O5        1.0  0.11380  0.91900  0.31500  1.0000 -0.8411705991
O   O6        1.0  0.88620  0.08100  0.68500  1.0000 -0.8411705991
O   O7        1.0  0.71250  0.09670  0.46120  1.0000 -0.6241467794
O   O8        1.0  0.28750  0.90330  0.53880  1.0000 -0.6241467794
O   O9        1.0  0.63530  0.95530  0.46080  1.0000 -0.6303714713
O   O10       1.0  0.36470  0.04470  0.53920  1.0000 -0.6303714713
O   O11       1.0  0.27920  0.27770  0.74980  1.0000 -0.8065403303
O   O12       1.0  0.72080  0.72230  0.25020  1.0000 -0.8065403303
O   O13       1.0  0.17530  0.25600  0.56240  1.0000 -0.8577250441
O   O14       1.0  0.82470  0.74400  0.43760  1.0000 -0.8577250441
O   O15       1.0  0.09690  0.29260  0.67720  1.0000 -0.8411705991
O   O16       1.0  0.90310  0.70740  0.32280  1.0000 -0.8411705991
O   O17       1.0  0.13040  0.74320  0.53110  1.0000 -0.60997202
O   O18       1.0  0.86960  0.25680  0.46890  1.0000 -0.60997202
O   O19       1.0  0.99660  0.67810  0.54950  1.0000 -0.6410131058
O   O20       1.0  0.00340  0.32190  0.45050  1.0000 -0.6410131058
O   O21       1.0  0.94290  0.08890  0.40260  1.0000 -0.8692641954
O   O22       1.0  0.05710  0.91110  0.59740  1.0000 -0.8692641954
O   O23       1.0  0.95310  0.91970  0.37120  1.0000 -0.8345177373
O   O24       1.0  0.04690  0.08030  0.62880  1.0000 -0.8345177373
O   O25       1.0  0.81780  0.96090  0.40720  1.0000 -0.8692641954
O   O26       1.0  0.18220  0.03910  0.59280  1.0000 -0.8692641954
O   O27       1.0  0.72340  0.49280  0.88830  1.0000 -0.4218048727
O   O28       1.0  0.27660  0.50720  0.11170  1.0000 -0.4218048727
O   O29       1.0  0.58020  0.46810  0.89700  1.0000 -0.4743015816
O   O30       1.0  0.41980  0.53190  0.10300  1.0000 -0.4743015816
O   O31       1.0  0.52510  0.27210  0.79200  1.0000 -0.5540485283
O   O32       1.0  0.47490  0.72790  0.20800  1.0000 -0.5540485283
O   O33       1.0  0.41660  0.14070  0.77550  1.0000 -0.5698094269
O   O34       1.0  0.58340  0.85930  0.22450  1.0000 -0.5698094269
O   O35       1.0  0.96390  0.23450  0.19560  1.0000 -0.5615529021
O   O36       1.0  0.03610  0.76550  0.80440  1.0000 -0.5615529021
O   O37       1.0  0.85160  0.14080  0.21660  1.0000 -0.5928549767
O   O38       1.0  0.14840  0.85920  0.78340  1.0000 -0.5928549767
O   O39       1.0  0.59300  0.63880  0.35930  1.0000 -0.5928549767
O   O40       1.0  0.40700  0.36120  0.64070  1.0000 -0.5928549767
O   O41       1.0  0.55610  0.75070  0.44420  1.0000 -0.5698094269
O   O42       1.0  0.44390  0.24930  0.55580  1.0000 -0.5698094269
O   O43       1.0  0.20200  0.25880  0.32430  1.0000 -0.5928549767
O   O44       1.0  0.79800  0.74120  0.67570  1.0000 -0.5928549767
O   O45       1.0  0.18390  0.37540  0.42780  1.0000 -0.5798651775
O   O46       1.0  0.81610  0.62460  0.57220  1.0000 -0.5798651775
