# DDEC6 charges by PACMAN v1.1 (https://github.com/mtap-research/PACMAN-charge/)
data_2012[Al][bpq]3[ASR]1
_chemical_formula_sum              "Al4 H20 C32 N4 O20"
_cell_length_a       20.538
_cell_length_b       7.7998
_cell_length_c       6.608
_cell_angle_alpha    90
_cell_angle_beta     112.35
_cell_angle_gamma    90

_symmetry_space_group_name_H-M    "P 1"
_symmetry_Int_Tables_number       1

loop_
  _symmetry_equiv_pos_as_xyz
  'x, y, z'

loop_
  _atom_site_type_symbol
  _atom_site_label
  _atom_site_symmetry_multiplicity
  _atom_site_fract_x
  _atom_site_fract_y
  _atom_site_fract_z
  _atom_site_occupancy
  _atom_site_charge
Al  Al1       1.0  0.00471  0.00856  0.02763  1.0000 1.6355265477
Al  Al2       1.0  0.00471  0.99144  0.52763  1.0000 1.6355265477
Al  Al3       1.0  0.50471  0.50856  0.02763  1.0000 1.6355265477
Al  Al4       1.0  0.50471  0.49144  0.52763  1.0000 1.6336250403
H   H1        1.0  0.30382  0.66476  0.23415  1.0000 0.127565973
H   H2        1.0  0.30382  0.33524  0.73415  1.0000 0.127565973
H   H3        1.0  0.80382  0.16476  0.23415  1.0000 0.127565973
H   H4        1.0  0.80382  0.83524  0.73415  1.0000 0.127565973
H   H5        1.0  0.33656  0.77551  0.90192  1.0000 0.127565973
H   H6        1.0  0.33656  0.22449  0.40192  1.0000 0.127565973
H   H7        1.0  0.83656  0.27551  0.90192  1.0000 0.127565973
H   H8        1.0  0.83656  0.72449  0.40192  1.0000 0.127565973
H   H9        1.0  0.20397  0.81904  0.79014  1.0000 0.1016519875
H   H10       1.0  0.20397  0.18096  0.29014  1.0000 0.1016519875
H   H11       1.0  0.70397  0.31904  0.79014  1.0000 0.1016519875
H   H12       1.0  0.70397  0.68096  0.29014  1.0000 0.1016519875
H   H13       1.0  0.11033  0.73951  0.03179  1.0000 0.3283273378
H   H14       1.0  0.11033  0.26049  0.53179  1.0000 0.3283273378
H   H15       1.0  0.61033  0.23951  0.03179  1.0000 0.3283273378
H   H16       1.0  0.61033  0.76049  0.53179  1.0000 0.3283273378
H   H17       1.0  0.18315  0.67469  0.95904  1.0000 0.2999024042
H   H18       1.0  0.18315  0.32531  0.45904  1.0000 0.2999024042
H   H19       1.0  0.68315  0.17469  0.95904  1.0000 0.2999024042
H   H20       1.0  0.68315  0.82531  0.45904  1.0000 0.2999024042
C   C1        1.0  0.18013  0.76432  0.45469  1.0000 -0.159755805
C   C2        1.0  0.18013  0.23568  0.95469  1.0000 -0.159755805
C   C3        1.0  0.68013  0.26432  0.45469  1.0000 -0.159755805
C   C4        1.0  0.68013  0.73568  0.95469  1.0000 -0.159755805
C   C5        1.0  0.20681  0.72347  0.28800  1.0000 0.3227342316
C   C6        1.0  0.20681  0.27653  0.78800  1.0000 0.3227342316
C   C7        1.0  0.70681  0.22347  0.28800  1.0000 0.3227342316
C   C8        1.0  0.70681  0.77653  0.78800  1.0000 0.3227342316
C   C9        1.0  0.28082  0.69691  0.35416  1.0000 -0.2229742831
C   C10       1.0  0.28082  0.30309  0.85416  1.0000 -0.2229742831
C   C11       1.0  0.78082  0.19691  0.35416  1.0000 -0.2229742831
C   C12       1.0  0.78082  0.80309  0.85416  1.0000 -0.2229742831
C   C13       1.0  0.32551  0.71324  0.57331  1.0000 0.0002444242
C   C14       1.0  0.32551  0.28676  0.07331  1.0000 0.0002444242
C   C15       1.0  0.82551  0.21324  0.57331  1.0000 -0.0010453537
C   C16       1.0  0.82551  0.78676  0.07331  1.0000 -0.0010453537
C   C17       1.0  0.29920  0.75737  0.73412  1.0000 -0.1389235309
C   C18       1.0  0.29920  0.24263  0.23412  1.0000 -0.1389235309
C   C19       1.0  0.79920  0.25737  0.73412  1.0000 -0.1389235309
C   C20       1.0  0.79920  0.74263  0.23412  1.0000 -0.1389235309
C   C21       1.0  0.22694  0.77935  0.67144  1.0000 -0.0689801848
C   C22       1.0  0.22694  0.22065  0.17144  1.0000 -0.0689801848
C   C23       1.0  0.72694  0.27935  0.67144  1.0000 -0.0689801848
C   C24       1.0  0.72694  0.72065  0.17144  1.0000 -0.0689801848
C   C25       1.0  0.10565  0.81386  0.40026  1.0000 0.6378587582
C   C26       1.0  0.10565  0.18614  0.90026  1.0000 0.6378587582
C   C27       1.0  0.60565  0.31386  0.40026  1.0000 0.6378587582
C   C28       1.0  0.60565  0.68614  0.90026  1.0000 0.6378587582
C   C29       1.0  0.40238  0.67065  0.64386  1.0000 0.6296649971
C   C30       1.0  0.40238  0.32935  0.14386  1.0000 0.6296649971
C   C31       1.0  0.90238  0.17065  0.64386  1.0000 0.6296649971
C   C32       1.0  0.90238  0.82935  0.14386  1.0000 0.6296649971
N   N1        1.0  0.16352  0.70997  0.07512  1.0000 -0.5317482791
N   N2        1.0  0.16352  0.29003  0.57512  1.0000 -0.5317482791
N   N3        1.0  0.66352  0.20997  0.07512  1.0000 -0.5317482791
N   N4        1.0  0.66352  0.79003  0.57512  1.0000 -0.5317482791
O   O1        1.0  0.06492  0.81305  0.19822  1.0000 -0.5364517869
O   O2        1.0  0.06492  0.18695  0.69822  1.0000 -0.5364517869
O   O3        1.0  0.56492  0.31305  0.19822  1.0000 -0.5317482791
O   O4        1.0  0.56492  0.68695  0.69822  1.0000 -0.5317482791
O   O5        1.0  0.08958  0.85983  0.56088  1.0000 -0.5317482791
O   O6        1.0  0.08958  0.14017  0.06088  1.0000 -0.5317482791
O   O7        1.0  0.58958  0.35983  0.56088  1.0000 -0.5317482791
O   O8        1.0  0.58958  0.64017  0.06088  1.0000 -0.5317482791
O   O9        1.0  0.42069  0.61745  0.49116  1.0000 -0.5364517869
O   O10       1.0  0.42069  0.38255  0.99116  1.0000 -0.5364517869
O   O11       1.0  0.92069  0.11745  0.49116  1.0000 -0.5364517869
O   O12       1.0  0.92069  0.88255  0.99116  1.0000 -0.5364517869
O   O13       1.0  0.44040  0.68450  0.84724  1.0000 -0.5472997776
O   O14       1.0  0.44040  0.31550  0.34724  1.0000 -0.5472997776
O   O15       1.0  0.94040  0.18450  0.84724  1.0000 -0.5472997776
O   O16       1.0  0.94040  0.81550  0.34724  1.0000 -0.5472997776
O   O17       1.0  0.01355  0.90948  0.79192  1.0000 -0.9322160385
O   O18       1.0  0.01355  0.09052  0.29192  1.0000 -0.9322160385
O   O19       1.0  0.51355  0.40948  0.79192  1.0000 -0.9436647794
O   O20       1.0  0.51355  0.59052  0.29192  1.0000 -0.9436647794
