# DDEC6 charges by PACMAN v1.1 (https://github.com/mtap-research/PACMAN-charge/)
data_2012[Co][pcu]3[ASR]2
_chemical_formula_sum              "Co4 H96 C104 N28"
_cell_length_a       18.5114
_cell_length_b       20.0115
_cell_length_c       8.7093
_cell_angle_alpha    90
_cell_angle_beta     100.555
_cell_angle_gamma    90

_symmetry_space_group_name_H-M    "P 1"
_symmetry_Int_Tables_number       1

loop_
  _symmetry_equiv_pos_as_xyz
  'x, y, z'

loop_
  _atom_site_type_symbol
  _atom_site_label
  _atom_site_symmetry_multiplicity
  _atom_site_fract_x
  _atom_site_fract_y
  _atom_site_fract_z
  _atom_site_occupancy
  _atom_site_charge
Co  Co1       1.0  0.00000  0.17080  0.75000  1.0000 0.6220506721
Co  Co2       1.0  0.00000  0.82920  0.25000  1.0000 0.6220506721
Co  Co3       1.0  0.50000  0.67080  0.75000  1.0000 0.6220506721
Co  Co4       1.0  0.50000  0.32920  0.25000  1.0000 0.6220506721
H   H1        1.0  0.12610  0.22791  0.00325  1.0000 0.0819964909
H   H2        1.0  0.87390  0.77209  0.99675  1.0000 0.0819964909
H   H3        1.0  0.87390  0.22791  0.49675  1.0000 0.0819964909
H   H4        1.0  0.12610  0.77209  0.50325  1.0000 0.0819964909
H   H5        1.0  0.62610  0.72791  0.00325  1.0000 0.0819964909
H   H6        1.0  0.37390  0.27209  0.99675  1.0000 0.0819964909
H   H7        1.0  0.37390  0.72791  0.49675  1.0000 0.0819964909
H   H8        1.0  0.62610  0.27209  0.50325  1.0000 0.0819964909
H   H9        1.0  0.03694  0.28680  0.55180  1.0000 0.0819964909
H   H10       1.0  0.96306  0.71320  0.44820  1.0000 0.0819964909
H   H11       1.0  0.96306  0.28680  0.94820  1.0000 0.0819964909
H   H12       1.0  0.03694  0.71320  0.05180  1.0000 0.0819964909
H   H13       1.0  0.53694  0.78680  0.55180  1.0000 0.0819964909
H   H14       1.0  0.46306  0.21320  0.44820  1.0000 0.0819964909
H   H15       1.0  0.46306  0.78680  0.94820  1.0000 0.0819964909
H   H16       1.0  0.53694  0.21320  0.05180  1.0000 0.0819964909
H   H17       1.0  0.22172  0.31917  0.03093  1.0000 0.1016906381
H   H18       1.0  0.77828  0.68083  0.96907  1.0000 0.1016906381
H   H19       1.0  0.77828  0.31917  0.46907  1.0000 0.1016906381
H   H20       1.0  0.22172  0.68083  0.53093  1.0000 0.1016906381
H   H21       1.0  0.72172  0.81917  0.03093  1.0000 0.1016906381
H   H22       1.0  0.27828  0.18083  0.96907  1.0000 0.1016906381
H   H23       1.0  0.27828  0.81917  0.46907  1.0000 0.1016906381
H   H24       1.0  0.72172  0.18083  0.53093  1.0000 0.1016906381
H   H25       1.0  0.84571  0.16000  0.82759  1.0000 0.0819964909
H   H26       1.0  0.15429  0.84000  0.17241  1.0000 0.0819964909
H   H27       1.0  0.15429  0.16000  0.67241  1.0000 0.0819964909
H   H28       1.0  0.84571  0.84000  0.32759  1.0000 0.0819964909
H   H29       1.0  0.34571  0.66000  0.82759  1.0000 0.0819964909
H   H30       1.0  0.65429  0.34000  0.17241  1.0000 0.0819964909
H   H31       1.0  0.65429  0.66000  0.67241  1.0000 0.0819964909
H   H32       1.0  0.34571  0.34000  0.32759  1.0000 0.0819964909
H   H33       1.0  0.12749  0.37940  0.55726  1.0000 0.1068965516
H   H34       1.0  0.87251  0.62060  0.44274  1.0000 0.1068965516
H   H35       1.0  0.87251  0.37940  0.94274  1.0000 0.1068965516
H   H36       1.0  0.12749  0.62060  0.05726  1.0000 0.1068965516
H   H37       1.0  0.62749  0.87940  0.55726  1.0000 0.1068965516
H   H38       1.0  0.37251  0.12060  0.44274  1.0000 0.1068965516
H   H39       1.0  0.37251  0.87940  0.94274  1.0000 0.1068965516
H   H40       1.0  0.62749  0.12060  0.05726  1.0000 0.1068965516
H   H41       1.0  0.97068  0.03652  0.59391  1.0000 0.0819964909
H   H42       1.0  0.02932  0.96348  0.40609  1.0000 0.0819964909
H   H43       1.0  0.02932  0.03652  0.90609  1.0000 0.0819964909
H   H44       1.0  0.97068  0.96348  0.09391  1.0000 0.0819964909
H   H45       1.0  0.47068  0.53652  0.59391  1.0000 0.0819964909
H   H46       1.0  0.52932  0.46348  0.40609  1.0000 0.0819964909
H   H47       1.0  0.52932  0.53652  0.90609  1.0000 0.0819964909
H   H48       1.0  0.47068  0.46348  0.09391  1.0000 0.0819964909
H   H49       1.0  0.87768  0.94488  0.57286  1.0000 0.1068965516
H   H50       1.0  0.12232  0.05512  0.42714  1.0000 0.1068965516
H   H51       1.0  0.12232  0.94488  0.92714  1.0000 0.1068965516
H   H52       1.0  0.87768  0.05512  0.07286  1.0000 0.1068965516
H   H53       1.0  0.37768  0.44488  0.57286  1.0000 0.1068965516
H   H54       1.0  0.62232  0.55512  0.42714  1.0000 0.1068965516
H   H55       1.0  0.62232  0.44488  0.92714  1.0000 0.1068965516
H   H56       1.0  0.37768  0.55512  0.07286  1.0000 0.1068965516
H   H57       1.0  0.18762  0.47401  0.62160  1.0000 0.0876157401
H   H58       1.0  0.81238  0.52599  0.37840  1.0000 0.0876157401
H   H59       1.0  0.81238  0.47401  0.87840  1.0000 0.0876157401
H   H60       1.0  0.18762  0.52599  0.12160  1.0000 0.0876157401
H   H61       1.0  0.68762  0.97401  0.62160  1.0000 0.0876157401
H   H62       1.0  0.31238  0.02599  0.37840  1.0000 0.0876157401
H   H63       1.0  0.31238  0.97401  0.87840  1.0000 0.0876157401
H   H64       1.0  0.68762  0.02599  0.12160  1.0000 0.0876157401
H   H65       1.0  0.25090  0.41620  0.56510  1.0000 0.0819964909
H   H66       1.0  0.74910  0.58380  0.43490  1.0000 0.0819964909
H   H67       1.0  0.74910  0.41620  0.93490  1.0000 0.0819964909
H   H68       1.0  0.25090  0.58380  0.06510  1.0000 0.0819964909
H   H69       1.0  0.75090  0.91620  0.56510  1.0000 0.0819964909
H   H70       1.0  0.24910  0.08380  0.43490  1.0000 0.0819964909
H   H71       1.0  0.24910  0.91620  0.93490  1.0000 0.0819964909
H   H72       1.0  0.75090  0.08380  0.06510  1.0000 0.0819964909
H   H73       1.0  0.74215  0.07737  0.79430  1.0000 0.1068965516
H   H74       1.0  0.25785  0.92263  0.20570  1.0000 0.1068965516
H   H75       1.0  0.25785  0.07737  0.70570  1.0000 0.1068965516
H   H76       1.0  0.74215  0.92263  0.29430  1.0000 0.1068965516
H   H77       1.0  0.24215  0.57737  0.79430  1.0000 0.1068965516
H   H78       1.0  0.75785  0.42263  0.20570  1.0000 0.1068965516
H   H79       1.0  0.75785  0.57737  0.70570  1.0000 0.1068965516
H   H80       1.0  0.24215  0.42263  0.29430  1.0000 0.1068965516
H   H81       1.0  0.23691  0.44460  0.90702  1.0000 0.0876157401
H   H82       1.0  0.76309  0.55540  0.09298  1.0000 0.0876157401
H   H83       1.0  0.76309  0.44460  0.59298  1.0000 0.0876157401
H   H84       1.0  0.23691  0.55540  0.40702  1.0000 0.0876157401
H   H85       1.0  0.73691  0.94460  0.90702  1.0000 0.0876157401
H   H86       1.0  0.26309  0.05540  0.09298  1.0000 0.0876157401
H   H87       1.0  0.26309  0.94460  0.59298  1.0000 0.0876157401
H   H88       1.0  0.73691  0.05540  0.40702  1.0000 0.0876157401
H   H89       1.0  0.29721  0.38724  0.84790  1.0000 0.1016906381
H   H90       1.0  0.70279  0.61276  0.15210  1.0000 0.1016906381
H   H91       1.0  0.70279  0.38724  0.65210  1.0000 0.1016906381
H   H92       1.0  0.29721  0.61276  0.34790  1.0000 0.1016906381
H   H93       1.0  0.79721  0.88724  0.84790  1.0000 0.1016906381
H   H94       1.0  0.20279  0.11276  0.15210  1.0000 0.1016906381
H   H95       1.0  0.20279  0.88724  0.65210  1.0000 0.1016906381
H   H96       1.0  0.79721  0.11276  0.34790  1.0000 0.1016906381
C   C1        1.0  0.12930  0.26294  0.90794  1.0000 0.0725537926
C   C2        1.0  0.87070  0.73706  0.09206  1.0000 0.0725537926
C   C3        1.0  0.87070  0.26294  0.59206  1.0000 0.0725537926
C   C4        1.0  0.12930  0.73706  0.40794  1.0000 0.0725537926
C   C5        1.0  0.62930  0.76294  0.90794  1.0000 0.0725537926
C   C6        1.0  0.37070  0.23706  0.09206  1.0000 0.0725537926
C   C7        1.0  0.37070  0.76294  0.59206  1.0000 0.0725537926
C   C8        1.0  0.62930  0.23706  0.40794  1.0000 0.0725537926
C   C9        1.0  0.07930  0.29570  0.65542  1.0000 0.0876157401
C   C10       1.0  0.92070  0.70430  0.34458  1.0000 0.0876157401
C   C11       1.0  0.92070  0.29570  0.84458  1.0000 0.0876157401
C   C12       1.0  0.07930  0.70430  0.15542  1.0000 0.0876157401
C   C13       1.0  0.57930  0.79570  0.65542  1.0000 0.0876157401
C   C14       1.0  0.42070  0.20430  0.34458  1.0000 0.0876157401
C   C15       1.0  0.42070  0.79570  0.84458  1.0000 0.0876157401
C   C16       1.0  0.57930  0.20430  0.15542  1.0000 0.0876157401
C   C17       1.0  0.18205  0.31330  0.92162  1.0000 -0.2016866885
C   C18       1.0  0.81795  0.68670  0.07838  1.0000 -0.2016866885
C   C19       1.0  0.81795  0.31330  0.57838  1.0000 -0.2016866885
C   C20       1.0  0.18205  0.68670  0.42162  1.0000 -0.2016866885
C   C21       1.0  0.68205  0.81330  0.92162  1.0000 -0.2016866885
C   C22       1.0  0.31795  0.18670  0.07838  1.0000 -0.2016866885
C   C23       1.0  0.31795  0.81330  0.57838  1.0000 -0.2016866885
C   C24       1.0  0.68205  0.18670  0.42162  1.0000 -0.2016866885
C   C25       1.0  0.18408  0.35700  0.79536  1.0000 0.1432273828
C   C26       1.0  0.81592  0.64300  0.20464  1.0000 0.1432273828
C   C27       1.0  0.81592  0.35700  0.70464  1.0000 0.1432273828
C   C28       1.0  0.18408  0.64300  0.29536  1.0000 0.1432273828
C   C29       1.0  0.68408  0.85700  0.79536  1.0000 0.1432273828
C   C30       1.0  0.31592  0.14300  0.20464  1.0000 0.1432273828
C   C31       1.0  0.31592  0.85700  0.70464  1.0000 0.1432273828
C   C32       1.0  0.68408  0.14300  0.29536  1.0000 0.1432273828
C   C33       1.0  0.84977  0.11209  0.76890  1.0000 0.0725537926
C   C34       1.0  0.15023  0.88791  0.23110  1.0000 0.0725537926
C   C35       1.0  0.15023  0.11209  0.73110  1.0000 0.0725537926
C   C36       1.0  0.84977  0.88791  0.26890  1.0000 0.0725537926
C   C37       1.0  0.34977  0.61209  0.76890  1.0000 0.0725537926
C   C38       1.0  0.65023  0.38791  0.23110  1.0000 0.0725537926
C   C39       1.0  0.65023  0.61209  0.73110  1.0000 0.0725537926
C   C40       1.0  0.34977  0.38791  0.26890  1.0000 0.0725537926
C   C41       1.0  0.13068  0.34712  0.65984  1.0000 -0.2016866885
C   C42       1.0  0.86932  0.65288  0.34016  1.0000 -0.2016866885
C   C43       1.0  0.86932  0.34712  0.84016  1.0000 -0.2016866885
C   C44       1.0  0.13068  0.65288  0.15984  1.0000 -0.2016866885
C   C45       1.0  0.63068  0.84712  0.65984  1.0000 -0.2016866885
C   C46       1.0  0.36932  0.15288  0.34016  1.0000 -0.2016866885
C   C47       1.0  0.36932  0.84712  0.84016  1.0000 -0.2016866885
C   C48       1.0  0.63068  0.15288  0.15984  1.0000 -0.2016866885
C   C49       1.0  0.92043  0.04267  0.64149  1.0000 0.0725537926
C   C50       1.0  0.07957  0.95733  0.35851  1.0000 0.0725537926
C   C51       1.0  0.07957  0.04267  0.85851  1.0000 0.0725537926
C   C52       1.0  0.92043  0.95733  0.14149  1.0000 0.0725537926
C   C53       1.0  0.42043  0.54267  0.64149  1.0000 0.0725537926
C   C54       1.0  0.57957  0.45733  0.35851  1.0000 0.0725537926
C   C55       1.0  0.57957  0.54267  0.85851  1.0000 0.0725537926
C   C56       1.0  0.42043  0.45733  0.14149  1.0000 0.0725537926
C   C57       1.0  0.80130  0.00323  0.68018  1.0000 0.1432273828
C   C58       1.0  0.19870  0.99677  0.31982  1.0000 0.1432273828
C   C59       1.0  0.19870  0.00323  0.81982  1.0000 0.1432273828
C   C60       1.0  0.80130  0.99677  0.18018  1.0000 0.1432273828
C   C61       1.0  0.30130  0.50323  0.68018  1.0000 0.1432273828
C   C62       1.0  0.69870  0.49677  0.31982  1.0000 0.1432273828
C   C63       1.0  0.69870  0.50323  0.81982  1.0000 0.1432273828
C   C64       1.0  0.30130  0.49677  0.18018  1.0000 0.1432273828
C   C65       1.0  0.86777  0.99220  0.62871  1.0000 -0.1905054439
C   C66       1.0  0.13223  0.00780  0.37129  1.0000 -0.1905054439
C   C67       1.0  0.13223  0.99220  0.87129  1.0000 -0.1905054439
C   C68       1.0  0.86777  0.00780  0.12871  1.0000 -0.1905054439
C   C69       1.0  0.36777  0.49220  0.62871  1.0000 -0.1905054439
C   C70       1.0  0.63223  0.50780  0.37129  1.0000 -0.1905054439
C   C71       1.0  0.63223  0.49220  0.87129  1.0000 -0.1905054439
C   C72       1.0  0.36777  0.50780  0.12871  1.0000 -0.1905054439
C   C73       1.0  0.99973  0.15357  0.38901  1.0000 0.4393613182
C   C74       1.0  0.00027  0.84643  0.61099  1.0000 0.4393613182
C   C75       1.0  0.00027  0.15357  0.11099  1.0000 0.4393613182
C   C76       1.0  0.99973  0.84643  0.88901  1.0000 0.4393613182
C   C77       1.0  0.49973  0.65357  0.38901  1.0000 0.4393613182
C   C78       1.0  0.50027  0.34643  0.61099  1.0000 0.4393613182
C   C79       1.0  0.50027  0.65357  0.11099  1.0000 0.4393613182
C   C80       1.0  0.49973  0.34643  0.88901  1.0000 0.4393613182
C   C81       1.0  0.24243  0.45072  0.65982  1.0000 -0.1905054439
C   C82       1.0  0.75757  0.54928  0.34018  1.0000 -0.1905054439
C   C83       1.0  0.75757  0.45072  0.84018  1.0000 -0.1905054439
C   C84       1.0  0.24243  0.54928  0.15982  1.0000 -0.1905054439
C   C85       1.0  0.74243  0.95072  0.65982  1.0000 -0.1905054439
C   C86       1.0  0.25757  0.04928  0.34018  1.0000 -0.1905054439
C   C87       1.0  0.25757  0.95072  0.84018  1.0000 -0.1905054439
C   C88       1.0  0.74243  0.04928  0.15982  1.0000 -0.1905054439
C   C89       1.0  0.79307  0.06516  0.75289  1.0000 -0.2098039545
C   C90       1.0  0.20693  0.93484  0.24711  1.0000 -0.2098039545
C   C91       1.0  0.20693  0.06516  0.74711  1.0000 -0.2098039545
C   C92       1.0  0.79307  0.93484  0.25289  1.0000 -0.2098039545
C   C93       1.0  0.29307  0.56516  0.75289  1.0000 -0.2098039545
C   C94       1.0  0.70693  0.43484  0.24711  1.0000 -0.2098039545
C   C95       1.0  0.70693  0.56516  0.74711  1.0000 -0.2098039545
C   C96       1.0  0.29307  0.43484  0.25289  1.0000 -0.2098039545
C   C97       1.0  0.24225  0.41027  0.80960  1.0000 -0.1905054439
C   C98       1.0  0.75775  0.58973  0.19040  1.0000 -0.1905054439
C   C99       1.0  0.75775  0.41027  0.69040  1.0000 -0.1905054439
C   C100      1.0  0.24225  0.58973  0.30960  1.0000 -0.1905054439
C   C101      1.0  0.74225  0.91027  0.80960  1.0000 -0.1905054439
C   C102      1.0  0.25775  0.08973  0.19040  1.0000 -0.1905054439
C   C103      1.0  0.25775  0.91027  0.69040  1.0000 -0.1905054439
C   C104      1.0  0.74225  0.08973  0.30960  1.0000 -0.1905054439
N   N1        1.0  0.07734  0.25338  0.77709  1.0000 -0.2469329673
N   N2        1.0  0.92266  0.74662  0.22291  1.0000 -0.2469329673
N   N3        1.0  0.92266  0.25338  0.72291  1.0000 -0.2469329673
N   N4        1.0  0.07734  0.74662  0.27709  1.0000 -0.2469329673
N   N5        1.0  0.57734  0.75338  0.77709  1.0000 -0.2469329673
N   N6        1.0  0.42266  0.24662  0.22291  1.0000 -0.2469329673
N   N7        1.0  0.42266  0.75338  0.72291  1.0000 -0.2469329673
N   N8        1.0  0.57734  0.24662  0.27709  1.0000 -0.2469329673
N   N9        1.0  0.00012  0.16557  0.52348  1.0000 -0.5851957358
N   N10       1.0  0.99988  0.83443  0.47652  1.0000 -0.5851957358
N   N11       1.0  0.99988  0.16557  0.97652  1.0000 -0.5851957358
N   N12       1.0  0.00012  0.83443  0.02348  1.0000 -0.5851957358
N   N13       1.0  0.50012  0.66557  0.52348  1.0000 -0.5851957358
N   N14       1.0  0.49988  0.33443  0.47652  1.0000 -0.5851957358
N   N15       1.0  0.49988  0.66557  0.97652  1.0000 -0.5851957358
N   N16       1.0  0.50012  0.33443  0.02348  1.0000 -0.5851957358
N   N17       1.0  0.91271  0.10315  0.71030  1.0000 -0.2320616718
N   N18       1.0  0.08729  0.89685  0.28970  1.0000 -0.2320616718
N   N19       1.0  0.08729  0.10315  0.78970  1.0000 -0.2320616718
N   N20       1.0  0.91271  0.89685  0.21030  1.0000 -0.2320616718
N   N21       1.0  0.41271  0.60315  0.71030  1.0000 -0.2320616718
N   N22       1.0  0.58729  0.39685  0.28970  1.0000 -0.2320616718
N   N23       1.0  0.58729  0.60315  0.78970  1.0000 -0.2320616718
N   N24       1.0  0.41271  0.39685  0.21030  1.0000 -0.2320616718
N   N25       1.0  0.00000  0.13077  0.25000  1.0000 -0.40503873
N   N26       1.0  0.00000  0.86923  0.75000  1.0000 -0.40503873
N   N27       1.0  0.50000  0.63077  0.25000  1.0000 -0.40503873
N   N28       1.0  0.50000  0.36923  0.75000  1.0000 -0.40503873
