# DDEC6 charges by PACMAN v1.1 (https://github.com/mtap-research/PACMAN-charge/)
data_2012[Zn][pcu]3[ASR]18
_chemical_formula_sum              "Zn4 H24 C42 O19"
_cell_length_a       17.1227
_cell_length_b       17.1227
_cell_length_c       17.1227
_cell_angle_alpha    90
_cell_angle_beta     90
_cell_angle_gamma    90

_symmetry_space_group_name_H-M    "P 1"
_symmetry_Int_Tables_number       1

loop_
  _symmetry_equiv_pos_as_xyz
  'x, y, z'

loop_
  _atom_site_type_symbol
  _atom_site_label
  _atom_site_symmetry_multiplicity
  _atom_site_fract_x
  _atom_site_fract_y
  _atom_site_fract_z
  _atom_site_occupancy
  _atom_site_charge
Zn  Zn1       1.0  0.56533  0.43467  0.43467  1.0000 0.9489065313
Zn  Zn2       1.0  0.43467  0.56533  0.43467  1.0000 0.9489065313
Zn  Zn3       1.0  0.43467  0.43467  0.56533  1.0000 0.9489065313
Zn  Zn4       1.0  0.56533  0.56533  0.56533  1.0000 0.9489065313
H   H1        1.0  0.79621  0.58474  0.58474  1.0000 0.1090766177
H   H2        1.0  0.92277  0.62871  0.62871  1.0000 0.3529676178
H   H3        1.0  0.20379  0.41526  0.58474  1.0000 0.1195802469
H   H4        1.0  0.02813  0.44024  0.64619  1.0000 0.3529676178
H   H5        1.0  0.20379  0.58474  0.41526  1.0000 0.1044827679
H   H6        1.0  0.79621  0.41526  0.41526  1.0000 0.1090766177
H   H7        1.0  0.58474  0.79621  0.58474  1.0000 0.1195802469
H   H8        1.0  0.55268  0.99642  0.62753  1.0000 0.3529676178
H   H9        1.0  0.58474  0.20379  0.41526  1.0000 0.1090766177
H   H10       1.0  0.41526  0.20379  0.58474  1.0000 0.1090766177
H   H11       1.0  0.39494  0.07132  0.64617  1.0000 0.3529676178
H   H12       1.0  0.41526  0.79621  0.41526  1.0000 0.1090766177
H   H13       1.0  0.58474  0.58474  0.79621  1.0000 0.1090766177
H   H14       1.0  0.41526  0.58474  0.20379  1.0000 0.1090766177
H   H15       1.0  0.39494  0.64617  0.07132  1.0000 0.359321987
H   H16       1.0  0.58474  0.41526  0.20379  1.0000 0.1090766177
H   H17       1.0  0.41526  0.41526  0.79621  1.0000 0.1195802469
H   H18       1.0  0.39911  0.44022  0.01506  1.0000 0.3308640474
H   H19       1.0  0.05632  0.58620  0.41380  1.0000 0.1090766177
H   H20       1.0  0.94368  0.41380  0.41380  1.0000 0.1195802469
H   H21       1.0  0.58620  0.05632  0.41380  1.0000 0.1195802469
H   H22       1.0  0.41380  0.94368  0.41380  1.0000 0.1090766177
H   H23       1.0  0.58620  0.58620  0.94368  1.0000 0.1090766177
H   H24       1.0  0.58620  0.41380  0.05632  1.0000 0.1195802469
C   C1        1.0  0.83030  0.54430  0.54430  1.0000 -0.1331713027
C   C2        1.0  0.91120  0.54510  0.54510  1.0000 0.2205773608
C   C3        1.0  0.16970  0.45570  0.54430  1.0000 -0.123546744
C   C4        1.0  0.08880  0.45490  0.54510  1.0000 0.2205773608
C   C5        1.0  0.16970  0.54430  0.45570  1.0000 -0.0527204371
C   C6        1.0  0.08880  0.54510  0.45490  1.0000 -0.1331713027
C   C7        1.0  0.83030  0.45570  0.45570  1.0000 -0.0527204371
C   C8        1.0  0.91120  0.45490  0.45490  1.0000 -0.1369861062
C   C9        1.0  0.54430  0.83030  0.54430  1.0000 -0.114955852
C   C10       1.0  0.54510  0.91120  0.54510  1.0000 0.2276051694
C   C11       1.0  0.54430  0.16970  0.45570  1.0000 -0.0566059434
C   C12       1.0  0.54510  0.08880  0.45490  1.0000 -0.1331713027
C   C13       1.0  0.45570  0.16970  0.54430  1.0000 -0.1331713027
C   C14       1.0  0.45490  0.08880  0.54510  1.0000 0.2205773608
C   C15       1.0  0.45570  0.83030  0.45570  1.0000 -0.0527204371
C   C16       1.0  0.45490  0.91120  0.45490  1.0000 -0.1331713027
C   C17       1.0  0.54430  0.54430  0.83030  1.0000 -0.0566059434
C   C18       1.0  0.54510  0.54510  0.91120  1.0000 -0.1369861062
C   C19       1.0  0.45570  0.54430  0.16970  1.0000 -0.1369861062
C   C20       1.0  0.45490  0.54510  0.08880  1.0000 0.2205773608
C   C21       1.0  0.54430  0.45570  0.16970  1.0000 -0.0566059434
C   C22       1.0  0.54510  0.45490  0.08880  1.0000 -0.1457350052
C   C23       1.0  0.45570  0.45570  0.83030  1.0000 -0.114955852
C   C24       1.0  0.45490  0.45490  0.91120  1.0000 0.2386093491
C   C25       1.0  0.71150  0.50000  0.50000  1.0000 0.5195607596
C   C26       1.0  0.78970  0.50000  0.50000  1.0000 -0.0797138608
C   C27       1.0  0.95870  0.50000  0.50000  1.0000 -0.0113263552
C   C28       1.0  0.28850  0.50000  0.50000  1.0000 0.5195607596
C   C29       1.0  0.21030  0.50000  0.50000  1.0000 -0.0797138608
C   C30       1.0  0.04130  0.50000  0.50000  1.0000 -0.0113263552
C   C31       1.0  0.50000  0.71150  0.50000  1.0000 0.5195607596
C   C32       1.0  0.50000  0.78970  0.50000  1.0000 -0.0857358
C   C33       1.0  0.50000  0.95870  0.50000  1.0000 -0.0113263552
C   C34       1.0  0.50000  0.28850  0.50000  1.0000 0.5195607596
C   C35       1.0  0.50000  0.21030  0.50000  1.0000 -0.0733524992
C   C36       1.0  0.50000  0.04130  0.50000  1.0000 -0.0223027594
C   C37       1.0  0.50000  0.50000  0.71150  1.0000 0.5195607596
C   C38       1.0  0.50000  0.50000  0.78970  1.0000 -0.0857358
C   C39       1.0  0.50000  0.50000  0.95870  1.0000 -0.0223027594
C   C40       1.0  0.50000  0.50000  0.28850  1.0000 0.5195607596
C   C41       1.0  0.50000  0.50000  0.21030  1.0000 -0.0733524992
C   C42       1.0  0.50000  0.50000  0.04130  1.0000 -0.0223027594
O   O1        1.0  0.50000  0.50000  0.50000  1.0000 -1.0050717837
O   O2        1.0  0.67520  0.45380  0.45380  1.0000 -0.5173170692
O   O3        1.0  0.95900  0.59070  0.59070  1.0000 -0.4604751265
O   O4        1.0  0.32480  0.54620  0.45380  1.0000 -0.5173170692
O   O5        1.0  0.04100  0.40930  0.59070  1.0000 -0.4514141626
O   O6        1.0  0.32480  0.45380  0.54620  1.0000 -0.5138493723
O   O7        1.0  0.67520  0.54620  0.54620  1.0000 -0.5173170692
O   O8        1.0  0.45380  0.67520  0.45380  1.0000 -0.5173170692
O   O9        1.0  0.59070  0.95900  0.59070  1.0000 -0.4448791093
O   O10       1.0  0.45380  0.32480  0.54620  1.0000 -0.5173170692
O   O11       1.0  0.54620  0.32480  0.45380  1.0000 -0.5173170692
O   O12       1.0  0.40930  0.04100  0.59070  1.0000 -0.4514141626
O   O13       1.0  0.54620  0.67520  0.54620  1.0000 -0.5173170692
O   O14       1.0  0.45380  0.45380  0.67520  1.0000 -0.5173170692
O   O15       1.0  0.54620  0.45380  0.32480  1.0000 -0.5173170692
O   O16       1.0  0.40930  0.59070  0.04100  1.0000 -0.4604751265
O   O17       1.0  0.45380  0.54620  0.32480  1.0000 -0.5173170692
O   O18       1.0  0.54620  0.54620  0.67520  1.0000 -0.5138493723
O   O19       1.0  0.40930  0.40930  0.95900  1.0000 -0.4283001965
