# DDEC6 charges by PACMAN v1.1 (https://github.com/mtap-research/PACMAN-charge/)
data_2012[Mn][pcu]3[ASR]4
_chemical_formula_sum              "Mn16 H168 C174 N60 O28"
_cell_length_a       20.8013
_cell_length_b       20.8013
_cell_length_c       20.8013
_cell_angle_alpha    55.503
_cell_angle_beta     55.503
_cell_angle_gamma    55.503

_symmetry_space_group_name_H-M    "P 1"
_symmetry_Int_Tables_number       1

loop_
  _symmetry_equiv_pos_as_xyz
  'x, y, z'

loop_
  _atom_site_type_symbol
  _atom_site_label
  _atom_site_symmetry_multiplicity
  _atom_site_fract_x
  _atom_site_fract_y
  _atom_site_fract_z
  _atom_site_occupancy
  _atom_site_charge
Mn  Mn1       1.0  0.15498  0.15498  0.15498  1.0000 0.7397510517
Mn  Mn2       1.0  0.34502  0.34502  0.34502  1.0000 0.7397510517
Mn  Mn3       1.0  0.29390  0.25412  0.10949  1.0000 0.9717064508
Mn  Mn4       1.0  0.25412  0.10949  0.29390  1.0000 0.9717064508
Mn  Mn5       1.0  0.10949  0.29390  0.25412  1.0000 0.9717064508
Mn  Mn6       1.0  0.20610  0.39051  0.24588  1.0000 0.9717064508
Mn  Mn7       1.0  0.24588  0.20610  0.39051  1.0000 0.9717064508
Mn  Mn8       1.0  0.39051  0.24588  0.20610  1.0000 0.9717064508
Mn  Mn9       1.0  0.84502  0.84502  0.84502  1.0000 0.7397510517
Mn  Mn10      1.0  0.65498  0.65498  0.65498  1.0000 0.7397510517
Mn  Mn11      1.0  0.70610  0.74588  0.89051  1.0000 0.9717064508
Mn  Mn12      1.0  0.74588  0.89051  0.70610  1.0000 0.9717064508
Mn  Mn13      1.0  0.89051  0.70610  0.74588  1.0000 0.9717064508
Mn  Mn14      1.0  0.79390  0.60949  0.75412  1.0000 0.9717064508
Mn  Mn15      1.0  0.75412  0.79390  0.60949  1.0000 0.9717064508
Mn  Mn16      1.0  0.60949  0.75412  0.79390  1.0000 0.9717064508
H   H1        1.0  0.44840  0.29750  0.84990  1.0000 0.1328987959
H   H2        1.0  0.29750  0.84990  0.44840  1.0000 0.1328987959
H   H3        1.0  0.84990  0.44840  0.29750  1.0000 0.1328987959
H   H4        1.0  0.05160  0.65010  0.20250  1.0000 0.1328987959
H   H5        1.0  0.20250  0.05160  0.65010  1.0000 0.1328987959
H   H6        1.0  0.65010  0.20250  0.05160  1.0000 0.1328987959
H   H7        1.0  0.41470  0.39530  0.73090  1.0000 0.1111538146
H   H8        1.0  0.39530  0.73090  0.41470  1.0000 0.1111538146
H   H9        1.0  0.73090  0.41470  0.39530  1.0000 0.1111538146
H   H10       1.0  0.08530  0.76910  0.10470  1.0000 0.1111538146
H   H11       1.0  0.10470  0.08530  0.76910  1.0000 0.1111538146
H   H12       1.0  0.76910  0.10470  0.08530  1.0000 0.1111538146
H   H13       1.0  0.28320  0.50240  0.74180  1.0000 0.1182069802
H   H14       1.0  0.50240  0.74180  0.28320  1.0000 0.1182069802
H   H15       1.0  0.74180  0.28320  0.50240  1.0000 0.1182069802
H   H16       1.0  0.21680  0.75820  0.99760  1.0000 0.1182069802
H   H17       1.0  0.99760  0.21680  0.75820  1.0000 0.1182069802
H   H18       1.0  0.75820  0.99760  0.21680  1.0000 0.1182069802
H   H19       1.0  0.18810  0.51510  0.87010  1.0000 0.1111538146
H   H20       1.0  0.51510  0.87010  0.18810  1.0000 0.1111538146
H   H21       1.0  0.87010  0.18810  0.51510  1.0000 0.1111538146
H   H22       1.0  0.31190  0.62990  0.98490  1.0000 0.1111538146
H   H23       1.0  0.98490  0.31190  0.62990  1.0000 0.1111538146
H   H24       1.0  0.62990  0.98490  0.31190  1.0000 0.1111538146
H   H25       1.0  0.07410  0.50370  0.04200  1.0000 0.1572315415
H   H26       1.0  0.50370  0.04200  0.07410  1.0000 0.1572315415
H   H27       1.0  0.04200  0.07410  0.50370  1.0000 0.1572315415
H   H28       1.0  0.42590  0.45800  0.99630  1.0000 0.1572315415
H   H29       1.0  0.99630  0.42590  0.45800  1.0000 0.1572315415
H   H30       1.0  0.45800  0.99630  0.42590  1.0000 0.1572315415
H   H31       1.0  0.13650  0.55180  0.96390  1.0000 0.141275973
H   H32       1.0  0.55180  0.96390  0.13650  1.0000 0.141275973
H   H33       1.0  0.96390  0.13650  0.55180  1.0000 0.141275973
H   H34       1.0  0.36350  0.53610  0.94820  1.0000 0.141275973
H   H35       1.0  0.94820  0.36350  0.53610  1.0000 0.141275973
H   H36       1.0  0.53610  0.94820  0.36350  1.0000 0.141275973
H   H37       1.0  0.12400  0.52770  0.05720  1.0000 0.1572315415
H   H38       1.0  0.52770  0.05720  0.12400  1.0000 0.1572315415
H   H39       1.0  0.05720  0.12400  0.52770  1.0000 0.1572315415
H   H40       1.0  0.37600  0.44280  0.97230  1.0000 0.1572315415
H   H41       1.0  0.97230  0.37600  0.44280  1.0000 0.1572315415
H   H42       1.0  0.44280  0.97230  0.37600  1.0000 0.1572315415
H   H43       1.0  0.30280  0.99070  0.18530  1.0000 0.0970714349
H   H44       1.0  0.99070  0.18530  0.30280  1.0000 0.0970714349
H   H45       1.0  0.18530  0.30280  0.99070  1.0000 0.0970714349
H   H46       1.0  0.19720  0.31470  0.50930  1.0000 0.0970714349
H   H47       1.0  0.50930  0.19720  0.31470  1.0000 0.0970714349
H   H48       1.0  0.31470  0.50930  0.19720  1.0000 0.0970714349
H   H49       1.0  0.40320  0.87610  0.14460  1.0000 0.141275973
H   H50       1.0  0.87610  0.14460  0.40320  1.0000 0.141275973
H   H51       1.0  0.14460  0.40320  0.87610  1.0000 0.141275973
H   H52       1.0  0.09680  0.35540  0.62390  1.0000 0.141275973
H   H53       1.0  0.62390  0.09680  0.35540  1.0000 0.141275973
H   H54       1.0  0.35540  0.62390  0.09680  1.0000 0.141275973
H   H55       1.0  0.28820  0.95450  0.99580  1.0000 0.1454971478
H   H56       1.0  0.95450  0.99580  0.28820  1.0000 0.1454971478
H   H57       1.0  0.99580  0.28820  0.95450  1.0000 0.1454971478
H   H58       1.0  0.21180  0.50420  0.54550  1.0000 0.1454971478
H   H59       1.0  0.54550  0.21180  0.50420  1.0000 0.1454971478
H   H60       1.0  0.50420  0.54550  0.21180  1.0000 0.1454971478
H   H61       1.0  0.19230  0.06780  0.03870  1.0000 0.0913576988
H   H62       1.0  0.06780  0.03870  0.19230  1.0000 0.0913576988
H   H63       1.0  0.03870  0.19230  0.06780  1.0000 0.0913576988
H   H64       1.0  0.30770  0.46130  0.43220  1.0000 0.0913576988
H   H65       1.0  0.43220  0.30770  0.46130  1.0000 0.0913576988
H   H66       1.0  0.46130  0.43220  0.30770  1.0000 0.0913576988
H   H67       1.0  0.47490  0.81430  0.03750  1.0000 0.1328987959
H   H68       1.0  0.81430  0.03750  0.47490  1.0000 0.1328987959
H   H69       1.0  0.03750  0.47490  0.81430  1.0000 0.1328987959
H   H70       1.0  0.02510  0.46250  0.68570  1.0000 0.1328987959
H   H71       1.0  0.68570  0.02510  0.46250  1.0000 0.1328987959
H   H72       1.0  0.46250  0.68570  0.02510  1.0000 0.1328987959
H   H73       1.0  0.42420  0.83810  0.98640  1.0000 0.1182069802
H   H74       1.0  0.83810  0.98640  0.42420  1.0000 0.1182069802
H   H75       1.0  0.98640  0.42420  0.83810  1.0000 0.1182069802
H   H76       1.0  0.07580  0.51360  0.66190  1.0000 0.1182069802
H   H77       1.0  0.66190  0.07580  0.51360  1.0000 0.1182069802
H   H78       1.0  0.51360  0.66190  0.07580  1.0000 0.1182069802
H   H79       1.0  0.38930  0.73810  0.16180  1.0000 0.0913576988
H   H80       1.0  0.73810  0.16180  0.38930  1.0000 0.0913576988
H   H81       1.0  0.16180  0.38930  0.73810  1.0000 0.0913576988
H   H82       1.0  0.11070  0.33820  0.76190  1.0000 0.0913576988
H   H83       1.0  0.76190  0.11070  0.33820  1.0000 0.0913576988
H   H84       1.0  0.33820  0.76190  0.11070  1.0000 0.0913576988
H   H85       1.0  0.55160  0.70250  0.15010  1.0000 0.1328987959
H   H86       1.0  0.70250  0.15010  0.55160  1.0000 0.1328987959
H   H87       1.0  0.15010  0.55160  0.70250  1.0000 0.1328987959
H   H88       1.0  0.94840  0.34990  0.79750  1.0000 0.1328987959
H   H89       1.0  0.79750  0.94840  0.34990  1.0000 0.1328987959
H   H90       1.0  0.34990  0.79750  0.94840  1.0000 0.1328987959
H   H91       1.0  0.58530  0.60470  0.26910  1.0000 0.1111538146
H   H92       1.0  0.60470  0.26910  0.58530  1.0000 0.1111538146
H   H93       1.0  0.26910  0.58530  0.60470  1.0000 0.1111538146
H   H94       1.0  0.91470  0.23090  0.89530  1.0000 0.1111538146
H   H95       1.0  0.89530  0.91470  0.23090  1.0000 0.1111538146
H   H96       1.0  0.23090  0.89530  0.91470  1.0000 0.1111538146
H   H97       1.0  0.71680  0.49760  0.25820  1.0000 0.1182069802
H   H98       1.0  0.49760  0.25820  0.71680  1.0000 0.1182069802
H   H99       1.0  0.25820  0.71680  0.49760  1.0000 0.1182069802
H   H100      1.0  0.78320  0.24180  0.00240  1.0000 0.1182069802
H   H101      1.0  0.00240  0.78320  0.24180  1.0000 0.1182069802
H   H102      1.0  0.24180  0.00240  0.78320  1.0000 0.1182069802
H   H103      1.0  0.81190  0.48490  0.12990  1.0000 0.1111538146
H   H104      1.0  0.48490  0.12990  0.81190  1.0000 0.1111538146
H   H105      1.0  0.12990  0.81190  0.48490  1.0000 0.1111538146
H   H106      1.0  0.68810  0.37010  0.01510  1.0000 0.1111538146
H   H107      1.0  0.01510  0.68810  0.37010  1.0000 0.1111538146
H   H108      1.0  0.37010  0.01510  0.68810  1.0000 0.1111538146
H   H109      1.0  0.92590  0.49630  0.95800  1.0000 0.1572315415
H   H110      1.0  0.49630  0.95800  0.92590  1.0000 0.1572315415
H   H111      1.0  0.95800  0.92590  0.49630  1.0000 0.1572315415
H   H112      1.0  0.57410  0.54200  0.00370  1.0000 0.1572315415
H   H113      1.0  0.00370  0.57410  0.54200  1.0000 0.1572315415
H   H114      1.0  0.54200  0.00370  0.57410  1.0000 0.1572315415
H   H115      1.0  0.86350  0.44820  0.03610  1.0000 0.141275973
H   H116      1.0  0.44820  0.03610  0.86350  1.0000 0.141275973
H   H117      1.0  0.03610  0.86350  0.44820  1.0000 0.141275973
H   H118      1.0  0.63650  0.46390  0.05180  1.0000 0.141275973
H   H119      1.0  0.05180  0.63650  0.46390  1.0000 0.141275973
H   H120      1.0  0.46390  0.05180  0.63650  1.0000 0.141275973
H   H121      1.0  0.87600  0.47230  0.94280  1.0000 0.1572315415
H   H122      1.0  0.47230  0.94280  0.87600  1.0000 0.1572315415
H   H123      1.0  0.94280  0.87600  0.47230  1.0000 0.1572315415
H   H124      1.0  0.62400  0.55720  0.02770  1.0000 0.1572315415
H   H125      1.0  0.02770  0.62400  0.55720  1.0000 0.1572315415
H   H126      1.0  0.55720  0.02770  0.62400  1.0000 0.1572315415
H   H127      1.0  0.69720  0.00930  0.81470  1.0000 0.0970714349
H   H128      1.0  0.00930  0.81470  0.69720  1.0000 0.0970714349
H   H129      1.0  0.81470  0.69720  0.00930  1.0000 0.0970714349
H   H130      1.0  0.80280  0.68530  0.49070  1.0000 0.0970714349
H   H131      1.0  0.49070  0.80280  0.68530  1.0000 0.0970714349
H   H132      1.0  0.68530  0.49070  0.80280  1.0000 0.0970714349
H   H133      1.0  0.59680  0.12390  0.85540  1.0000 0.141275973
H   H134      1.0  0.12390  0.85540  0.59680  1.0000 0.141275973
H   H135      1.0  0.85540  0.59680  0.12390  1.0000 0.141275973
H   H136      1.0  0.90320  0.64460  0.37610  1.0000 0.141275973
H   H137      1.0  0.37610  0.90320  0.64460  1.0000 0.141275973
H   H138      1.0  0.64460  0.37610  0.90320  1.0000 0.141275973
H   H139      1.0  0.71180  0.04550  0.00420  1.0000 0.1454971478
H   H140      1.0  0.04550  0.00420  0.71180  1.0000 0.1454971478
H   H141      1.0  0.00420  0.71180  0.04550  1.0000 0.1454971478
H   H142      1.0  0.78820  0.49580  0.45450  1.0000 0.1454971478
H   H143      1.0  0.45450  0.78820  0.49580  1.0000 0.1454971478
H   H144      1.0  0.49580  0.45450  0.78820  1.0000 0.1454971478
H   H145      1.0  0.80770  0.93220  0.96130  1.0000 0.0913576988
H   H146      1.0  0.93220  0.96130  0.80770  1.0000 0.0913576988
H   H147      1.0  0.96130  0.80770  0.93220  1.0000 0.0913576988
H   H148      1.0  0.69230  0.53870  0.56780  1.0000 0.0913576988
H   H149      1.0  0.56780  0.69230  0.53870  1.0000 0.0913576988
H   H150      1.0  0.53870  0.56780  0.69230  1.0000 0.0913576988
H   H151      1.0  0.52510  0.18570  0.96250  1.0000 0.1328987959
H   H152      1.0  0.18570  0.96250  0.52510  1.0000 0.1328987959
H   H153      1.0  0.96250  0.52510  0.18570  1.0000 0.1328987959
H   H154      1.0  0.97490  0.53750  0.31430  1.0000 0.1328987959
H   H155      1.0  0.31430  0.97490  0.53750  1.0000 0.1328987959
H   H156      1.0  0.53750  0.31430  0.97490  1.0000 0.1328987959
H   H157      1.0  0.57580  0.16190  0.01360  1.0000 0.1182069802
H   H158      1.0  0.16190  0.01360  0.57580  1.0000 0.1182069802
H   H159      1.0  0.01360  0.57580  0.16190  1.0000 0.1182069802
H   H160      1.0  0.92420  0.48640  0.33810  1.0000 0.1182069802
H   H161      1.0  0.33810  0.92420  0.48640  1.0000 0.1182069802
H   H162      1.0  0.48640  0.33810  0.92420  1.0000 0.1182069802
H   H163      1.0  0.61070  0.26190  0.83820  1.0000 0.0913576988
H   H164      1.0  0.26190  0.83820  0.61070  1.0000 0.0913576988
H   H165      1.0  0.83820  0.61070  0.26190  1.0000 0.0913576988
H   H166      1.0  0.88930  0.66180  0.23810  1.0000 0.0913576988
H   H167      1.0  0.23810  0.88930  0.66180  1.0000 0.0913576988
H   H168      1.0  0.66180  0.23810  0.88930  1.0000 0.0913576988
C   C1        1.0  0.33827  0.34737  0.93407  1.0000 0.2801636776
C   C2        1.0  0.34737  0.93407  0.33827  1.0000 0.2801636776
C   C3        1.0  0.93407  0.33827  0.34737  1.0000 0.2801636776
C   C4        1.0  0.16173  0.56593  0.15263  1.0000 0.2801636776
C   C5        1.0  0.15263  0.16173  0.56593  1.0000 0.2801636776
C   C6        1.0  0.56593  0.15263  0.16173  1.0000 0.2801636776
C   C7        1.0  0.39535  0.34165  0.85475  1.0000 -0.2397284549
C   C8        1.0  0.34165  0.85475  0.39535  1.0000 -0.2397284549
C   C9        1.0  0.85475  0.39535  0.34165  1.0000 -0.2397284549
C   C10       1.0  0.10465  0.64525  0.15835  1.0000 -0.2397284549
C   C11       1.0  0.15835  0.10465  0.64525  1.0000 -0.2397284549
C   C12       1.0  0.64525  0.15835  0.10465  1.0000 -0.2397284549
C   C13       1.0  0.37520  0.39950  0.78390  1.0000 -0.0824141171
C   C14       1.0  0.39950  0.78390  0.37520  1.0000 -0.0824141171
C   C15       1.0  0.78390  0.37520  0.39950  1.0000 -0.0824141171
C   C16       1.0  0.12480  0.71610  0.10050  1.0000 -0.0824141171
C   C17       1.0  0.10050  0.12480  0.71610  1.0000 -0.0824141171
C   C18       1.0  0.71610  0.10050  0.12480  1.0000 -0.0824141171
C   C19       1.0  0.29734  0.46354  0.79034  1.0000 -0.1379409226
C   C20       1.0  0.46354  0.79034  0.29734  1.0000 -0.1379409226
C   C21       1.0  0.79034  0.29734  0.46354  1.0000 -0.1379409226
C   C22       1.0  0.20266  0.70966  0.03646  1.0000 -0.1379409226
C   C23       1.0  0.03646  0.20266  0.70966  1.0000 -0.1379409226
C   C24       1.0  0.70966  0.03646  0.20266  1.0000 -0.1379409226
C   C25       1.0  0.24099  0.47079  0.86659  1.0000 -0.1207370946
C   C26       1.0  0.47079  0.86659  0.24099  1.0000 -0.1207370946
C   C27       1.0  0.86659  0.24099  0.47079  1.0000 -0.1207370946
C   C28       1.0  0.25901  0.63341  0.02921  1.0000 -0.1207370946
C   C29       1.0  0.02921  0.25901  0.63341  1.0000 -0.1207370946
C   C30       1.0  0.63341  0.02921  0.25901  1.0000 -0.1207370946
C   C31       1.0  0.25954  0.41424  0.94014  1.0000 -0.1379409226
C   C32       1.0  0.41424  0.94014  0.25954  1.0000 -0.1379409226
C   C33       1.0  0.94014  0.25954  0.41424  1.0000 -0.1379409226
C   C34       1.0  0.24046  0.55986  0.08576  1.0000 -0.1379409226
C   C35       1.0  0.08576  0.24046  0.55986  1.0000 -0.1379409226
C   C36       1.0  0.55986  0.08576  0.24046  1.0000 -0.1379409226
C   C37       1.0  0.19775  0.42725  0.01925  1.0000 0.2801636776
C   C38       1.0  0.42725  0.01925  0.19775  1.0000 0.2801636776
C   C39       1.0  0.01925  0.19775  0.42725  1.0000 0.2801636776
C   C40       1.0  0.30225  0.48075  0.07275  1.0000 0.2801636776
C   C41       1.0  0.07275  0.30225  0.48075  1.0000 0.2801636776
C   C42       1.0  0.48075  0.07275  0.30225  1.0000 0.2801636776
C   C43       1.0  0.12682  0.50982  0.02072  1.0000 -0.5092716706
C   C44       1.0  0.50982  0.02072  0.12682  1.0000 -0.5092716706
C   C45       1.0  0.02072  0.12682  0.50982  1.0000 -0.5092716706
C   C46       1.0  0.37318  0.47928  0.99018  1.0000 -0.5092716706
C   C47       1.0  0.99018  0.37318  0.47928  1.0000 -0.5092716706
C   C48       1.0  0.47928  0.99018  0.37318  1.0000 -0.5092716706
C   C49       1.0  0.29918  0.98318  0.14658  1.0000 0.0913576988
C   C50       1.0  0.98318  0.14658  0.29918  1.0000 0.0913576988
C   C51       1.0  0.14658  0.29918  0.98318  1.0000 0.0913576988
C   C52       1.0  0.20082  0.35342  0.51682  1.0000 0.0913576988
C   C53       1.0  0.51682  0.20082  0.35342  1.0000 0.0913576988
C   C54       1.0  0.35342  0.51682  0.20082  1.0000 0.0913576988
C   C55       1.0  0.35977  0.91427  0.12247  1.0000 -0.1917244275
C   C56       1.0  0.91427  0.12247  0.35977  1.0000 -0.1917244275
C   C57       1.0  0.12247  0.35977  0.91427  1.0000 -0.1917244275
C   C58       1.0  0.14023  0.37753  0.58573  1.0000 -0.1917244275
C   C59       1.0  0.58573  0.14023  0.37753  1.0000 -0.1917244275
C   C60       1.0  0.37753  0.58573  0.14023  1.0000 -0.1917244275
C   C61       1.0  0.35611  0.90231  0.06621  1.0000 0.1756952512
C   C62       1.0  0.90231  0.06621  0.35611  1.0000 0.1756952512
C   C63       1.0  0.06621  0.35611  0.90231  1.0000 0.1756952512
C   C64       1.0  0.14389  0.43379  0.59769  1.0000 0.1756952512
C   C65       1.0  0.59769  0.14389  0.43379  1.0000 0.1756952512
C   C66       1.0  0.43379  0.59769  0.14389  1.0000 0.1756952512
C   C67       1.0  0.29250  0.96040  0.03510  1.0000 -0.1917244275
C   C68       1.0  0.96040  0.03510  0.29250  1.0000 -0.1917244275
C   C69       1.0  0.03510  0.29250  0.96040  1.0000 -0.1917244275
C   C70       1.0  0.20750  0.46490  0.53960  1.0000 -0.1917244275
C   C71       1.0  0.53960  0.20750  0.46490  1.0000 -0.1917244275
C   C72       1.0  0.46490  0.53960  0.20750  1.0000 -0.1917244275
C   C73       1.0  0.23488  0.02768  0.06168  1.0000 0.0585731404
C   C74       1.0  0.02768  0.06168  0.23488  1.0000 0.0585731404
C   C75       1.0  0.06168  0.23488  0.02768  1.0000 0.0585731404
C   C76       1.0  0.26512  0.43832  0.47232  1.0000 0.0585731404
C   C77       1.0  0.47232  0.26512  0.43832  1.0000 0.0585731404
C   C78       1.0  0.43832  0.47232  0.26512  1.0000 0.0585731404
C   C79       1.0  0.41934  0.82634  0.04184  1.0000 -0.2397284549
C   C80       1.0  0.82634  0.04184  0.41934  1.0000 -0.2397284549
C   C81       1.0  0.04184  0.41934  0.82634  1.0000 -0.2397284549
C   C82       1.0  0.08066  0.45816  0.67366  1.0000 -0.2397284549
C   C83       1.0  0.67366  0.08066  0.45816  1.0000 -0.2397284549
C   C84       1.0  0.45816  0.67366  0.08066  1.0000 -0.2397284549
C   C85       1.0  0.39365  0.75000  0.10635  1.0000 -0.1379409226
C   C86       1.0  0.75000  0.10635  0.39365  1.0000 -0.1379409226
C   C87       1.0  0.10635  0.39365  0.75000  1.0000 -0.1379409226
C   C88       1.0  0.66173  0.65263  0.06593  1.0000 0.2801636776
C   C89       1.0  0.65263  0.06593  0.66173  1.0000 0.2801636776
C   C90       1.0  0.06593  0.66173  0.65263  1.0000 0.2801636776
C   C91       1.0  0.83827  0.43407  0.84737  1.0000 0.2801636776
C   C92       1.0  0.84737  0.83827  0.43407  1.0000 0.2801636776
C   C93       1.0  0.43407  0.84737  0.83827  1.0000 0.2801636776
C   C94       1.0  0.60465  0.65835  0.14525  1.0000 -0.2397284549
C   C95       1.0  0.65835  0.14525  0.60465  1.0000 -0.2397284549
C   C96       1.0  0.14525  0.60465  0.65835  1.0000 -0.2397284549
C   C97       1.0  0.89535  0.35475  0.84165  1.0000 -0.2397284549
C   C98       1.0  0.84165  0.89535  0.35475  1.0000 -0.2397284549
C   C99       1.0  0.35475  0.84165  0.89535  1.0000 -0.2397284549
C   C100      1.0  0.62480  0.60050  0.21610  1.0000 -0.0824141171
C   C101      1.0  0.60050  0.21610  0.62480  1.0000 -0.0824141171
C   C102      1.0  0.21610  0.62480  0.60050  1.0000 -0.0824141171
C   C103      1.0  0.87520  0.28390  0.89950  1.0000 -0.0824141171
C   C104      1.0  0.89950  0.87520  0.28390  1.0000 -0.0824141171
C   C105      1.0  0.28390  0.89950  0.87520  1.0000 -0.0824141171
C   C106      1.0  0.70266  0.53646  0.20966  1.0000 -0.1379409226
C   C107      1.0  0.53646  0.20966  0.70266  1.0000 -0.1379409226
C   C108      1.0  0.20966  0.70266  0.53646  1.0000 -0.1379409226
C   C109      1.0  0.79734  0.29034  0.96354  1.0000 -0.1379409226
C   C110      1.0  0.96354  0.79734  0.29034  1.0000 -0.1379409226
C   C111      1.0  0.29034  0.96354  0.79734  1.0000 -0.1379409226
C   C112      1.0  0.75901  0.52921  0.13341  1.0000 -0.1207370946
C   C113      1.0  0.52921  0.13341  0.75901  1.0000 -0.1207370946
C   C114      1.0  0.13341  0.75901  0.52921  1.0000 -0.1207370946
C   C115      1.0  0.74099  0.36659  0.97079  1.0000 -0.1207370946
C   C116      1.0  0.97079  0.74099  0.36659  1.0000 -0.1207370946
C   C117      1.0  0.36659  0.97079  0.74099  1.0000 -0.1207370946
C   C118      1.0  0.74046  0.58576  0.05986  1.0000 -0.1379409226
C   C119      1.0  0.58576  0.05986  0.74046  1.0000 -0.1379409226
C   C120      1.0  0.05986  0.74046  0.58576  1.0000 -0.1379409226
C   C121      1.0  0.75954  0.44014  0.91424  1.0000 -0.1379409226
C   C122      1.0  0.91424  0.75954  0.44014  1.0000 -0.1379409226
C   C123      1.0  0.44014  0.91424  0.75954  1.0000 -0.1379409226
C   C124      1.0  0.80225  0.57275  0.98075  1.0000 0.2801636776
C   C125      1.0  0.57275  0.98075  0.80225  1.0000 0.2801636776
C   C126      1.0  0.98075  0.80225  0.57275  1.0000 0.2801636776
C   C127      1.0  0.69775  0.51925  0.92725  1.0000 0.2801636776
C   C128      1.0  0.92725  0.69775  0.51925  1.0000 0.2801636776
C   C129      1.0  0.51925  0.92725  0.69775  1.0000 0.2801636776
C   C130      1.0  0.87318  0.49018  0.97928  1.0000 -0.5092716706
C   C131      1.0  0.49018  0.97928  0.87318  1.0000 -0.5092716706
C   C132      1.0  0.97928  0.87318  0.49018  1.0000 -0.5092716706
C   C133      1.0  0.62682  0.52072  0.00982  1.0000 -0.5092716706
C   C134      1.0  0.00982  0.62682  0.52072  1.0000 -0.5092716706
C   C135      1.0  0.52072  0.00982  0.62682  1.0000 -0.5092716706
C   C136      1.0  0.70082  0.01682  0.85342  1.0000 0.0913576988
C   C137      1.0  0.01682  0.85342  0.70082  1.0000 0.0913576988
C   C138      1.0  0.85342  0.70082  0.01682  1.0000 0.0913576988
C   C139      1.0  0.79918  0.64658  0.48318  1.0000 0.0913576988
C   C140      1.0  0.48318  0.79918  0.64658  1.0000 0.0913576988
C   C141      1.0  0.64658  0.48318  0.79918  1.0000 0.0913576988
C   C142      1.0  0.64023  0.08573  0.87753  1.0000 -0.1917244275
C   C143      1.0  0.08573  0.87753  0.64023  1.0000 -0.1917244275
C   C144      1.0  0.87753  0.64023  0.08573  1.0000 -0.1917244275
C   C145      1.0  0.85977  0.62247  0.41427  1.0000 -0.1917244275
C   C146      1.0  0.41427  0.85977  0.62247  1.0000 -0.1917244275
C   C147      1.0  0.62247  0.41427  0.85977  1.0000 -0.1917244275
C   C148      1.0  0.64389  0.09769  0.93379  1.0000 0.1756952512
C   C149      1.0  0.09769  0.93379  0.64389  1.0000 0.1756952512
C   C150      1.0  0.93379  0.64389  0.09769  1.0000 0.1756952512
C   C151      1.0  0.85611  0.56621  0.40231  1.0000 0.1756952512
C   C152      1.0  0.40231  0.85611  0.56621  1.0000 0.1756952512
C   C153      1.0  0.56621  0.40231  0.85611  1.0000 0.1756952512
C   C154      1.0  0.70750  0.03960  0.96490  1.0000 -0.1917244275
C   C155      1.0  0.03960  0.96490  0.70750  1.0000 -0.1917244275
C   C156      1.0  0.96490  0.70750  0.03960  1.0000 -0.1917244275
C   C157      1.0  0.79250  0.53510  0.46040  1.0000 -0.1917244275
C   C158      1.0  0.46040  0.79250  0.53510  1.0000 -0.1917244275
C   C159      1.0  0.53510  0.46040  0.79250  1.0000 -0.1917244275
C   C160      1.0  0.76512  0.97232  0.93832  1.0000 0.0585731404
C   C161      1.0  0.97232  0.93832  0.76512  1.0000 0.0585731404
C   C162      1.0  0.93832  0.76512  0.97232  1.0000 0.0585731404
C   C163      1.0  0.73488  0.56168  0.52768  1.0000 0.0585731404
C   C164      1.0  0.52768  0.73488  0.56168  1.0000 0.0585731404
C   C165      1.0  0.56168  0.52768  0.73488  1.0000 0.0585731404
C   C166      1.0  0.58066  0.17366  0.95816  1.0000 -0.2397284549
C   C167      1.0  0.17366  0.95816  0.58066  1.0000 -0.2397284549
C   C168      1.0  0.95816  0.58066  0.17366  1.0000 -0.2397284549
C   C169      1.0  0.91934  0.54184  0.32634  1.0000 -0.2397284549
C   C170      1.0  0.32634  0.91934  0.54184  1.0000 -0.2397284549
C   C171      1.0  0.54184  0.32634  0.91934  1.0000 -0.2397284549
C   C172      1.0  0.60635  0.25000  0.89365  1.0000 -0.1379409226
C   C173      1.0  0.25000  0.89365  0.60635  1.0000 -0.1379409226
C   C174      1.0  0.89365  0.60635  0.25000  1.0000 -0.1379409226
N   N1        1.0  0.27247  0.18337  0.08077  1.0000 -0.5261088552
N   N2        1.0  0.18337  0.08077  0.27247  1.0000 -0.5261088552
N   N3        1.0  0.08077  0.27247  0.18337  1.0000 -0.5261088552
N   N4        1.0  0.22753  0.41923  0.31663  1.0000 -0.5261088552
N   N5        1.0  0.31663  0.22753  0.41923  1.0000 -0.5261088552
N   N6        1.0  0.41923  0.31663  0.22753  1.0000 -0.5261088552
N   N7        1.0  0.32612  0.16062  0.02272  1.0000 0.4243817635
N   N8        1.0  0.16062  0.02272  0.32612  1.0000 0.4243817635
N   N9        1.0  0.02272  0.32612  0.16062  1.0000 0.4243817635
N   N10       1.0  0.17388  0.47728  0.33938  1.0000 0.4243817635
N   N11       1.0  0.33938  0.17388  0.47728  1.0000 0.4243817635
N   N12       1.0  0.47728  0.33938  0.17388  1.0000 0.4243817635
N   N13       1.0  0.37747  0.13887  0.96687  1.0000 -0.3475364886
N   N14       1.0  0.13887  0.96687  0.37747  1.0000 -0.3475364886
N   N15       1.0  0.96687  0.37747  0.13887  1.0000 -0.3475364886
N   N16       1.0  0.12253  0.53313  0.36113  1.0000 -0.3475364886
N   N17       1.0  0.36113  0.12253  0.53313  1.0000 -0.3475364886
N   N18       1.0  0.53313  0.36113  0.12253  1.0000 -0.3475364886
N   N19       1.0  0.20473  0.36723  0.08993  1.0000 -0.1207370946
N   N20       1.0  0.36723  0.08993  0.20473  1.0000 -0.1207370946
N   N21       1.0  0.08993  0.20473  0.36723  1.0000 -0.1207370946
N   N22       1.0  0.29527  0.41007  0.13277  1.0000 -0.1207370946
N   N23       1.0  0.13277  0.29527  0.41007  1.0000 -0.1207370946
N   N24       1.0  0.41007  0.13277  0.29527  1.0000 -0.1207370946
N   N25       1.0  0.23608  0.03908  0.11838  1.0000 -0.2471514982
N   N26       1.0  0.03908  0.11838  0.23608  1.0000 -0.2471514982
N   N27       1.0  0.11838  0.23608  0.03908  1.0000 -0.2471514982
N   N28       1.0  0.26392  0.38162  0.46092  1.0000 -0.2471514982
N   N29       1.0  0.46092  0.26392  0.38162  1.0000 -0.2471514982
N   N30       1.0  0.38162  0.46092  0.26392  1.0000 -0.2471514982
N   N31       1.0  0.72753  0.81663  0.91923  1.0000 -0.5261088552
N   N32       1.0  0.81663  0.91923  0.72753  1.0000 -0.5261088552
N   N33       1.0  0.91923  0.72753  0.81663  1.0000 -0.5261088552
N   N34       1.0  0.77247  0.58077  0.68337  1.0000 -0.5261088552
N   N35       1.0  0.68337  0.77247  0.58077  1.0000 -0.5261088552
N   N36       1.0  0.58077  0.68337  0.77247  1.0000 -0.5261088552
N   N37       1.0  0.67388  0.83938  0.97728  1.0000 0.4243817635
N   N38       1.0  0.83938  0.97728  0.67388  1.0000 0.4243817635
N   N39       1.0  0.97728  0.67388  0.83938  1.0000 0.4243817635
N   N40       1.0  0.82612  0.52272  0.66062  1.0000 0.4243817635
N   N41       1.0  0.66062  0.82612  0.52272  1.0000 0.4243817635
N   N42       1.0  0.52272  0.66062  0.82612  1.0000 0.4243817635
N   N43       1.0  0.62253  0.86113  0.03313  1.0000 -0.3475364886
N   N44       1.0  0.86113  0.03313  0.62253  1.0000 -0.3475364886
N   N45       1.0  0.03313  0.62253  0.86113  1.0000 -0.3475364886
N   N46       1.0  0.87747  0.46687  0.63887  1.0000 -0.3475364886
N   N47       1.0  0.63887  0.87747  0.46687  1.0000 -0.3475364886
N   N48       1.0  0.46687  0.63887  0.87747  1.0000 -0.3475364886
N   N49       1.0  0.79527  0.63277  0.91007  1.0000 -0.1207370946
N   N50       1.0  0.63277  0.91007  0.79527  1.0000 -0.1207370946
N   N51       1.0  0.91007  0.79527  0.63277  1.0000 -0.1207370946
N   N52       1.0  0.70473  0.58993  0.86723  1.0000 -0.1207370946
N   N53       1.0  0.86723  0.70473  0.58993  1.0000 -0.1207370946
N   N54       1.0  0.58993  0.86723  0.70473  1.0000 -0.1207370946
N   N55       1.0  0.76392  0.96092  0.88162  1.0000 -0.2471514982
N   N56       1.0  0.96092  0.88162  0.76392  1.0000 -0.2471514982
N   N57       1.0  0.88162  0.76392  0.96092  1.0000 -0.2471514982
N   N58       1.0  0.73608  0.61838  0.53908  1.0000 -0.2471514982
N   N59       1.0  0.53908  0.73608  0.61838  1.0000 -0.2471514982
N   N60       1.0  0.61838  0.53908  0.73608  1.0000 -0.2471514982
O   O1        1.0  0.22159  0.22159  0.22159  1.0000 -0.7341160667
O   O2        1.0  0.27841  0.27841  0.27841  1.0000 -0.7351244581
O   O3        1.0  0.36319  0.29146  0.99830  1.0000 -0.4765793995
O   O4        1.0  0.29146  0.99830  0.36319  1.0000 -0.4765793995
O   O5        1.0  0.99830  0.36319  0.29146  1.0000 -0.4765793995
O   O6        1.0  0.13681  0.50170  0.20854  1.0000 -0.4765793995
O   O7        1.0  0.20854  0.13681  0.50170  1.0000 -0.4765793995
O   O8        1.0  0.50170  0.20854  0.13681  1.0000 -0.4765793995
O   O9        1.0  0.14566  0.38576  0.16170  1.0000 -0.3922758243
O   O10       1.0  0.38576  0.16170  0.14566  1.0000 -0.3922758243
O   O11       1.0  0.16170  0.14566  0.38576  1.0000 -0.3922758243
O   O12       1.0  0.35434  0.33830  0.11424  1.0000 -0.3922758243
O   O13       1.0  0.11424  0.35434  0.33830  1.0000 -0.3922758243
O   O14       1.0  0.33830  0.11424  0.35434  1.0000 -0.3922758243
O   O15       1.0  0.77841  0.77841  0.77841  1.0000 -0.7351244581
O   O16       1.0  0.72159  0.72159  0.72159  1.0000 -0.7341160667
O   O17       1.0  0.63681  0.70854  0.00170  1.0000 -0.4765793995
O   O18       1.0  0.70854  0.00170  0.63681  1.0000 -0.4765793995
O   O19       1.0  0.00170  0.63681  0.70854  1.0000 -0.4765793995
O   O20       1.0  0.86319  0.49830  0.79146  1.0000 -0.4765793995
O   O21       1.0  0.79146  0.86319  0.49830  1.0000 -0.4765793995
O   O22       1.0  0.49830  0.79146  0.86319  1.0000 -0.4765793995
O   O23       1.0  0.85434  0.61424  0.83830  1.0000 -0.3922758243
O   O24       1.0  0.61424  0.83830  0.85434  1.0000 -0.3922758243
O   O25       1.0  0.83830  0.85434  0.61424  1.0000 -0.3922758243
O   O26       1.0  0.64566  0.66170  0.88576  1.0000 -0.3922758243
O   O27       1.0  0.88576  0.64566  0.66170  1.0000 -0.3922758243
O   O28       1.0  0.66170  0.88576  0.64566  1.0000 -0.3922758243
