# DDEC6 charges by PACMAN v1.1 (https://github.com/mtap-research/PACMAN-charge/)
data_2012[CuGd][sqc]3[ASR]1
_chemical_formula_sum              "Gd2 Cu3 H84 C54 N12 O24"
_cell_length_a       8.8492
_cell_length_b       17.245
_cell_length_c       17.791
_cell_angle_alpha    115.275
_cell_angle_beta     95.662
_cell_angle_gamma    103.865

_symmetry_space_group_name_H-M    "P 1"
_symmetry_Int_Tables_number       1

loop_
  _symmetry_equiv_pos_as_xyz
  'x, y, z'

loop_
  _atom_site_type_symbol
  _atom_site_label
  _atom_site_symmetry_multiplicity
  _atom_site_fract_x
  _atom_site_fract_y
  _atom_site_fract_z
  _atom_site_occupancy
  _atom_site_charge
Gd  Gd1       1.0  0.81422  0.78035  0.62472  1.0000 1.9534657401
Gd  Gd2       1.0  0.18578  0.21965  0.37528  1.0000 1.9534657401
Cu  Cu1       1.0  0.00000  0.50000  0.50000  1.0000 0.5973381204
Cu  Cu2       1.0  0.50000  0.00000  0.50000  1.0000 0.5399660272
Cu  Cu3       1.0  0.50000  0.00000  0.00000  1.0000 0.5973381204
H   H1        1.0  0.01910  0.63470  0.38410  1.0000 0.1383373626
H   H2        1.0  0.98090  0.36530  0.61590  1.0000 0.1383373626
H   H3        1.0  0.85460  0.55880  0.35250  1.0000 0.1383373626
H   H4        1.0  0.14540  0.44120  0.64750  1.0000 0.1383373626
H   H5        1.0  0.06000  0.41100  0.31840  1.0000 0.1312024751
H   H6        1.0  0.94000  0.58900  0.68160  1.0000 0.1312024751
H   H7        1.0  0.01210  0.46560  0.27410  1.0000 0.1103983807
H   H8        1.0  0.98790  0.53440  0.72590  1.0000 0.1103983807
H   H9        1.0  0.80280  0.33950  0.23200  1.0000 0.1312024751
H   H10       1.0  0.19720  0.66050  0.76800  1.0000 0.1312024751
H   H11       1.0  0.75130  0.42260  0.28840  1.0000 0.1019268113
H   H12       1.0  0.24870  0.57740  0.71160  1.0000 0.1019268113
H   H13       1.0  0.65880  0.30000  0.31870  1.0000 0.1187842006
H   H14       1.0  0.34120  0.70000  0.68130  1.0000 0.1187842006
H   H15       1.0  0.83640  0.30760  0.34960  1.0000 0.1103983807
H   H16       1.0  0.16360  0.69240  0.65040  1.0000 0.1103983807
H   H17       1.0  0.67990  0.49140  0.40250  1.0000 0.1187842006
H   H18       1.0  0.32010  0.50860  0.59750  1.0000 0.1187842006
H   H19       1.0  0.64670  0.49620  0.48890  1.0000 0.1383373626
H   H20       1.0  0.35330  0.50380  0.51110  1.0000 0.1312024751
H   H21       1.0  0.23350  0.60240  0.38650  1.0000 0.1187842006
H   H22       1.0  0.76650  0.39760  0.61350  1.0000 0.1187842006
H   H23       1.0  0.26390  0.52710  0.40790  1.0000 0.1312024751
H   H24       1.0  0.73610  0.47290  0.59210  1.0000 0.1187842006
H   H25       1.0  0.37930  0.67110  0.52830  1.0000 0.1312024751
H   H26       1.0  0.62070  0.32890  0.47170  1.0000 0.1312024751
H   H27       1.0  0.20990  0.68480  0.52830  1.0000 0.1103983807
H   H28       1.0  0.79010  0.31520  0.47170  1.0000 0.1103983807
H   H29       1.0  0.34300  0.91210  0.61730  1.0000 0.1187842006
H   H30       1.0  0.65700  0.08790  0.38270  1.0000 0.1187842006
H   H31       1.0  0.24200  0.84220  0.52550  1.0000 0.1312024751
H   H32       1.0  0.75800  0.15780  0.47450  1.0000 0.1312024751
H   H33       1.0  0.04770  0.91530  0.48150  1.0000 0.1187842006
H   H34       1.0  0.95230  0.08470  0.51850  1.0000 0.1187842006
H   H35       1.0  0.14360  0.00130  0.47600  1.0000 0.1103983807
H   H36       1.0  0.85640  0.99870  0.52400  1.0000 0.1103983807
H   H37       1.0  0.10000  0.86910  0.34940  1.0000 0.1187842006
H   H38       1.0  0.90000  0.13090  0.65060  1.0000 0.1187842006
H   H39       1.0  0.20240  0.83560  0.39950  1.0000 0.1187842006
H   H40       1.0  0.79760  0.16440  0.60050  1.0000 0.1187842006
H   H41       1.0  0.38660  0.02900  0.33310  1.0000 0.1501480257
H   H42       1.0  0.61340  0.97100  0.66690  1.0000 0.1501480257
H   H43       1.0  0.21950  0.01610  0.35600  1.0000 0.1501480257
H   H44       1.0  0.78050  0.98390  0.64400  1.0000 0.1501480257
H   H45       1.0  0.61960  0.17260  0.67150  1.0000 0.1103983807
H   H46       1.0  0.38040  0.82740  0.32850  1.0000 0.1103983807
H   H47       1.0  0.69300  0.14210  0.73400  1.0000 0.1103983807
H   H48       1.0  0.30700  0.85790  0.26600  1.0000 0.1103983807
H   H49       1.0  0.43780  0.03550  0.70640  1.0000 0.1019268113
H   H50       1.0  0.56220  0.96450  0.29360  1.0000 0.1019268113
H   H51       1.0  0.43180  0.13450  0.74880  1.0000 0.1187842006
H   H52       1.0  0.56820  0.86550  0.25120  1.0000 0.1187842006
H   H53       1.0  0.19420  0.05570  0.64540  1.0000 0.1103983807
H   H54       1.0  0.80580  0.94430  0.35460  1.0000 0.1103983807
H   H55       1.0  0.30260  0.10390  0.60320  1.0000 0.1019268113
H   H56       1.0  0.69740  0.89610  0.39680  1.0000 0.1019268113
H   H57       1.0  0.77560  0.95550  0.90300  1.0000 0.1312024751
H   H58       1.0  0.22440  0.04450  0.09700  1.0000 0.1312024751
H   H59       1.0  0.69430  0.00450  0.86320  1.0000 0.1312024751
H   H60       1.0  0.30570  0.99550  0.13680  1.0000 0.1312024751
H   H61       1.0  0.41670  0.88110  0.75910  1.0000 0.1187842006
H   H62       1.0  0.58330  0.11890  0.24090  1.0000 0.1187842006
H   H63       1.0  0.30140  0.86070  0.81480  1.0000 0.1103983807
H   H64       1.0  0.69860  0.13930  0.18520  1.0000 0.1103983807
H   H65       1.0  0.53140  0.77990  0.82000  1.0000 0.1187842006
H   H66       1.0  0.46860  0.22010  0.18000  1.0000 0.1187842006
H   H67       1.0  0.41980  0.79900  0.88410  1.0000 0.1103983807
H   H68       1.0  0.58020  0.20100  0.11590  1.0000 0.1103983807
H   H69       1.0  0.64010  0.76130  0.92880  1.0000 0.1187842006
H   H70       1.0  0.35990  0.23870  0.07120  1.0000 0.1187842006
H   H71       1.0  0.75430  0.85090  0.93760  1.0000 0.1103983807
H   H72       1.0  0.24570  0.14910  0.06240  1.0000 0.1103983807
H   H73       1.0  0.53220  0.84390  0.03970  1.0000 0.1103983807
H   H74       1.0  0.46780  0.15610  0.96030  1.0000 0.1103983807
H   H75       1.0  0.71620  0.86580  0.07060  1.0000 0.1103983807
H   H76       1.0  0.28380  0.13420  0.92940  1.0000 0.1103983807
H   H77       1.0  0.70960  0.00890  0.19460  1.0000 0.1187842006
H   H78       1.0  0.29040  0.99110  0.80540  1.0000 0.1187842006
H   H79       1.0  0.52590  0.96360  0.15270  1.0000 0.1103983807
H   H80       1.0  0.47410  0.03640  0.84730  1.0000 0.1103983807
H   H81       1.0  0.89080  0.04120  0.13220  1.0000 0.1383373626
H   H82       1.0  0.10920  0.95880  0.86780  1.0000 0.1383373626
H   H83       1.0  0.87210  0.98290  0.03410  1.0000 0.1312024751
H   H84       1.0  0.12790  0.01710  0.96590  1.0000 0.1312024751
C   C1        1.0  0.90260  0.64550  0.47870  1.0000 0.5915498736
C   C2        1.0  0.09740  0.35450  0.52130  1.0000 0.5915498736
C   C3        1.0  0.95010  0.59260  0.39830  1.0000 -0.2839127379
C   C4        1.0  0.04990  0.40740  0.60170  1.0000 -0.2839127379
C   C5        1.0  0.99080  0.44650  0.31700  1.0000 -0.1012083272
C   C6        1.0  0.00920  0.55350  0.68300  1.0000 -0.1012083272
C   C7        1.0  0.82010  0.38690  0.28990  1.0000 -0.2041524844
C   C8        1.0  0.17990  0.61310  0.71010  1.0000 -0.2041524844
C   C9        1.0  0.76610  0.34190  0.34600  1.0000 -0.1106402884
C   C10       1.0  0.23390  0.65810  0.65400  1.0000 -0.1106402884
C   C11       1.0  0.64650  0.45520  0.43090  1.0000 -0.2739155489
C   C12       1.0  0.35350  0.54480  0.56910  1.0000 -0.2739155489
C   C13       1.0  0.47340  0.39260  0.38470  1.0000 0.6258064908
C   C14       1.0  0.52660  0.60740  0.61530  1.0000 0.6258064908
C   C15       1.0  0.20920  0.57220  0.42110  1.0000 -0.1291664625
C   C16       1.0  0.79080  0.42780  0.57890  1.0000 -0.1291664625
C   C17       1.0  0.26560  0.64020  0.51490  1.0000 -0.1383669982
C   C18       1.0  0.73440  0.35980  0.48510  1.0000 -0.1383669982
C   C19       1.0  0.10240  0.87700  0.61220  1.0000 0.5827622218
C   C20       1.0  0.89760  0.12300  0.38780  1.0000 0.5827622218
C   C21       1.0  0.24810  0.89750  0.57530  1.0000 -0.2590896683
C   C22       1.0  0.75190  0.10250  0.42470  1.0000 -0.2590896683
C   C23       1.0  0.15050  0.94630  0.47690  1.0000 -0.1291664625
C   C24       1.0  0.84950  0.05370  0.52310  1.0000 -0.1291664625
C   C25       1.0  0.18720  0.88870  0.39750  1.0000 -0.1732439818
C   C26       1.0  0.81280  0.11130  0.60250  1.0000 -0.1732439818
C   C27       1.0  0.33160  0.02630  0.37690  1.0000 -0.3484804826
C   C28       1.0  0.66840  0.97370  0.62310  1.0000 -0.3484804826
C   C29       1.0  0.39530  0.11560  0.45400  1.0000 0.6059936089
C   C30       1.0  0.60470  0.88440  0.54600  1.0000 0.6059936089
C   C31       1.0  0.61390  0.12130  0.68200  1.0000 -0.1012083272
C   C32       1.0  0.38610  0.87870  0.31800  1.0000 -0.1012083272
C   C33       1.0  0.44230  0.08720  0.69670  1.0000 -0.2146063643
C   C34       1.0  0.55770  0.91280  0.30330  1.0000 -0.2146063643
C   C35       1.0  0.28980  0.05880  0.62300  1.0000 -0.1012083272
C   C36       1.0  0.71020  0.94120  0.37700  1.0000 -0.1012083272
C   C37       1.0  0.72420  0.89060  0.77310  1.0000 0.5915498736
C   C38       1.0  0.27580  0.10940  0.22690  1.0000 0.5915498736
C   C39       1.0  0.68970  0.94570  0.85850  1.0000 -0.2590896683
C   C40       1.0  0.31030  0.05430  0.14150  1.0000 -0.2590896683
C   C41       1.0  0.39780  0.90300  0.81620  1.0000 -0.1383669982
C   C42       1.0  0.60220  0.09700  0.18380  1.0000 -0.1383669982
C   C43       1.0  0.52490  0.82210  0.87610  1.0000 -0.1106402884
C   C44       1.0  0.47510  0.17790  0.12390  1.0000 -0.1106402884
C   C45       1.0  0.64890  0.82320  0.94240  1.0000 -0.2041524844
C   C46       1.0  0.35110  0.17680  0.05760  1.0000 -0.2041524844
C   C47       1.0  0.63640  0.87280  0.03460  1.0000 -0.1012083272
C   C48       1.0  0.36360  0.12720  0.96540  1.0000 -0.1012083272
C   C49       1.0  0.62280  0.00560  0.15430  1.0000 -0.150257376
C   C50       1.0  0.37720  0.99440  0.84570  1.0000 -0.150257376
C   C51       1.0  0.82790  0.02320  0.07620  1.0000 -0.303527941
C   C52       1.0  0.17210  0.97680  0.92380  1.0000 -0.303527941
C   C53       1.0  0.84470  0.10530  0.06430  1.0000 0.5915498736
C   C54       1.0  0.15530  0.89470  0.93570  1.0000 0.5915498736
N   N1        1.0  0.03410  0.52820  0.40150  1.0000 -0.0732907477
N   N2        1.0  0.96590  0.47180  0.59850  1.0000 -0.0732907477
N   N3        1.0  0.76760  0.40840  0.43420  1.0000 -0.0615256699
N   N4        1.0  0.23240  0.59160  0.56580  1.0000 -0.0615256699
N   N5        1.0  0.34550  0.94560  0.38750  1.0000 -0.0515441793
N   N6        1.0  0.65450  0.05440  0.61250  1.0000 -0.0515441793
N   N7        1.0  0.27260  0.96910  0.55010  1.0000 -0.1012083272
N   N8        1.0  0.72740  0.03090  0.44990  1.0000 -0.1012083272
N   N9        1.0  0.65810  0.97200  0.06860  1.0000 -0.0615256699
N   N10       1.0  0.34190  0.02800  0.93140  1.0000 -0.0615256699
N   N11       1.0  0.53740  0.90960  0.87680  1.0000 -0.0754525485
N   N12       1.0  0.46260  0.09040  0.12320  1.0000 -0.0732907477
O   O1        1.0  0.91430  0.62990  0.54020  1.0000 -0.5811973261
O   O2        1.0  0.08570  0.37010  0.45980  1.0000 -0.5811973261
O   O3        1.0  0.84810  0.70920  0.47930  1.0000 -0.637516697
O   O4        1.0  0.15190  0.29080  0.52070  1.0000 -0.637516697
O   O5        1.0  0.39950  0.35110  0.42120  1.0000 -0.6910212236
O   O6        1.0  0.60050  0.64890  0.57880  1.0000 -0.6910212236
O   O7        1.0  0.41360  0.39030  0.31760  1.0000 -0.5811973261
O   O8        1.0  0.58640  0.60970  0.68240  1.0000 -0.5811973261
O   O9        1.0  0.10330  0.82890  0.64750  1.0000 -0.6166064538
O   O10       1.0  0.89670  0.17110  0.35250  1.0000 -0.6166064538
O   O11       1.0  0.98510  0.90400  0.60210  1.0000 -0.6166064538
O   O12       1.0  0.01490  0.09600  0.39790  1.0000 -0.6166064538
O   O13       1.0  0.36700  0.18340  0.44690  1.0000 -0.637516697
O   O14       1.0  0.63300  0.81660  0.55310  1.0000 -0.637516697
O   O15       1.0  0.47160  0.12350  0.51390  1.0000 -0.434541841
O   O16       1.0  0.52840  0.87650  0.48610  1.0000 -0.434541841
O   O17       1.0  0.85660  0.91980  0.76040  1.0000 -0.6141739386
O   O18       1.0  0.14340  0.08020  0.23960  1.0000 -0.6141739386
O   O19       1.0  0.62200  0.81740  0.71610  1.0000 -0.6166064538
O   O20       1.0  0.37800  0.18260  0.28390  1.0000 -0.6166064538
O   O21       1.0  0.72600  0.11050  0.02420  1.0000 -0.5873785513
O   O22       1.0  0.27400  0.88950  0.97580  1.0000 -0.5873785513
O   O23       1.0  0.98150  0.16480  0.09590  1.0000 -0.5964185792
O   O24       1.0  0.01850  0.83520  0.90410  1.0000 -0.5964185792
