# DDEC6 charges by PACMAN v1.1 (https://github.com/mtap-research/PACMAN-charge/)
data_2012[Cu][tbo]3[ASR]6
_chemical_formula_sum              "Cu12 H24 C72 O48"
_cell_length_a       18.3471
_cell_length_b       18.3471
_cell_length_c       18.3471
_cell_angle_alpha    60
_cell_angle_beta     60
_cell_angle_gamma    60

_symmetry_space_group_name_H-M    "P 1"
_symmetry_Int_Tables_number       1

loop_
  _symmetry_equiv_pos_as_xyz
  'x, y, z'

loop_
  _atom_site_type_symbol
  _atom_site_label
  _atom_site_symmetry_multiplicity
  _atom_site_fract_x
  _atom_site_fract_y
  _atom_site_fract_z
  _atom_site_occupancy
  _atom_site_charge
Cu  Cu1       1.0  0.00000  0.57080  0.42920  1.0000 0.8635209638
Cu  Cu2       1.0  0.57080  0.42920  0.00000  1.0000 0.8635209638
Cu  Cu3       1.0  0.42920  0.00000  0.57080  1.0000 0.8635209638
Cu  Cu4       1.0  0.57080  0.00000  0.00000  1.0000 0.8635209638
Cu  Cu5       1.0  0.42920  0.57080  0.00000  1.0000 0.8635209638
Cu  Cu6       1.0  0.00000  0.42920  0.00000  1.0000 0.8635209638
Cu  Cu7       1.0  0.00000  0.00000  0.42920  1.0000 0.8635209638
Cu  Cu8       1.0  0.00000  0.57080  0.00000  1.0000 0.8635209638
Cu  Cu9       1.0  0.57080  0.00000  0.42920  1.0000 0.8635209638
Cu  Cu10      1.0  0.42920  0.00000  0.00000  1.0000 0.8635209638
Cu  Cu11      1.0  0.00000  0.00000  0.57080  1.0000 0.8635209638
Cu  Cu12      1.0  1.00000  0.42920  0.57080  1.0000 0.8635209638
H   H1        1.0  0.27250  0.49090  0.27250  1.0000 0.136903866
H   H2        1.0  0.49090  0.27250  0.27250  1.0000 0.136903866
H   H3        1.0  0.27250  0.27250  0.49090  1.0000 0.136903866
H   H4        1.0  0.49090  0.27250  0.96410  1.0000 0.136903866
H   H5        1.0  0.27250  0.49090  0.96410  1.0000 0.136903866
H   H6        1.0  0.27250  0.27250  0.96410  1.0000 0.136903866
H   H7        1.0  0.96410  0.27250  0.27250  1.0000 0.136903866
H   H8        1.0  0.96410  0.49090  0.27250  1.0000 0.136903866
H   H9        1.0  0.49090  0.96410  0.27250  1.0000 0.136903866
H   H10       1.0  0.27250  0.96410  0.27250  1.0000 0.136903866
H   H11       1.0  0.27250  0.96410  0.49090  1.0000 0.136903866
H   H12       1.0  0.96410  0.27250  0.49090  1.0000 0.136903866
H   H13       1.0  0.50910  0.72750  0.72750  1.0000 0.136903866
H   H14       1.0  0.72750  0.50910  0.72750  1.0000 0.136903866
H   H15       1.0  0.72750  0.72750  0.50910  1.0000 0.136903866
H   H16       1.0  0.72750  0.50910  0.03590  1.0000 0.136903866
H   H17       1.0  0.50910  0.72750  0.03590  1.0000 0.136903866
H   H18       1.0  0.72750  0.72750  0.03590  1.0000 0.136903866
H   H19       1.0  0.72750  0.03590  0.72750  1.0000 0.136903866
H   H20       1.0  0.50910  0.03590  0.72750  1.0000 0.136903866
H   H21       1.0  0.03590  0.50910  0.72750  1.0000 0.136903866
H   H22       1.0  0.03590  0.72750  0.72750  1.0000 0.136903866
H   H23       1.0  0.03590  0.72750  0.50910  1.0000 0.136903866
H   H24       1.0  0.72750  0.03590  0.50910  1.0000 0.136903866
C   C1        1.0  0.30250  0.43130  0.30250  1.0000 -0.0844010489
C   C2        1.0  0.43130  0.30250  0.30250  1.0000 -0.0844010489
C   C3        1.0  0.30250  0.30250  0.43130  1.0000 -0.0844010489
C   C4        1.0  0.43130  0.30250  0.96370  1.0000 -0.0844010489
C   C5        1.0  0.30250  0.43130  0.96370  1.0000 -0.0844010489
C   C6        1.0  0.30250  0.30250  0.96370  1.0000 -0.0844010489
C   C7        1.0  0.96370  0.30250  0.30250  1.0000 -0.0844010489
C   C8        1.0  0.96370  0.43130  0.30250  1.0000 -0.0844010489
C   C9        1.0  0.43130  0.96370  0.30250  1.0000 -0.0844010489
C   C10       1.0  0.30250  0.96370  0.30250  1.0000 -0.0844010489
C   C11       1.0  0.30250  0.96370  0.43130  1.0000 -0.0844010489
C   C12       1.0  0.96370  0.30250  0.43130  1.0000 -0.0844010489
C   C13       1.0  0.56870  0.69750  0.69750  1.0000 -0.0844010489
C   C14       1.0  0.69750  0.56870  0.69750  1.0000 -0.0844010489
C   C15       1.0  0.69750  0.69750  0.56870  1.0000 -0.0844010489
C   C16       1.0  0.69750  0.56870  0.03630  1.0000 -0.0844010489
C   C17       1.0  0.56870  0.69750  0.03630  1.0000 -0.0844010489
C   C18       1.0  0.69750  0.69750  0.03630  1.0000 -0.0844010489
C   C19       1.0  0.69750  0.03630  0.69750  1.0000 -0.0844010489
C   C20       1.0  0.56870  0.03630  0.69750  1.0000 -0.0844010489
C   C21       1.0  0.03630  0.56870  0.69750  1.0000 -0.0844010489
C   C22       1.0  0.03630  0.69750  0.69750  1.0000 -0.0844010489
C   C23       1.0  0.03630  0.69750  0.56870  1.0000 -0.0844010489
C   C24       1.0  0.69750  0.03630  0.56870  1.0000 -0.0844010489
C   C25       1.0  0.25930  0.38910  0.38910  1.0000 -0.0314869355
C   C26       1.0  0.38910  0.38910  0.25930  1.0000 -0.0314869355
C   C27       1.0  0.38910  0.25930  0.38910  1.0000 -0.0314869355
C   C28       1.0  0.38910  0.25930  0.96250  1.0000 -0.0314869355
C   C29       1.0  0.38910  0.38910  0.96250  1.0000 -0.0314869355
C   C30       1.0  0.25930  0.38910  0.96250  1.0000 -0.0314869355
C   C31       1.0  0.96250  0.25930  0.38910  1.0000 -0.0314869355
C   C32       1.0  0.96250  0.38910  0.25930  1.0000 -0.0314869355
C   C33       1.0  0.38910  0.96250  0.38910  1.0000 -0.0314869355
C   C34       1.0  0.38910  0.96250  0.25930  1.0000 -0.0314869355
C   C35       1.0  0.25930  0.96250  0.38910  1.0000 -0.0314869355
C   C36       1.0  0.96250  0.38910  0.38910  1.0000 -0.0314869355
C   C37       1.0  0.61090  0.74070  0.61090  1.0000 -0.0314869355
C   C38       1.0  0.61090  0.61090  0.74070  1.0000 -0.0314869355
C   C39       1.0  0.74070  0.61090  0.61090  1.0000 -0.0314869355
C   C40       1.0  0.74070  0.61090  0.03750  1.0000 -0.0314869355
C   C41       1.0  0.61090  0.61090  0.03750  1.0000 -0.0314869355
C   C42       1.0  0.61090  0.74070  0.03750  1.0000 -0.0314869355
C   C43       1.0  0.74070  0.03750  0.61090  1.0000 -0.0314869355
C   C44       1.0  0.61090  0.03750  0.74070  1.0000 -0.0314869355
C   C45       1.0  0.03750  0.61090  0.61090  1.0000 -0.0314869355
C   C46       1.0  0.03750  0.61090  0.74070  1.0000 -0.0314869355
C   C47       1.0  0.03750  0.74070  0.61090  1.0000 -0.0314869355
C   C48       1.0  0.61090  0.03750  0.61090  1.0000 -0.0314869355
C   C49       1.0  0.16140  0.43060  0.43060  1.0000 0.581330487
C   C50       1.0  0.43060  0.43060  0.16140  1.0000 0.581330487
C   C51       1.0  0.43060  0.16140  0.43060  1.0000 0.581330487
C   C52       1.0  0.43060  0.16140  0.97740  1.0000 0.581330487
C   C53       1.0  0.43060  0.43060  0.97740  1.0000 0.581330487
C   C54       1.0  0.16140  0.43060  0.97740  1.0000 0.581330487
C   C55       1.0  0.97740  0.16140  0.43060  1.0000 0.581330487
C   C56       1.0  0.97740  0.43060  0.16140  1.0000 0.581330487
C   C57       1.0  0.43060  0.97740  0.43060  1.0000 0.581330487
C   C58       1.0  0.43060  0.97740  0.16140  1.0000 0.581330487
C   C59       1.0  0.16140  0.97740  0.43060  1.0000 0.581330487
C   C60       1.0  0.97740  0.43060  0.43060  1.0000 0.581330487
C   C61       1.0  0.56940  0.83860  0.56940  1.0000 0.581330487
C   C62       1.0  0.56940  0.56940  0.83860  1.0000 0.581330487
C   C63       1.0  0.83860  0.56940  0.56940  1.0000 0.581330487
C   C64       1.0  0.83860  0.56940  0.02260  1.0000 0.581330487
C   C65       1.0  0.56940  0.56940  0.02260  1.0000 0.581330487
C   C66       1.0  0.56940  0.83860  0.02260  1.0000 0.581330487
C   C67       1.0  0.83860  0.02260  0.56940  1.0000 0.581330487
C   C68       1.0  0.56940  0.02260  0.83860  1.0000 0.581330487
C   C69       1.0  0.02260  0.56940  0.56940  1.0000 0.581330487
C   C70       1.0  0.02260  0.56940  0.83860  1.0000 0.581330487
C   C71       1.0  0.02260  0.83860  0.56940  1.0000 0.581330487
C   C72       1.0  0.56940  0.02260  0.56940  1.0000 0.581330487
O   O1        1.0  0.12380  0.50940  0.38720  1.0000 -0.5170534252
O   O2        1.0  0.50940  0.38720  0.12380  1.0000 -0.5170534252
O   O3        1.0  0.38720  0.12380  0.50940  1.0000 -0.5170534252
O   O4        1.0  0.50940  0.12380  0.97960  1.0000 -0.5170534252
O   O5        1.0  0.38720  0.50940  0.97960  1.0000 -0.5170534252
O   O6        1.0  0.12380  0.38720  0.97960  1.0000 -0.5170534252
O   O7        1.0  0.97960  0.12380  0.38720  1.0000 -0.5170534252
O   O8        1.0  0.97960  0.50940  0.12380  1.0000 -0.5170534252
O   O9        1.0  0.50940  0.97960  0.38720  1.0000 -0.5170534252
O   O10       1.0  0.38720  0.97960  0.12380  1.0000 -0.5170534252
O   O11       1.0  0.12380  0.97960  0.50940  1.0000 -0.5170534252
O   O12       1.0  0.97960  0.38720  0.50940  1.0000 -0.5170534252
O   O13       1.0  0.49060  0.87620  0.61280  1.0000 -0.5170534252
O   O14       1.0  0.61280  0.49060  0.87620  1.0000 -0.5170534252
O   O15       1.0  0.87620  0.61280  0.49060  1.0000 -0.5170534252
O   O16       1.0  0.87620  0.49060  0.02040  1.0000 -0.5170534252
O   O17       1.0  0.49060  0.61280  0.02040  1.0000 -0.5170534252
O   O18       1.0  0.61280  0.87620  0.02040  1.0000 -0.5170534252
O   O19       1.0  0.87620  0.02040  0.61280  1.0000 -0.5170534252
O   O20       1.0  0.49060  0.02040  0.87620  1.0000 -0.5170534252
O   O21       1.0  0.02040  0.49060  0.61280  1.0000 -0.5170534252
O   O22       1.0  0.02040  0.61280  0.87620  1.0000 -0.5170534252
O   O23       1.0  0.02040  0.87620  0.49060  1.0000 -0.5170534252
O   O24       1.0  0.61280  0.02040  0.49060  1.0000 -0.5170534252
O   O25       1.0  0.87620  0.49060  0.61280  1.0000 -0.5170534252
O   O26       1.0  0.49060  0.61280  0.87620  1.0000 -0.5170534252
O   O27       1.0  0.61280  0.87620  0.49060  1.0000 -0.5170534252
O   O28       1.0  0.49060  0.87620  0.02040  1.0000 -0.5170534252
O   O29       1.0  0.61280  0.49060  0.02040  1.0000 -0.5170534252
O   O30       1.0  0.87620  0.61280  0.02040  1.0000 -0.5170534252
O   O31       1.0  0.02040  0.87620  0.61280  1.0000 -0.5170534252
O   O32       1.0  0.02040  0.49060  0.87620  1.0000 -0.5170534252
O   O33       1.0  0.49060  0.02040  0.61280  1.0000 -0.5170534252
O   O34       1.0  0.61280  0.02040  0.87620  1.0000 -0.5170534252
O   O35       1.0  0.87620  0.02040  0.49060  1.0000 -0.5170534252
O   O36       1.0  0.02040  0.61280  0.49060  1.0000 -0.5170534252
O   O37       1.0  0.50940  0.12380  0.38720  1.0000 -0.5170534252
O   O38       1.0  0.38720  0.50940  0.12380  1.0000 -0.5170534252
O   O39       1.0  0.12380  0.38720  0.50940  1.0000 -0.5170534252
O   O40       1.0  0.12380  0.50940  0.97960  1.0000 -0.5170534252
O   O41       1.0  0.50940  0.38720  0.97960  1.0000 -0.5170534252
O   O42       1.0  0.38720  0.12380  0.97960  1.0000 -0.5170534252
O   O43       1.0  0.12380  0.97960  0.38720  1.0000 -0.5170534252
O   O44       1.0  0.50940  0.97960  0.12380  1.0000 -0.5170534252
O   O45       1.0  0.97960  0.50940  0.38720  1.0000 -0.5170534252
O   O46       1.0  0.97960  0.38720  0.12380  1.0000 -0.5170534252
O   O47       1.0  0.97960  0.12380  0.50940  1.0000 -0.5170534252
O   O48       1.0  0.38720  0.97960  0.50940  1.0000 -0.5170534252
