# DDEC6 charges by PACMAN v1.1 (https://github.com/mtap-research/PACMAN-charge/)
data_2012[CoCr][mmo]3[ASR]1
_chemical_formula_sum              "Cr3 Co3 H60 C72 N12 O6"
_cell_length_a       13.6618
_cell_length_b       13.6618
_cell_length_c       13.6618
_cell_angle_alpha    103.244
_cell_angle_beta     103.244
_cell_angle_gamma    103.244

_symmetry_space_group_name_H-M    "P 1"
_symmetry_Int_Tables_number       1

loop_
  _symmetry_equiv_pos_as_xyz
  'x, y, z'

loop_
  _atom_site_type_symbol
  _atom_site_label
  _atom_site_symmetry_multiplicity
  _atom_site_fract_x
  _atom_site_fract_y
  _atom_site_fract_z
  _atom_site_occupancy
  _atom_site_charge
Cr  Cr1       1.0  0.71302  0.50000  0.28698  1.0000 1.0592140986
Cr  Cr2       1.0  0.50000  0.28698  0.71302  1.0000 1.0719920828
Cr  Cr3       1.0  0.28698  0.71302  0.50000  1.0000 1.0592140986
Co  Co1       1.0  0.61809  0.38191  0.00000  1.0000 0.7553587391
Co  Co2       1.0  0.38191  0.00000  0.61809  1.0000 0.7553587391
Co  Co3       1.0  0.00000  0.61809  0.38191  1.0000 0.7553587391
H   H1        1.0  0.65020  0.92060  0.11280  1.0000 0.1097306663
H   H2        1.0  0.92060  0.11280  0.65020  1.0000 0.1097306663
H   H3        1.0  0.11280  0.65020  0.92060  1.0000 0.1097306663
H   H4        1.0  0.07940  0.34980  0.88720  1.0000 0.1097306663
H   H5        1.0  0.88720  0.07940  0.34980  1.0000 0.1097306663
H   H6        1.0  0.34980  0.88720  0.07940  1.0000 0.1097306663
H   H7        1.0  0.63060  0.76310  0.12670  1.0000 0.119629567
H   H8        1.0  0.76310  0.12670  0.63060  1.0000 0.119629567
H   H9        1.0  0.12670  0.63060  0.76310  1.0000 0.119629567
H   H10       1.0  0.23690  0.36940  0.87330  1.0000 0.119629567
H   H11       1.0  0.87330  0.23690  0.36940  1.0000 0.119629567
H   H12       1.0  0.36940  0.87330  0.23690  1.0000 0.119629567
H   H13       1.0  0.66700  0.68560  0.83930  1.0000 0.119629567
H   H14       1.0  0.68560  0.83930  0.66700  1.0000 0.119629567
H   H15       1.0  0.83930  0.66700  0.68560  1.0000 0.119629567
H   H16       1.0  0.31440  0.33300  0.16070  1.0000 0.119629567
H   H17       1.0  0.16070  0.31440  0.33300  1.0000 0.119629567
H   H18       1.0  0.33300  0.16070  0.31440  1.0000 0.119629567
H   H19       1.0  0.63700  0.09560  0.18470  1.0000 0.119629567
H   H20       1.0  0.09560  0.18470  0.63700  1.0000 0.119629567
H   H21       1.0  0.18470  0.63700  0.09560  1.0000 0.119629567
H   H22       1.0  0.90440  0.36300  0.81530  1.0000 0.119629567
H   H23       1.0  0.81530  0.90440  0.36300  1.0000 0.119629567
H   H24       1.0  0.36300  0.81530  0.90440  1.0000 0.119629567
H   H25       1.0  0.62270  0.25470  0.16440  1.0000 0.0813901971
H   H26       1.0  0.25470  0.16440  0.62270  1.0000 0.0813901971
H   H27       1.0  0.16440  0.62270  0.25470  1.0000 0.0813901971
H   H28       1.0  0.74530  0.37730  0.83560  1.0000 0.0813901971
H   H29       1.0  0.83560  0.74530  0.37730  1.0000 0.0813901971
H   H30       1.0  0.37730  0.83560  0.74530  1.0000 0.0813901971
H   H31       1.0  0.64650  0.51700  0.84660  1.0000 0.0813901971
H   H32       1.0  0.51700  0.84660  0.64650  1.0000 0.0813901971
H   H33       1.0  0.84660  0.64650  0.51700  1.0000 0.0813901971
H   H34       1.0  0.48300  0.35350  0.15340  1.0000 0.0813901971
H   H35       1.0  0.15340  0.48300  0.35350  1.0000 0.0813901971
H   H36       1.0  0.35350  0.15340  0.48300  1.0000 0.0813901971
H   H37       1.0  0.64940  0.86200  0.90760  1.0000 0.1097306663
H   H38       1.0  0.86200  0.90760  0.64940  1.0000 0.1097306663
H   H39       1.0  0.90760  0.64940  0.86200  1.0000 0.1097306663
H   H40       1.0  0.13800  0.35060  0.09240  1.0000 0.1097306663
H   H41       1.0  0.09240  0.13800  0.35060  1.0000 0.1097306663
H   H42       1.0  0.35060  0.09240  0.13800  1.0000 0.1097306663
H   H43       1.0  0.62230  0.59570  0.12990  1.0000 0.0813901971
H   H44       1.0  0.59570  0.12990  0.62230  1.0000 0.0813901971
H   H45       1.0  0.12990  0.62230  0.59570  1.0000 0.0813901971
H   H46       1.0  0.40430  0.37770  0.87010  1.0000 0.0813901971
H   H47       1.0  0.87010  0.40430  0.37770  1.0000 0.0813901971
H   H48       1.0  0.37770  0.87010  0.40430  1.0000 0.0813901971
H   H49       1.0  0.64040  0.00970  0.88140  1.0000 0.1097306663
H   H50       1.0  0.00970  0.88140  0.64040  1.0000 0.1097306663
H   H51       1.0  0.88140  0.64040  0.00970  1.0000 0.1097306663
H   H52       1.0  0.99030  0.35960  0.11860  1.0000 0.1097306663
H   H53       1.0  0.11860  0.99030  0.35960  1.0000 0.1097306663
H   H54       1.0  0.35960  0.11860  0.99030  1.0000 0.1097306663
H   H55       1.0  0.61710  0.17120  0.87010  1.0000 0.0874958097
H   H56       1.0  0.17120  0.87010  0.61710  1.0000 0.0874958097
H   H57       1.0  0.87010  0.61710  0.17120  1.0000 0.0874958097
H   H58       1.0  0.82880  0.38290  0.12990  1.0000 0.0874958097
H   H59       1.0  0.12990  0.82880  0.38290  1.0000 0.0874958097
H   H60       1.0  0.38290  0.12990  0.82880  1.0000 0.0874958097
C   C1        1.0  0.64570  0.93000  0.04610  1.0000 -0.1606477647
C   C2        1.0  0.93000  0.04610  0.64570  1.0000 -0.1606477647
C   C3        1.0  0.04610  0.64570  0.93000  1.0000 -0.1606477647
C   C4        1.0  0.07000  0.35430  0.95390  1.0000 -0.1656653599
C   C5        1.0  0.95390  0.07000  0.35430  1.0000 -0.1656653599
C   C6        1.0  0.35430  0.95390  0.07000  1.0000 -0.1656653599
C   C7        1.0  0.63410  0.71440  0.06780  1.0000 -0.2191796037
C   C8        1.0  0.71440  0.06780  0.63410  1.0000 -0.2191796037
C   C9        1.0  0.06780  0.63410  0.71440  1.0000 -0.2191796037
C   C10       1.0  0.28560  0.36590  0.93220  1.0000 -0.2191796037
C   C11       1.0  0.93220  0.28560  0.36590  1.0000 -0.2191796037
C   C12       1.0  0.36590  0.93220  0.28560  1.0000 -0.2191796037
C   C13       1.0  0.65390  0.66830  0.89880  1.0000 -0.2313682577
C   C14       1.0  0.66830  0.89880  0.65390  1.0000 -0.2313682577
C   C15       1.0  0.89880  0.65390  0.66830  1.0000 -0.2313682577
C   C16       1.0  0.33170  0.34610  0.10120  1.0000 -0.2313682577
C   C17       1.0  0.10120  0.33170  0.34610  1.0000 -0.2313682577
C   C18       1.0  0.34610  0.10120  0.33170  1.0000 -0.2313682577
C   C19       1.0  0.64460  0.74480  0.97980  1.0000 0.144270493
C   C20       1.0  0.74480  0.97980  0.64460  1.0000 0.144270493
C   C21       1.0  0.97980  0.64460  0.74480  1.0000 0.144270493
C   C22       1.0  0.25520  0.35540  0.02020  1.0000 0.144270493
C   C23       1.0  0.02020  0.25520  0.35540  1.0000 0.144270493
C   C24       1.0  0.35540  0.02020  0.25520  1.0000 0.144270493
C   C25       1.0  0.63360  0.10840  0.11950  1.0000 -0.2313682577
C   C26       1.0  0.10840  0.11950  0.63360  1.0000 -0.2313682577
C   C27       1.0  0.11950  0.63360  0.10840  1.0000 -0.2313682577
C   C28       1.0  0.89160  0.36640  0.88050  1.0000 -0.2313682577
C   C29       1.0  0.88050  0.89160  0.36640  1.0000 -0.2313682577
C   C30       1.0  0.36640  0.88050  0.89160  1.0000 -0.2313682577
C   C31       1.0  0.62430  0.20340  0.10610  1.0000 0.069090823
C   C32       1.0  0.20340  0.10610  0.62430  1.0000 0.069090823
C   C33       1.0  0.10610  0.62430  0.20340  1.0000 0.069090823
C   C34       1.0  0.79660  0.37570  0.89390  1.0000 0.069090823
C   C35       1.0  0.89390  0.79660  0.37570  1.0000 0.069090823
C   C36       1.0  0.37570  0.89390  0.79660  1.0000 0.069090823
C   C37       1.0  0.64440  0.56810  0.90470  1.0000 0.0598134594
C   C38       1.0  0.56810  0.90470  0.64440  1.0000 0.0598134594
C   C39       1.0  0.90470  0.64440  0.56810  1.0000 0.0598134594
C   C40       1.0  0.43190  0.35560  0.09530  1.0000 0.0598134594
C   C41       1.0  0.09530  0.43190  0.35560  1.0000 0.0598134594
C   C42       1.0  0.35560  0.09530  0.43190  1.0000 0.0598134594
C   C43       1.0  0.63820  0.03160  0.03510  1.0000 0.1474886074
C   C44       1.0  0.03160  0.03510  0.63820  1.0000 0.1474886074
C   C45       1.0  0.03510  0.63820  0.03160  1.0000 0.1474886074
C   C46       1.0  0.96840  0.36180  0.96490  1.0000 0.1474886074
C   C47       1.0  0.96490  0.96840  0.36180  1.0000 0.1474886074
C   C48       1.0  0.36180  0.96490  0.96840  1.0000 0.1474886074
C   C49       1.0  0.64680  0.85010  0.97220  1.0000 -0.1606477647
C   C50       1.0  0.85010  0.97220  0.64680  1.0000 -0.1606477647
C   C51       1.0  0.97220  0.64680  0.85010  1.0000 -0.1606477647
C   C52       1.0  0.14990  0.35320  0.02780  1.0000 -0.1606477647
C   C53       1.0  0.02780  0.14990  0.35320  1.0000 -0.1606477647
C   C54       1.0  0.35320  0.02780  0.14990  1.0000 -0.1606477647
C   C55       1.0  0.62890  0.61380  0.06890  1.0000 0.0598134594
C   C56       1.0  0.61380  0.06890  0.62890  1.0000 0.0598134594
C   C57       1.0  0.06890  0.62890  0.61380  1.0000 0.0598134594
C   C58       1.0  0.38620  0.37110  0.93110  1.0000 0.0598134594
C   C59       1.0  0.93110  0.38620  0.37110  1.0000 0.0598134594
C   C60       1.0  0.37110  0.93110  0.38620  1.0000 0.0598134594
C   C61       1.0  0.63460  0.05750  0.93990  1.0000 -0.2191796037
C   C62       1.0  0.05750  0.93990  0.63460  1.0000 -0.2191796037
C   C63       1.0  0.93990  0.63460  0.05750  1.0000 -0.2191796037
C   C64       1.0  0.94250  0.36540  0.06010  1.0000 -0.2191796037
C   C65       1.0  0.06010  0.94250  0.36540  1.0000 -0.2191796037
C   C66       1.0  0.36540  0.06010  0.94250  1.0000 -0.2191796037
C   C67       1.0  0.62220  0.15530  0.93400  1.0000 0.0813901971
C   C68       1.0  0.15530  0.93400  0.62220  1.0000 0.0813901971
C   C69       1.0  0.93400  0.62220  0.15530  1.0000 0.0813901971
C   C70       1.0  0.84470  0.37780  0.06600  1.0000 0.0813901971
C   C71       1.0  0.06600  0.84470  0.37780  1.0000 0.0813901971
C   C72       1.0  0.37780  0.06600  0.84470  1.0000 0.0813901971
N   N1        1.0  0.63248  0.54008  0.98868  1.0000 -0.2191796037
N   N2        1.0  0.54008  0.98868  0.63248  1.0000 -0.2191796037
N   N3        1.0  0.98868  0.63248  0.54008  1.0000 -0.2191796037
N   N4        1.0  0.45992  0.36752  0.01132  1.0000 -0.2191796037
N   N5        1.0  0.01132  0.45992  0.36752  1.0000 -0.2191796037
N   N6        1.0  0.36752  0.01132  0.45992  1.0000 -0.2191796037
N   N7        1.0  0.61743  0.22687  0.01690  1.0000 -0.2405767779
N   N8        1.0  0.22687  0.01690  0.61743  1.0000 -0.2405767779
N   N9        1.0  0.01690  0.61743  0.22687  1.0000 -0.2405767779
N   N10       1.0  0.77313  0.38257  0.98310  1.0000 -0.2405767779
N   N11       1.0  0.98310  0.77313  0.38257  1.0000 -0.2405767779
N   N12       1.0  0.38257  0.98310  0.77313  1.0000 -0.2405767779
O   O1        1.0  0.67434  0.44158  0.15982  1.0000 -0.8066688345
O   O2        1.0  0.44158  0.15982  0.67434  1.0000 -0.8066688345
O   O3        1.0  0.15982  0.67434  0.44158  1.0000 -0.8066688345
O   O4        1.0  0.55842  0.32566  0.84018  1.0000 -0.8066688345
O   O5        1.0  0.84018  0.55842  0.32566  1.0000 -0.8048985765
O   O6        1.0  0.32566  0.84018  0.55842  1.0000 -0.8066688345
