# DDEC6 charges by PACMAN v1.1 (https://github.com/mtap-research/PACMAN-charge/)
data_2012[Cu][pcu]3[ASR]2
_chemical_formula_sum              "Cu18 H90 C78 N36 O36"
_cell_length_a       16.7585
_cell_length_b       16.7585
_cell_length_c       16.7585
_cell_angle_alpha    105.192
_cell_angle_beta     105.192
_cell_angle_gamma    105.192

_symmetry_space_group_name_H-M    "P 1"
_symmetry_Int_Tables_number       1

loop_
  _symmetry_equiv_pos_as_xyz
  'x, y, z'

loop_
  _atom_site_type_symbol
  _atom_site_label
  _atom_site_symmetry_multiplicity
  _atom_site_fract_x
  _atom_site_fract_y
  _atom_site_fract_z
  _atom_site_occupancy
  _atom_site_charge
Cu  Cu1       1.0  0.15252  0.56711  0.39115  1.0000 0.6836995164
Cu  Cu2       1.0  0.56711  0.39115  0.15252  1.0000 0.6836995164
Cu  Cu3       1.0  0.39115  0.15252  0.56711  1.0000 0.6836995164
Cu  Cu4       1.0  0.84748  0.43289  0.60885  1.0000 0.6836995164
Cu  Cu5       1.0  0.43289  0.60885  0.84748  1.0000 0.6836995164
Cu  Cu6       1.0  0.60885  0.84748  0.43289  1.0000 0.6836995164
Cu  Cu7       1.0  0.23579  0.63194  0.61217  1.0000 0.5531028092
Cu  Cu8       1.0  0.63194  0.61217  0.23579  1.0000 0.5531028092
Cu  Cu9       1.0  0.61217  0.23579  0.63194  1.0000 0.5531028092
Cu  Cu10      1.0  0.76421  0.36806  0.38783  1.0000 0.5531028092
Cu  Cu11      1.0  0.36806  0.38783  0.76421  1.0000 0.5531028092
Cu  Cu12      1.0  0.38783  0.76421  0.36806  1.0000 0.5531028092
Cu  Cu13      1.0  0.09171  0.71522  0.51532  1.0000 0.667609779
Cu  Cu14      1.0  0.71522  0.51532  0.09171  1.0000 0.667609779
Cu  Cu15      1.0  0.51532  0.09171  0.71522  1.0000 0.667609779
Cu  Cu16      1.0  0.90829  0.28478  0.48468  1.0000 0.667609779
Cu  Cu17      1.0  0.28478  0.48468  0.90829  1.0000 0.667609779
Cu  Cu18      1.0  0.48468  0.90829  0.28478  1.0000 0.667609779
H   H1        1.0  0.24210  0.42350  0.35650  1.0000 0.1125073919
H   H2        1.0  0.42350  0.35650  0.24210  1.0000 0.1125073919
H   H3        1.0  0.35650  0.24210  0.42350  1.0000 0.1125073919
H   H4        1.0  0.75790  0.57650  0.64350  1.0000 0.1125073919
H   H5        1.0  0.57650  0.64350  0.75790  1.0000 0.1125073919
H   H6        1.0  0.64350  0.75790  0.57650  1.0000 0.1125073919
H   H7        1.0  0.35390  0.40920  0.47890  1.0000 0.121724385
H   H8        1.0  0.40920  0.47890  0.35390  1.0000 0.121724385
H   H9        1.0  0.47890  0.35390  0.40920  1.0000 0.121724385
H   H10       1.0  0.64610  0.59080  0.52110  1.0000 0.121724385
H   H11       1.0  0.59080  0.52110  0.64610  1.0000 0.121724385
H   H12       1.0  0.52110  0.64610  0.59080  1.0000 0.121724385
H   H13       1.0  0.36210  0.51770  0.61660  1.0000 0.099089397
H   H14       1.0  0.51770  0.61660  0.36210  1.0000 0.099089397
H   H15       1.0  0.61660  0.36210  0.51770  1.0000 0.099089397
H   H16       1.0  0.63790  0.48230  0.38340  1.0000 0.099089397
H   H17       1.0  0.48230  0.38340  0.63790  1.0000 0.099089397
H   H18       1.0  0.38340  0.63790  0.48230  1.0000 0.099089397
H   H19       1.0  0.26060  0.73750  0.81270  1.0000 0.099089397
H   H20       1.0  0.73750  0.81270  0.26060  1.0000 0.099089397
H   H21       1.0  0.81270  0.26060  0.73750  1.0000 0.099089397
H   H22       1.0  0.73940  0.26250  0.18730  1.0000 0.099089397
H   H23       1.0  0.26250  0.18730  0.73940  1.0000 0.099089397
H   H24       1.0  0.18730  0.73940  0.26250  1.0000 0.099089397
H   H25       1.0  0.16580  0.82930  0.84300  1.0000 0.121724385
H   H26       1.0  0.82930  0.84300  0.16580  1.0000 0.121724385
H   H27       1.0  0.84300  0.16580  0.82930  1.0000 0.121724385
H   H28       1.0  0.83420  0.17070  0.15700  1.0000 0.121724385
H   H29       1.0  0.17070  0.15700  0.83420  1.0000 0.121724385
H   H30       1.0  0.15700  0.83420  0.17070  1.0000 0.121724385
H   H31       1.0  0.08270  0.83030  0.69620  1.0000 0.1125073919
H   H32       1.0  0.83030  0.69620  0.08270  1.0000 0.1125073919
H   H33       1.0  0.69620  0.08270  0.83030  1.0000 0.1125073919
H   H34       1.0  0.91730  0.16970  0.30380  1.0000 0.1125073919
H   H35       1.0  0.16970  0.30380  0.91730  1.0000 0.1125073919
H   H36       1.0  0.30380  0.91730  0.16970  1.0000 0.1125073919
H   H37       1.0  0.97650  0.75270  0.35410  1.0000 0.1125073919
H   H38       1.0  0.75270  0.35410  0.97650  1.0000 0.1125073919
H   H39       1.0  0.35410  0.97650  0.75270  1.0000 0.1125073919
H   H40       1.0  0.02350  0.24730  0.64590  1.0000 0.1125073919
H   H41       1.0  0.24730  0.64590  0.02350  1.0000 0.1125073919
H   H42       1.0  0.64590  0.02350  0.24730  1.0000 0.1125073919
H   H43       1.0  0.96160  0.66930  0.20010  1.0000 0.1424216757
H   H44       1.0  0.66930  0.20010  0.96160  1.0000 0.1424216757
H   H45       1.0  0.20010  0.96160  0.66930  1.0000 0.1424216757
H   H46       1.0  0.03840  0.33070  0.79990  1.0000 0.1424216757
H   H47       1.0  0.33070  0.79990  0.03840  1.0000 0.1424216757
H   H48       1.0  0.79990  0.03840  0.33070  1.0000 0.1424216757
H   H49       1.0  0.04530  0.57110  0.20590  1.0000 0.121724385
H   H50       1.0  0.57110  0.20590  0.04530  1.0000 0.121724385
H   H51       1.0  0.20590  0.04530  0.57110  1.0000 0.121724385
H   H52       1.0  0.95470  0.42890  0.79410  1.0000 0.121724385
H   H53       1.0  0.42890  0.79410  0.95470  1.0000 0.121724385
H   H54       1.0  0.79410  0.95470  0.42890  1.0000 0.121724385
H   H55       1.0  0.33940  0.58660  0.22900  1.0000 0.121724385
H   H56       1.0  0.58660  0.22900  0.33940  1.0000 0.121724385
H   H57       1.0  0.22900  0.33940  0.58660  1.0000 0.121724385
H   H58       1.0  0.66060  0.41340  0.77100  1.0000 0.121724385
H   H59       1.0  0.41340  0.77100  0.66060  1.0000 0.121724385
H   H60       1.0  0.77100  0.66060  0.41340  1.0000 0.121724385
H   H61       1.0  0.26570  0.61460  0.17840  1.0000 0.1256047765
H   H62       1.0  0.61460  0.17840  0.26570  1.0000 0.1256047765
H   H63       1.0  0.17840  0.26570  0.61460  1.0000 0.1256047765
H   H64       1.0  0.73430  0.38540  0.82160  1.0000 0.1256047765
H   H65       1.0  0.38540  0.82160  0.73430  1.0000 0.1256047765
H   H66       1.0  0.82160  0.73430  0.38540  1.0000 0.1256047765
H   H67       1.0  0.25420  0.44560  0.16210  1.0000 0.1125073919
H   H68       1.0  0.44560  0.16210  0.25420  1.0000 0.1125073919
H   H69       1.0  0.16210  0.25420  0.44560  1.0000 0.1125073919
H   H70       1.0  0.74580  0.55440  0.83790  1.0000 0.1125073919
H   H71       1.0  0.55440  0.83790  0.74580  1.0000 0.1125073919
H   H72       1.0  0.83790  0.74580  0.55440  1.0000 0.1125073919
H   H73       1.0  0.17630  0.47120  0.11450  1.0000 0.1125073919
H   H74       1.0  0.47120  0.11450  0.17630  1.0000 0.1125073919
H   H75       1.0  0.11450  0.17630  0.47120  1.0000 0.1125073919
H   H76       1.0  0.82370  0.52880  0.88550  1.0000 0.1125073919
H   H77       1.0  0.52880  0.88550  0.82370  1.0000 0.1125073919
H   H78       1.0  0.88550  0.82370  0.52880  1.0000 0.1125073919
H   H79       1.0  0.09710  0.57620  0.50420  1.0000 0.2678400953
H   H80       1.0  0.57620  0.50420  0.09710  1.0000 0.2678400953
H   H81       1.0  0.50420  0.09710  0.57620  1.0000 0.2678400953
H   H82       1.0  0.90290  0.42380  0.49580  1.0000 0.2678400953
H   H83       1.0  0.42380  0.49580  0.90290  1.0000 0.2678400953
H   H84       1.0  0.49580  0.90290  0.42380  1.0000 0.2678400953
H   H85       1.0  0.22380  0.70070  0.50830  1.0000 0.2548239211
H   H86       1.0  0.70070  0.50830  0.22380  1.0000 0.2548239211
H   H87       1.0  0.50830  0.22380  0.70070  1.0000 0.2548239211
H   H88       1.0  0.77620  0.29930  0.49170  1.0000 0.2548239211
H   H89       1.0  0.29930  0.49170  0.77620  1.0000 0.2548239211
H   H90       1.0  0.49170  0.77620  0.29930  1.0000 0.2551831881
C   C1        1.0  0.25990  0.45630  0.41630  1.0000 0.0201098498
C   C2        1.0  0.45630  0.41630  0.25990  1.0000 0.0201098498
C   C3        1.0  0.41630  0.25990  0.45630  1.0000 0.0201098498
C   C4        1.0  0.74010  0.54370  0.58370  1.0000 0.0201098498
C   C5        1.0  0.54370  0.58370  0.74010  1.0000 0.0201098498
C   C6        1.0  0.58370  0.74010  0.54370  1.0000 0.0201098498
C   C7        1.0  0.32240  0.44720  0.48410  1.0000 -0.219735684
C   C8        1.0  0.44720  0.48410  0.32240  1.0000 -0.219735684
C   C9        1.0  0.48410  0.32240  0.44720  1.0000 -0.219735684
C   C10       1.0  0.67760  0.55280  0.51590  1.0000 -0.219735684
C   C11       1.0  0.55280  0.51590  0.67760  1.0000 -0.219735684
C   C12       1.0  0.51590  0.67760  0.55280  1.0000 -0.219735684
C   C13       1.0  0.32640  0.50690  0.55930  1.0000 0.0029311355
C   C14       1.0  0.50690  0.55930  0.32640  1.0000 0.0029311355
C   C15       1.0  0.55930  0.32640  0.50690  1.0000 0.0029311355
C   C16       1.0  0.67360  0.49310  0.44070  1.0000 0.0029311355
C   C17       1.0  0.49310  0.44070  0.67360  1.0000 0.0029311355
C   C18       1.0  0.44070  0.67360  0.49310  1.0000 0.0029311355
C   C19       1.0  0.21950  0.74770  0.77100  1.0000 0.0201098498
C   C20       1.0  0.74770  0.77100  0.21950  1.0000 0.0201098498
C   C21       1.0  0.77100  0.21950  0.74770  1.0000 0.0201098498
C   C22       1.0  0.78050  0.25230  0.22900  1.0000 0.0201098498
C   C23       1.0  0.25230  0.22900  0.78050  1.0000 0.0201098498
C   C24       1.0  0.22900  0.78050  0.25230  1.0000 0.0201098498
C   C25       1.0  0.16780  0.80020  0.78850  1.0000 -0.2080371797
C   C26       1.0  0.80020  0.78850  0.16780  1.0000 -0.2080371797
C   C27       1.0  0.78850  0.16780  0.80020  1.0000 -0.2080371797
C   C28       1.0  0.83220  0.19980  0.21150  1.0000 -0.2080371797
C   C29       1.0  0.19980  0.21150  0.83220  1.0000 -0.2080371797
C   C30       1.0  0.21150  0.83220  0.19980  1.0000 -0.2080371797
C   C31       1.0  0.12030  0.79860  0.70500  1.0000 0.0029311355
C   C32       1.0  0.79860  0.70500  0.12030  1.0000 0.0029311355
C   C33       1.0  0.70500  0.12030  0.79860  1.0000 0.0029311355
C   C34       1.0  0.87970  0.20140  0.29500  1.0000 0.0029311355
C   C35       1.0  0.20140  0.29500  0.87970  1.0000 0.0029311355
C   C36       1.0  0.29500  0.87970  0.20140  1.0000 0.0029311355
C   C37       1.0  0.00160  0.71060  0.33780  1.0000 0.0561211275
C   C38       1.0  0.71060  0.33780  0.00160  1.0000 0.0561211275
C   C39       1.0  0.33780  0.00160  0.71060  1.0000 0.0561211275
C   C40       1.0  0.99840  0.28940  0.66220  1.0000 0.0561211275
C   C41       1.0  0.28940  0.66220  0.99840  1.0000 0.0561211275
C   C42       1.0  0.66220  0.99840  0.28940  1.0000 0.0561211275
C   C43       1.0  0.99370  0.66320  0.25120  1.0000 -0.2000984023
C   C44       1.0  0.66320  0.25120  0.99370  1.0000 -0.2000984023
C   C45       1.0  0.25120  0.99370  0.66320  1.0000 -0.2000984023
C   C46       1.0  0.00630  0.33680  0.74880  1.0000 -0.2000984023
C   C47       1.0  0.33680  0.74880  0.00630  1.0000 -0.2000984023
C   C48       1.0  0.74880  0.00630  0.33680  1.0000 -0.2000984023
C   C49       1.0  0.03880  0.60870  0.25370  1.0000 0.0284712741
C   C50       1.0  0.60870  0.25370  0.03880  1.0000 0.0284712741
C   C51       1.0  0.25370  0.03880  0.60870  1.0000 0.0284712741
C   C52       1.0  0.96120  0.39130  0.74630  1.0000 0.0284712741
C   C53       1.0  0.39130  0.74630  0.96120  1.0000 0.0284712741
C   C54       1.0  0.74630  0.96120  0.39130  1.0000 0.0284712741
C   C55       1.0  0.24500  0.58800  0.28480  1.0000 0.5966256539
C   C56       1.0  0.58800  0.28480  0.24500  1.0000 0.5966256539
C   C57       1.0  0.28480  0.24500  0.58800  1.0000 0.5966256539
C   C58       1.0  0.75500  0.41200  0.71520  1.0000 0.5966256539
C   C59       1.0  0.41200  0.71520  0.75500  1.0000 0.5966256539
C   C60       1.0  0.71520  0.75500  0.41200  1.0000 0.5966256539
C   C61       1.0  0.27590  0.57200  0.20570  1.0000 -0.3321526866
C   C62       1.0  0.57200  0.20570  0.27590  1.0000 -0.3321526866
C   C63       1.0  0.20570  0.27590  0.57200  1.0000 -0.3321526866
C   C64       1.0  0.72410  0.42800  0.79430  1.0000 -0.3321526866
C   C65       1.0  0.42800  0.79430  0.72410  1.0000 -0.3321526866
C   C66       1.0  0.79430  0.72410  0.42800  1.0000 -0.3321526866
C   C67       1.0  0.24020  0.48870  0.13750  1.0000 -0.2804074308
C   C68       1.0  0.48870  0.13750  0.24020  1.0000 -0.2804074308
C   C69       1.0  0.13750  0.24020  0.48870  1.0000 -0.2804074308
C   C70       1.0  0.75980  0.51130  0.86250  1.0000 -0.2804074308
C   C71       1.0  0.51130  0.86250  0.75980  1.0000 -0.2804074308
C   C72       1.0  0.86250  0.75980  0.51130  1.0000 -0.2804074308
C   C73       1.0  0.27330  0.48640  0.06320  1.0000 0.5782714963
C   C74       1.0  0.48640  0.06320  0.27330  1.0000 0.5782714963
C   C75       1.0  0.06320  0.27330  0.48640  1.0000 0.5782714963
C   C76       1.0  0.72670  0.51360  0.93680  1.0000 0.5782714963
C   C77       1.0  0.51360  0.93680  0.72670  1.0000 0.5782714963
C   C78       1.0  0.93680  0.72670  0.51360  1.0000 0.5782714963
N   N1        1.0  0.23000  0.51690  0.44860  1.0000 -0.219735684
N   N2        1.0  0.51690  0.44860  0.23000  1.0000 -0.219735684
N   N3        1.0  0.44860  0.23000  0.51690  1.0000 -0.219735684
N   N4        1.0  0.77000  0.48310  0.55140  1.0000 -0.219735684
N   N5        1.0  0.48310  0.55140  0.77000  1.0000 -0.219735684
N   N6        1.0  0.55140  0.77000  0.48310  1.0000 -0.219735684
N   N7        1.0  0.26940  0.54750  0.53580  1.0000 -0.2318190754
N   N8        1.0  0.54750  0.53580  0.26940  1.0000 -0.2318190754
N   N9        1.0  0.53580  0.26940  0.54750  1.0000 -0.2318190754
N   N10       1.0  0.73060  0.45250  0.46420  1.0000 -0.2318190754
N   N11       1.0  0.45250  0.46420  0.73060  1.0000 -0.2318190754
N   N12       1.0  0.46420  0.73060  0.45250  1.0000 -0.2318190754
N   N13       1.0  0.19750  0.71530  0.68200  1.0000 -0.2548119148
N   N14       1.0  0.71530  0.68200  0.19750  1.0000 -0.2548119148
N   N15       1.0  0.68200  0.19750  0.71530  1.0000 -0.2548119148
N   N16       1.0  0.80250  0.28470  0.31800  1.0000 -0.2548119148
N   N17       1.0  0.28470  0.31800  0.80250  1.0000 -0.2548119148
N   N18       1.0  0.31800  0.80250  0.28470  1.0000 -0.2548119148
N   N19       1.0  0.13580  0.74480  0.63770  1.0000 -0.2895896306
N   N20       1.0  0.74480  0.63770  0.13580  1.0000 -0.2895896306
N   N21       1.0  0.63770  0.13580  0.74480  1.0000 -0.2895896306
N   N22       1.0  0.86420  0.25520  0.36230  1.0000 -0.2895896306
N   N23       1.0  0.25520  0.36230  0.86420  1.0000 -0.2895896306
N   N24       1.0  0.36230  0.86420  0.25520  1.0000 -0.2895896306
N   N25       1.0  0.05230  0.68320  0.39130  1.0000 -0.2580415478
N   N26       1.0  0.68320  0.39130  0.05230  1.0000 -0.2580415478
N   N27       1.0  0.39130  0.05230  0.68320  1.0000 -0.2580415478
N   N28       1.0  0.94770  0.31680  0.60870  1.0000 -0.2580415478
N   N29       1.0  0.31680  0.60870  0.94770  1.0000 -0.2580415478
N   N30       1.0  0.60870  0.94770  0.31680  1.0000 -0.2580415478
N   N31       1.0  0.07180  0.61870  0.33640  1.0000 -0.2371817847
N   N32       1.0  0.61870  0.33640  0.07180  1.0000 -0.2371817847
N   N33       1.0  0.33640  0.07180  0.61870  1.0000 -0.2371817847
N   N34       1.0  0.92820  0.38130  0.66360  1.0000 -0.2371817847
N   N35       1.0  0.38130  0.66360  0.92820  1.0000 -0.2371817847
N   N36       1.0  0.66360  0.92820  0.38130  1.0000 -0.2371817847
O   O1        1.0  0.17850  0.52760  0.28150  1.0000 -0.5083784481
O   O2        1.0  0.52760  0.28150  0.17850  1.0000 -0.5083784481
O   O3        1.0  0.28150  0.17850  0.52760  1.0000 -0.5083784481
O   O4        1.0  0.82150  0.47240  0.71850  1.0000 -0.5083784481
O   O5        1.0  0.47240  0.71850  0.82150  1.0000 -0.5083784481
O   O6        1.0  0.71850  0.82150  0.47240  1.0000 -0.5083784481
O   O7        1.0  0.28110  0.66050  0.34630  1.0000 -0.551011326
O   O8        1.0  0.66050  0.34630  0.28110  1.0000 -0.551011326
O   O9        1.0  0.34630  0.28110  0.66050  1.0000 -0.551011326
O   O10       1.0  0.71890  0.33950  0.65370  1.0000 -0.551011326
O   O11       1.0  0.33950  0.65370  0.71890  1.0000 -0.551011326
O   O12       1.0  0.65370  0.71890  0.33950  1.0000 -0.551011326
O   O13       1.0  0.21880  0.47650  0.98960  1.0000 -0.551011326
O   O14       1.0  0.47650  0.98960  0.21880  1.0000 -0.551011326
O   O15       1.0  0.98960  0.21880  0.47650  1.0000 -0.551011326
O   O16       1.0  0.78120  0.52350  0.01040  1.0000 -0.551011326
O   O17       1.0  0.52350  0.01040  0.78120  1.0000 -0.551011326
O   O18       1.0  0.01040  0.78120  0.52350  1.0000 -0.551011326
O   O19       1.0  0.34790  0.48960  0.07360  1.0000 -0.54283789
O   O20       1.0  0.48960  0.07360  0.34790  1.0000 -0.54283789
O   O21       1.0  0.07360  0.34790  0.48960  1.0000 -0.54283789
O   O22       1.0  0.65210  0.51040  0.92640  1.0000 -0.54283789
O   O23       1.0  0.51040  0.92640  0.65210  1.0000 -0.54283789
O   O24       1.0  0.92640  0.65210  0.51040  1.0000 -0.54283789
O   O25       1.0  0.13820  0.61670  0.50690  1.0000 -0.1817486281
O   O26       1.0  0.61670  0.50690  0.13820  1.0000 -0.1817486281
O   O27       1.0  0.50690  0.13820  0.61670  1.0000 -0.1817486281
O   O28       1.0  0.86180  0.38330  0.49310  1.0000 -0.1817486281
O   O29       1.0  0.38330  0.49310  0.86180  1.0000 -0.1817486281
O   O30       1.0  0.49310  0.86180  0.38330  1.0000 -0.1817486281
O   O31       1.0  0.18190  0.65830  0.49930  1.0000 -0.1817486281
O   O32       1.0  0.65830  0.49930  0.18190  1.0000 -0.1817486281
O   O33       1.0  0.49930  0.18190  0.65830  1.0000 -0.1817486281
O   O34       1.0  0.81810  0.34170  0.50070  1.0000 -0.1817486281
O   O35       1.0  0.34170  0.50070  0.81810  1.0000 -0.1817486281
O   O36       1.0  0.50070  0.81810  0.34170  1.0000 -0.1817486281
