# DDEC6 charges by PACMAN v1.1 (https://github.com/mtap-research/PACMAN-charge/)
data_2012[Zn][nan]3[ASR]11
_chemical_formula_sum              "Zn6 H32 C56 N12 O16"
_cell_length_a       14.6607
_cell_length_b       17.0094
_cell_length_c       9.2069
_cell_angle_alpha    90
_cell_angle_beta     100.892
_cell_angle_gamma    90

_symmetry_space_group_name_H-M    "P 1"
_symmetry_Int_Tables_number       1

loop_
  _symmetry_equiv_pos_as_xyz
  'x, y, z'

loop_
  _atom_site_type_symbol
  _atom_site_label
  _atom_site_symmetry_multiplicity
  _atom_site_fract_x
  _atom_site_fract_y
  _atom_site_fract_z
  _atom_site_occupancy
  _atom_site_charge
Zn  Zn1       1.0  0.59118  0.50000  0.66630  1.0000 0.7565322692
Zn  Zn2       1.0  0.09118  0.00000  0.66630  1.0000 0.7565322692
Zn  Zn3       1.0  0.90882  0.00000  0.33370  1.0000 0.7565322692
Zn  Zn4       1.0  0.40882  0.50000  0.33370  1.0000 0.7565322692
Zn  Zn5       1.0  0.50000  0.50000  0.00000  1.0000 0.9167267555
Zn  Zn6       1.0  0.00000  0.00000  0.00000  1.0000 0.9167267555
H   H1        1.0  0.37575  0.69478  0.87886  1.0000 0.120546716
H   H2        1.0  0.22331  0.69112  0.23834  1.0000 0.1128257687
H   H3        1.0  0.87575  0.19478  0.87886  1.0000 0.120546716
H   H4        1.0  0.72331  0.19112  0.23834  1.0000 0.1128257687
H   H5        1.0  0.62425  0.69478  0.12114  1.0000 0.120546716
H   H6        1.0  0.77669  0.69112  0.76166  1.0000 0.1128257687
H   H7        1.0  0.12425  0.19478  0.12114  1.0000 0.120546716
H   H8        1.0  0.27669  0.19112  0.76166  1.0000 0.1128257687
H   H9        1.0  0.62425  0.30522  0.12114  1.0000 0.120546716
H   H10       1.0  0.77669  0.30888  0.76166  1.0000 0.1128257687
H   H11       1.0  0.12425  0.80522  0.12114  1.0000 0.120546716
H   H12       1.0  0.27669  0.80888  0.76166  1.0000 0.1128257687
H   H13       1.0  0.37575  0.30522  0.87886  1.0000 0.120546716
H   H14       1.0  0.22331  0.30888  0.23834  1.0000 0.1128257687
H   H15       1.0  0.87575  0.80522  0.87886  1.0000 0.120546716
H   H16       1.0  0.72331  0.80888  0.23834  1.0000 0.1128257687
H   H17       1.0  0.26069  0.50000  0.94045  1.0000 0.120546716
H   H18       1.0  0.10003  0.50000  0.78975  1.0000 0.1009203518
H   H19       1.0  0.20500  0.50000  0.37696  1.0000 0.1269858653
H   H20       1.0  0.07215  0.50000  0.51474  1.0000 0.0908117915
H   H21       1.0  0.76069  0.00000  0.94045  1.0000 0.120546716
H   H22       1.0  0.60003  0.00000  0.78975  1.0000 0.1009203518
H   H23       1.0  0.70500  0.00000  0.37696  1.0000 0.1269858653
H   H24       1.0  0.57215  0.00000  0.51474  1.0000 0.0908117915
H   H25       1.0  0.73931  0.50000  0.05955  1.0000 0.120546716
H   H26       1.0  0.89997  0.50000  0.21025  1.0000 0.1009203518
H   H27       1.0  0.79500  0.50000  0.62304  1.0000 0.1269858653
H   H28       1.0  0.92785  0.50000  0.48526  1.0000 0.0908117915
H   H29       1.0  0.23931  0.00000  0.05955  1.0000 0.120546716
H   H30       1.0  0.39997  0.00000  0.21025  1.0000 0.1009203518
H   H31       1.0  0.29500  0.00000  0.62304  1.0000 0.1269858653
H   H32       1.0  0.42785  0.00000  0.48526  1.0000 0.0908117915
C   C1        1.0  0.35850  0.61900  0.12740  1.0000 0.5863668347
C   C2        1.0  0.30329  0.68785  0.06306  1.0000 -0.0381816759
C   C3        1.0  0.32037  0.71984  0.92971  1.0000 -0.0873046095
C   C4        1.0  0.23365  0.71771  0.13413  1.0000 -0.0963585194
C   C5        1.0  0.85850  0.11900  0.12740  1.0000 0.5863668347
C   C6        1.0  0.80329  0.18785  0.06306  1.0000 -0.0381816759
C   C7        1.0  0.82037  0.21984  0.92971  1.0000 -0.0873046095
C   C8        1.0  0.73365  0.21771  0.13413  1.0000 -0.0963585194
C   C9        1.0  0.64150  0.61900  0.87260  1.0000 0.5863668347
C   C10       1.0  0.69671  0.68785  0.93694  1.0000 -0.0381816759
C   C11       1.0  0.67963  0.71984  0.07029  1.0000 -0.0873046095
C   C12       1.0  0.76635  0.71771  0.86587  1.0000 -0.0963585194
C   C13       1.0  0.14150  0.11900  0.87260  1.0000 0.5863668347
C   C14       1.0  0.19671  0.18785  0.93694  1.0000 -0.0381816759
C   C15       1.0  0.17963  0.21984  0.07029  1.0000 -0.0873046095
C   C16       1.0  0.26635  0.21771  0.86587  1.0000 -0.0963585194
C   C17       1.0  0.64150  0.38100  0.87260  1.0000 0.5863668347
C   C18       1.0  0.69671  0.31215  0.93694  1.0000 -0.0381816759
C   C19       1.0  0.67963  0.28016  0.07029  1.0000 -0.0873046095
C   C20       1.0  0.76635  0.28229  0.86587  1.0000 -0.0963585194
C   C21       1.0  0.14150  0.88100  0.87260  1.0000 0.5863668347
C   C22       1.0  0.19671  0.81215  0.93694  1.0000 -0.0381816759
C   C23       1.0  0.17963  0.78016  0.07029  1.0000 -0.0873046095
C   C24       1.0  0.26635  0.78229  0.86587  1.0000 -0.0963585194
C   C25       1.0  0.35850  0.38100  0.12740  1.0000 0.5863668347
C   C26       1.0  0.30329  0.31215  0.06306  1.0000 -0.0381816759
C   C27       1.0  0.32037  0.28016  0.92971  1.0000 -0.0873046095
C   C28       1.0  0.23365  0.28229  0.13413  1.0000 -0.0963585194
C   C29       1.0  0.85850  0.88100  0.12740  1.0000 0.5863668347
C   C30       1.0  0.80329  0.81215  0.06306  1.0000 -0.0381816759
C   C31       1.0  0.82037  0.78016  0.92971  1.0000 -0.0873046095
C   C32       1.0  0.73365  0.78229  0.13413  1.0000 -0.0963585194
C   C33       1.0  0.32191  0.50000  0.74142  1.0000 0.1396595823
C   C34       1.0  0.30540  0.50000  0.58449  1.0000 0.1396595823
C   C35       1.0  0.24843  0.50000  0.81971  1.0000 -0.1274857049
C   C36       1.0  0.15953  0.50000  0.73414  1.0000 -0.0834146862
C   C37       1.0  0.21557  0.50000  0.49793  1.0000 -0.1468020355
C   C38       1.0  0.14363  0.50000  0.57605  1.0000 -0.0873046095
C   C39       1.0  0.82191  0.00000  0.74142  1.0000 0.1396595823
C   C40       1.0  0.80540  0.00000  0.58449  1.0000 0.1396595823
C   C41       1.0  0.74843  0.00000  0.81971  1.0000 -0.1274857049
C   C42       1.0  0.65953  0.00000  0.73414  1.0000 -0.0834146862
C   C43       1.0  0.71557  0.00000  0.49793  1.0000 -0.1468020355
C   C44       1.0  0.64363  0.00000  0.57605  1.0000 -0.0873046095
C   C45       1.0  0.67809  0.50000  0.25858  1.0000 0.1396595823
C   C46       1.0  0.69460  0.50000  0.41551  1.0000 0.1396595823
C   C47       1.0  0.75157  0.50000  0.18029  1.0000 -0.1274857049
C   C48       1.0  0.84047  0.50000  0.26586  1.0000 -0.0834146862
C   C49       1.0  0.78443  0.50000  0.50207  1.0000 -0.1468020355
C   C50       1.0  0.85637  0.50000  0.42395  1.0000 -0.0873046095
C   C51       1.0  0.17809  0.00000  0.25858  1.0000 0.1396595823
C   C52       1.0  0.19460  0.00000  0.41551  1.0000 0.1396595823
C   C53       1.0  0.25157  0.00000  0.18029  1.0000 -0.1274857049
C   C54       1.0  0.34047  0.00000  0.26586  1.0000 -0.0834146862
C   C55       1.0  0.28443  0.00000  0.50207  1.0000 -0.1468020355
C   C56       1.0  0.35637  0.00000  0.42395  1.0000 -0.0873046095
N   N1        1.0  0.45518  0.50000  0.66836  1.0000 -0.0381816759
N   N2        1.0  0.41637  0.50000  0.78957  1.0000 -0.2030295705
N   N3        1.0  0.39012  0.50000  0.54273  1.0000 -0.2398934191
N   N4        1.0  0.95518  0.00000  0.66836  1.0000 -0.0381816759
N   N5        1.0  0.91637  0.00000  0.78957  1.0000 -0.2030295705
N   N6        1.0  0.89012  0.00000  0.54273  1.0000 -0.2398934191
N   N7        1.0  0.54482  0.50000  0.33164  1.0000 -0.0381816759
N   N8        1.0  0.58363  0.50000  0.21043  1.0000 -0.2030295705
N   N9        1.0  0.60988  0.50000  0.45727  1.0000 -0.2398934191
N   N10       1.0  0.04482  0.00000  0.33164  1.0000 -0.0381816759
N   N11       1.0  0.08363  0.00000  0.21043  1.0000 -0.2030295705
N   N12       1.0  0.10988  0.00000  0.45727  1.0000 -0.2398934191
O   O1        1.0  0.33899  0.59178  0.24964  1.0000 -0.535456342
O   O2        1.0  0.41903  0.59194  0.05921  1.0000 -0.5661220898
O   O3        1.0  0.83899  0.09178  0.24964  1.0000 -0.535456342
O   O4        1.0  0.91903  0.09194  0.05921  1.0000 -0.5661220898
O   O5        1.0  0.66101  0.59178  0.75036  1.0000 -0.535456342
O   O6        1.0  0.58097  0.59194  0.94079  1.0000 -0.5661220898
O   O7        1.0  0.16101  0.09178  0.75036  1.0000 -0.535456342
O   O8        1.0  0.08097  0.09194  0.94079  1.0000 -0.5661220898
O   O9        1.0  0.66101  0.40822  0.75036  1.0000 -0.535456342
O   O10       1.0  0.58097  0.40806  0.94079  1.0000 -0.5661220898
O   O11       1.0  0.16101  0.90822  0.75036  1.0000 -0.535456342
O   O12       1.0  0.08097  0.90806  0.94079  1.0000 -0.5661220898
O   O13       1.0  0.33899  0.40822  0.24964  1.0000 -0.535456342
O   O14       1.0  0.41903  0.40806  0.05921  1.0000 -0.5661220898
O   O15       1.0  0.83899  0.90822  0.24964  1.0000 -0.535456342
O   O16       1.0  0.91903  0.90806  0.05921  1.0000 -0.5661220898
