# DDEC6 charges by PACMAN v1.1 (https://github.com/mtap-research/PACMAN-charge/)
data_2012[FeMnSb][dia]3[ASR]1
_chemical_formula_sum              "Mn12 Fe16 Sb24 H48 C96 O176"
_cell_length_a       20.0376
_cell_length_b       20.874
_cell_length_c       20.9807
_cell_angle_alpha    90
_cell_angle_beta     90
_cell_angle_gamma    90

_symmetry_space_group_name_H-M    "P 1"
_symmetry_Int_Tables_number       1

loop_
  _symmetry_equiv_pos_as_xyz
  'x, y, z'

loop_
  _atom_site_type_symbol
  _atom_site_label
  _atom_site_symmetry_multiplicity
  _atom_site_fract_x
  _atom_site_fract_y
  _atom_site_fract_z
  _atom_site_occupancy
  _atom_site_charge
Mn  Mn1       1.0  0.70493  0.05319  0.97869  1.0000 0.9977120727
Mn  Mn2       1.0  0.79507  0.94681  0.47869  1.0000 0.9977120727
Mn  Mn3       1.0  0.20493  0.44681  0.02131  1.0000 0.9977120727
Mn  Mn4       1.0  0.29507  0.55319  0.52131  1.0000 0.9977120727
Mn  Mn5       1.0  0.62383  0.96888  0.71398  1.0000 0.9943708568
Mn  Mn6       1.0  0.87617  0.03112  0.21398  1.0000 0.9977120727
Mn  Mn7       1.0  0.12383  0.53112  0.28602  1.0000 0.9977120727
Mn  Mn8       1.0  0.37617  0.46888  0.78602  1.0000 0.9943708568
Mn  Mn9       1.0  0.55363  0.23522  0.80511  1.0000 0.9977120727
Mn  Mn10      1.0  0.94637  0.76478  0.30511  1.0000 0.9977120727
Mn  Mn11      1.0  0.05363  0.26478  0.19489  1.0000 0.9977120727
Mn  Mn12      1.0  0.44637  0.73522  0.69489  1.0000 0.9977120727
Fe  Fe1       1.0  0.62762  0.08609  0.83327  1.0000 1.0988926082
Fe  Fe2       1.0  0.87238  0.91391  0.33327  1.0000 1.0988926082
Fe  Fe3       1.0  0.12762  0.41391  0.16673  1.0000 1.0988926082
Fe  Fe4       1.0  0.37238  0.58609  0.66667  1.0000 1.0988926082
Fe  Fe5       1.0  0.63066  0.19001  0.93837  1.0000 1.1181162684
Fe  Fe6       1.0  0.86934  0.80999  0.43837  1.0000 1.1181162684
Fe  Fe7       1.0  0.13066  0.30999  0.06163  1.0000 1.1181162684
Fe  Fe8       1.0  0.36934  0.69001  0.56163  1.0000 1.1181162684
Fe  Fe9       1.0  0.69278  0.95361  0.85682  1.0000 1.1675270884
Fe  Fe10      1.0  0.80722  0.04639  0.35682  1.0000 1.1675270884
Fe  Fe11      1.0  0.19278  0.54639  0.14318  1.0000 1.1675270884
Fe  Fe12      1.0  0.30722  0.45361  0.64318  1.0000 1.1675270884
Fe  Fe13      1.0  0.55902  0.11407  0.70359  1.0000 1.1806266893
Fe  Fe14      1.0  0.94098  0.88593  0.20359  1.0000 1.1806266893
Fe  Fe15      1.0  0.05902  0.38593  0.29641  1.0000 1.1806266893
Fe  Fe16      1.0  0.44098  0.61407  0.79641  1.0000 1.1806266893
Sb  Sb1       1.0  0.78756  0.16031  0.87298  1.0000 1.1806266893
Sb  Sb2       1.0  0.71244  0.83969  0.37298  1.0000 1.1806266893
Sb  Sb3       1.0  0.28756  0.33969  0.12702  1.0000 1.1806266893
Sb  Sb4       1.0  0.21244  0.66031  0.62702  1.0000 1.1806266893
Sb  Sb5       1.0  0.77997  0.04790  0.74613  1.0000 1.1929136783
Sb  Sb6       1.0  0.72003  0.95210  0.24613  1.0000 1.2009497274
Sb  Sb7       1.0  0.27997  0.45210  0.25387  1.0000 1.1929136783
Sb  Sb8       1.0  0.22003  0.54790  0.75387  1.0000 1.1929136783
Sb  Sb9       1.0  0.70604  0.20170  0.72612  1.0000 1.1929136783
Sb  Sb10      1.0  0.79396  0.79830  0.22612  1.0000 1.1929136783
Sb  Sb11      1.0  0.20604  0.29830  0.27388  1.0000 1.1929136783
Sb  Sb12      1.0  0.29396  0.70170  0.77388  1.0000 1.1929136783
Sb  Sb13      1.0  0.54934  0.97853  0.94914  1.0000 1.1929136783
Sb  Sb14      1.0  0.95066  0.02147  0.44914  1.0000 1.2009497274
Sb  Sb15      1.0  0.04934  0.52147  0.05086  1.0000 1.1929136783
Sb  Sb16      1.0  0.45066  0.47853  0.55086  1.0000 1.1929136783
Sb  Sb17      1.0  0.47155  0.00330  0.79759  1.0000 1.2009497274
Sb  Sb18      1.0  0.02845  0.99670  0.29759  1.0000 1.2009497274
Sb  Sb19      1.0  0.97155  0.49670  0.20241  1.0000 1.2009497274
Sb  Sb20      1.0  0.52845  0.50330  0.70241  1.0000 1.2009497274
Sb  Sb21      1.0  0.47125  0.12821  0.91304  1.0000 1.1806266893
Sb  Sb22      1.0  0.02875  0.87179  0.41304  1.0000 1.1806266893
Sb  Sb23      1.0  0.97125  0.37179  0.08696  1.0000 1.1806266893
Sb  Sb24      1.0  0.52875  0.62821  0.58696  1.0000 1.1806266893
H   H1        1.0  0.90480  0.03120  0.89760  1.0000 0.1498858887
H   H2        1.0  0.59520  0.96880  0.39760  1.0000 0.1498858887
H   H3        1.0  0.40480  0.46880  0.10240  1.0000 0.1498858887
H   H4        1.0  0.09520  0.53120  0.60240  1.0000 0.1498858887
H   H5        1.0  0.84230  0.95140  0.95220  1.0000 0.1399897938
H   H6        1.0  0.65770  0.04860  0.45220  1.0000 0.1399897938
H   H7        1.0  0.34230  0.54860  0.04780  1.0000 0.1399897938
H   H8        1.0  0.15770  0.45140  0.54780  1.0000 0.1399897938
H   H9        1.0  0.74490  0.07740  0.57790  1.0000 0.1498858887
H   H10       1.0  0.75510  0.92260  0.07790  1.0000 0.1498858887
H   H11       1.0  0.24490  0.42260  0.42210  1.0000 0.1498858887
H   H12       1.0  0.25510  0.57740  0.92210  1.0000 0.1498858887
H   H13       1.0  0.63300  0.04040  0.56560  1.0000 0.1399897938
H   H14       1.0  0.86700  0.95960  0.06560  1.0000 0.1399897938
H   H15       1.0  0.13300  0.45960  0.43440  1.0000 0.1399897938
H   H16       1.0  0.36700  0.54040  0.93440  1.0000 0.1399897938
H   H17       1.0  0.73720  0.34650  0.81930  1.0000 0.1399897938
H   H18       1.0  0.76280  0.65350  0.31930  1.0000 0.1399897938
H   H19       1.0  0.23720  0.15350  0.18070  1.0000 0.1399897938
H   H20       1.0  0.26280  0.84650  0.68070  1.0000 0.1399897938
H   H21       1.0  0.64190  0.35250  0.88550  1.0000 0.1498858887
H   H22       1.0  0.85810  0.64750  0.38550  1.0000 0.1498858887
H   H23       1.0  0.14190  0.14750  0.11450  1.0000 0.1498858887
H   H24       1.0  0.35810  0.85250  0.61450  1.0000 0.1498858887
H   H25       1.0  0.38720  0.31990  0.71770  1.0000 0.1333879358
H   H26       1.0  0.11280  0.68010  0.21770  1.0000 0.1333879358
H   H27       1.0  0.88720  0.18010  0.28230  1.0000 0.1333879358
H   H28       1.0  0.61280  0.81990  0.78230  1.0000 0.1333879358
H   H29       1.0  0.49640  0.33160  0.67640  1.0000 0.1560429424
H   H30       1.0  0.00360  0.66840  0.17640  1.0000 0.1560429424
H   H31       1.0  0.99640  0.16840  0.32360  1.0000 0.1560429424
H   H32       1.0  0.50360  0.83160  0.82360  1.0000 0.1560429424
H   H33       1.0  0.41370  0.21410  0.70790  1.0000 0.1333879358
H   H34       1.0  0.08630  0.78590  0.20790  1.0000 0.1333879358
H   H35       1.0  0.91370  0.28590  0.29210  1.0000 0.1333879358
H   H36       1.0  0.58630  0.71410  0.79210  1.0000 0.1333879358
H   H37       1.0  0.35110  0.15970  0.78770  1.0000 0.1399897938
H   H38       1.0  0.14890  0.84030  0.28770  1.0000 0.1399897938
H   H39       1.0  0.85110  0.34030  0.21230  1.0000 0.1399897938
H   H40       1.0  0.64890  0.65970  0.71230  1.0000 0.1399897938
H   H41       1.0  0.62280  0.13520  0.10000  1.0000 0.1560429424
H   H42       1.0  0.87720  0.86480  0.60000  1.0000 0.1560429424
H   H43       1.0  0.12280  0.36480  0.90000  1.0000 0.1560429424
H   H44       1.0  0.37720  0.63520  0.40000  1.0000 0.1560429424
H   H45       1.0  0.52270  0.07350  0.09310  1.0000 0.1498858887
H   H46       1.0  0.97730  0.92650  0.59310  1.0000 0.1498858887
H   H47       1.0  0.02270  0.42650  0.90690  1.0000 0.1498858887
H   H48       1.0  0.47730  0.57350  0.40690  1.0000 0.1498858887
C   C1        1.0  0.85350  0.07460  0.97080  1.0000 0.569150028
C   C2        1.0  0.64650  0.92540  0.47080  1.0000 0.569150028
C   C3        1.0  0.35350  0.42540  0.02920  1.0000 0.569150028
C   C4        1.0  0.14650  0.57460  0.52920  1.0000 0.569150028
C   C5        1.0  0.85770  0.03810  0.90840  1.0000 0.0203336871
C   C6        1.0  0.64230  0.96190  0.40840  1.0000 0.0203336871
C   C7        1.0  0.35770  0.46190  0.09160  1.0000 0.0203336871
C   C8        1.0  0.14230  0.53810  0.59160  1.0000 0.0203336871
C   C9        1.0  0.82330  0.97370  0.91530  1.0000 0.0402380513
C   C10       1.0  0.67670  0.02630  0.41530  1.0000 0.0402380513
C   C11       1.0  0.32330  0.52630  0.08470  1.0000 0.0402380513
C   C12       1.0  0.17670  0.47370  0.58470  1.0000 0.0402380513
C   C13       1.0  0.83400  0.93260  0.85680  1.0000 0.5766900945
C   C14       1.0  0.66600  0.06740  0.35680  1.0000 0.5766900945
C   C15       1.0  0.33400  0.56740  0.14320  1.0000 0.5766900945
C   C16       1.0  0.16600  0.43260  0.64320  1.0000 0.5766900945
C   C17       1.0  0.73720  0.98750  0.62000  1.0000 0.585581915
C   C18       1.0  0.76280  0.01250  0.12000  1.0000 0.585581915
C   C19       1.0  0.23720  0.51250  0.38000  1.0000 0.585581915
C   C20       1.0  0.26280  0.48750  0.88000  1.0000 0.585581915
C   C21       1.0  0.72020  0.05910  0.61390  1.0000 0.0313127905
C   C22       1.0  0.77980  0.94090  0.11390  1.0000 0.0313127905
C   C23       1.0  0.22020  0.44090  0.38610  1.0000 0.0313127905
C   C24       1.0  0.27980  0.55910  0.88610  1.0000 0.0313127905
C   C25       1.0  0.64540  0.06700  0.60230  1.0000 0.0402380513
C   C26       1.0  0.85460  0.93300  0.10230  1.0000 0.0402380513
C   C27       1.0  0.14540  0.43300  0.39770  1.0000 0.0402380513
C   C28       1.0  0.35460  0.56700  0.89770  1.0000 0.0402380513
C   C29       1.0  0.62880  0.13570  0.58690  1.0000 0.5766900945
C   C30       1.0  0.87120  0.86430  0.08690  1.0000 0.5766900945
C   C31       1.0  0.12880  0.36430  0.41310  1.0000 0.5766900945
C   C32       1.0  0.37120  0.63570  0.91310  1.0000 0.5766900945
C   C33       1.0  0.65250  0.33260  0.76390  1.0000 0.569150028
C   C34       1.0  0.84750  0.66740  0.26390  1.0000 0.569150028
C   C35       1.0  0.15250  0.16740  0.23610  1.0000 0.569150028
C   C36       1.0  0.34750  0.83260  0.73610  1.0000 0.569150028
C   C37       1.0  0.70210  0.31390  0.81670  1.0000 0.0402380513
C   C38       1.0  0.79790  0.68610  0.31670  1.0000 0.0402380513
C   C39       1.0  0.20210  0.18610  0.18330  1.0000 0.0402380513
C   C40       1.0  0.29790  0.81390  0.68330  1.0000 0.0402380513
C   C41       1.0  0.66470  0.31140  0.87950  1.0000 0.0402380513
C   C42       1.0  0.83530  0.68860  0.37950  1.0000 0.0402380513
C   C43       1.0  0.16470  0.18860  0.12050  1.0000 0.0402380513
C   C44       1.0  0.33530  0.81140  0.62050  1.0000 0.0402380513
C   C45       1.0  0.71070  0.30130  0.93490  1.0000 0.5766900945
C   C46       1.0  0.78930  0.69870  0.43490  1.0000 0.5766900945
C   C47       1.0  0.21070  0.19870  0.06510  1.0000 0.569150028
C   C48       1.0  0.28930  0.80130  0.56510  1.0000 0.5766900945
C   C49       1.0  0.37950  0.33940  0.62110  1.0000 0.5766900945
C   C50       1.0  0.12050  0.66060  0.12110  1.0000 0.5766900945
C   C51       1.0  0.87950  0.16060  0.37890  1.0000 0.5766900945
C   C52       1.0  0.62050  0.83940  0.87890  1.0000 0.5766900945
C   C53       1.0  0.39860  0.35610  0.69010  1.0000 0.0501465861
C   C54       1.0  0.10140  0.64390  0.19010  1.0000 0.0501465861
C   C55       1.0  0.89860  0.14390  0.30990  1.0000 0.0501465861
C   C56       1.0  0.60140  0.85610  0.80990  1.0000 0.0501465861
C   C57       1.0  0.47250  0.36820  0.69460  1.0000 0.0313127905
C   C58       1.0  0.02750  0.63180  0.19460  1.0000 0.0313127905
C   C59       1.0  0.97250  0.13180  0.30540  1.0000 0.0313127905
C   C60       1.0  0.52750  0.86820  0.80540  1.0000 0.0313127905
C   C61       1.0  0.49230  0.37590  0.76580  1.0000 0.585581915
C   C62       1.0  0.00770  0.62410  0.26580  1.0000 0.585581915
C   C63       1.0  0.99230  0.12410  0.23420  1.0000 0.585581915
C   C64       1.0  0.50770  0.87590  0.73420  1.0000 0.585581915
C   C65       1.0  0.41700  0.11850  0.68760  1.0000 0.569150028
C   C66       1.0  0.08300  0.88150  0.18760  1.0000 0.569150028
C   C67       1.0  0.91700  0.38150  0.31240  1.0000 0.569150028
C   C68       1.0  0.58300  0.61850  0.81240  1.0000 0.569150028
C   C69       1.0  0.43180  0.17570  0.72870  1.0000 0.0313127905
C   C70       1.0  0.06820  0.82430  0.22870  1.0000 0.0313127905
C   C71       1.0  0.93180  0.32430  0.27130  1.0000 0.0313127905
C   C72       1.0  0.56820  0.67570  0.77130  1.0000 0.0313127905
C   C73       1.0  0.39880  0.16820  0.79380  1.0000 0.0402380513
C   C74       1.0  0.10120  0.83180  0.29380  1.0000 0.0402380513
C   C75       1.0  0.89880  0.33180  0.20620  1.0000 0.0501465861
C   C76       1.0  0.60120  0.66820  0.70620  1.0000 0.0402380513
C   C77       1.0  0.40670  0.23120  0.83200  1.0000 0.5631781309
C   C78       1.0  0.09330  0.76880  0.33200  1.0000 0.5631781309
C   C79       1.0  0.90670  0.26880  0.16800  1.0000 0.5631781309
C   C80       1.0  0.59330  0.73120  0.66800  1.0000 0.5631781309
C   C81       1.0  0.55400  0.18810  0.05200  1.0000 0.5766900945
C   C82       1.0  0.94600  0.81190  0.55200  1.0000 0.5766900945
C   C83       1.0  0.05400  0.31190  0.94800  1.0000 0.5766900945
C   C84       1.0  0.44600  0.68810  0.44800  1.0000 0.5766900945
C   C85       1.0  0.59890  0.13120  0.05940  1.0000 0.0402380513
C   C86       1.0  0.90110  0.86880  0.55940  1.0000 0.0402380513
C   C87       1.0  0.09890  0.36880  0.94060  1.0000 0.0402380513
C   C88       1.0  0.40110  0.63120  0.44060  1.0000 0.0402380513
C   C89       1.0  0.55780  0.06950  0.06080  1.0000 0.0501465861
C   C90       1.0  0.94220  0.93050  0.56080  1.0000 0.0501465861
C   C91       1.0  0.05780  0.43050  0.93920  1.0000 0.0501465861
C   C92       1.0  0.44220  0.56950  0.43920  1.0000 0.0501465861
C   C93       1.0  0.60490  0.01290  0.07910  1.0000 0.5631781309
C   C94       1.0  0.89510  0.98710  0.57910  1.0000 0.5631781309
C   C95       1.0  0.10490  0.48710  0.92090  1.0000 0.5631781309
C   C96       1.0  0.39510  0.51290  0.42090  1.0000 0.5631781309
O   O1        1.0  0.76860  0.14124  0.77587  1.0000 -0.6943509192
O   O2        1.0  0.73140  0.85876  0.27587  1.0000 -0.6943509192
O   O3        1.0  0.26860  0.35876  0.22413  1.0000 -0.6943509192
O   O4        1.0  0.23140  0.64124  0.72413  1.0000 -0.6943509192
O   O5        1.0  0.48600  0.03135  0.89160  1.0000 -0.69778063
O   O6        1.0  0.01400  0.96865  0.39160  1.0000 -0.69778063
O   O7        1.0  0.98600  0.46865  0.10840  1.0000 -0.69778063
O   O8        1.0  0.51400  0.53135  0.60840  1.0000 -0.69778063
O   O9        1.0  0.69430  0.13069  0.89094  1.0000 -0.7987999082
O   O10       1.0  0.80570  0.86931  0.39094  1.0000 -0.7987999082
O   O11       1.0  0.19430  0.36931  0.10906  1.0000 -0.7987999082
O   O12       1.0  0.30570  0.63069  0.60906  1.0000 -0.7987999082
O   O13       1.0  0.69520  0.02627  0.79141  1.0000 -0.8080977001
O   O14       1.0  0.80480  0.97373  0.29141  1.0000 -0.8080977001
O   O15       1.0  0.19520  0.47373  0.20859  1.0000 -0.8080977001
O   O16       1.0  0.30480  0.52627  0.70859  1.0000 -0.8080977001
O   O17       1.0  0.62910  0.15356  0.76229  1.0000 -0.8080977001
O   O18       1.0  0.87090  0.84644  0.26229  1.0000 -0.8080977001
O   O19       1.0  0.12910  0.34644  0.23771  1.0000 -0.8080977001
O   O20       1.0  0.37090  0.65356  0.73771  1.0000 -0.8080977001
O   O21       1.0  0.62650  0.01412  0.89986  1.0000 -0.8080977001
O   O22       1.0  0.87350  0.98588  0.39986  1.0000 -0.8080977001
O   O23       1.0  0.12650  0.48588  0.10014  1.0000 -0.8080977001
O   O24       1.0  0.37350  0.51412  0.60014  1.0000 -0.8080977001
O   O25       1.0  0.55680  0.04710  0.77569  1.0000 -0.8080977001
O   O26       1.0  0.94320  0.95290  0.27569  1.0000 -0.8080977001
O   O27       1.0  0.05680  0.45290  0.22431  1.0000 -0.8080977001
O   O28       1.0  0.44320  0.54710  0.72431  1.0000 -0.8080977001
O   O29       1.0  0.56210  0.14383  0.88100  1.0000 -0.7987999082
O   O30       1.0  0.93790  0.85617  0.38100  1.0000 -0.7987999082
O   O31       1.0  0.06210  0.35617  0.11900  1.0000 -0.7987999082
O   O32       1.0  0.43790  0.64383  0.61900  1.0000 -0.7987999082
O   O33       1.0  0.80560  0.11670  0.97340  1.0000 -0.5010107932
O   O34       1.0  0.69440  0.88330  0.47340  1.0000 -0.5010107932
O   O35       1.0  0.30560  0.38330  0.02660  1.0000 -0.4881932696
O   O36       1.0  0.19440  0.61670  0.52660  1.0000 -0.5010107932
O   O37       1.0  0.89130  0.06210  0.01500  1.0000 -0.425330779
O   O38       1.0  0.60870  0.93790  0.51500  1.0000 -0.425330779
O   O39       1.0  0.39130  0.43790  0.98500  1.0000 -0.425330779
O   O40       1.0  0.10870  0.56210  0.48500  1.0000 -0.425330779
O   O41       1.0  0.82640  0.07280  0.85790  1.0000 -0.5010107932
O   O42       1.0  0.67360  0.92720  0.35790  1.0000 -0.5104199703
O   O43       1.0  0.32640  0.42720  0.14210  1.0000 -0.5010107932
O   O44       1.0  0.17360  0.57280  0.64210  1.0000 -0.5104199703
O   O45       1.0  0.75280  0.98320  0.92640  1.0000 -0.5485636652
O   O46       1.0  0.74720  0.01680  0.42640  1.0000 -0.5485636652
O   O47       1.0  0.25280  0.51680  0.07360  1.0000 -0.5485636652
O   O48       1.0  0.24720  0.48320  0.57360  1.0000 -0.5485636652
O   O49       1.0  0.78010  0.92060  0.82420  1.0000 -0.5206282467
O   O50       1.0  0.71990  0.07940  0.32420  1.0000 -0.5206282467
O   O51       1.0  0.28010  0.57940  0.17580  1.0000 -0.5206282467
O   O52       1.0  0.21990  0.42060  0.67580  1.0000 -0.5206282467
O   O53       1.0  0.89000  0.91410  0.84420  1.0000 -0.4080187291
O   O54       1.0  0.61000  0.08590  0.34420  1.0000 -0.4080187291
O   O55       1.0  0.39000  0.58590  0.15580  1.0000 -0.4080187291
O   O56       1.0  0.11000  0.41410  0.65580  1.0000 -0.4080187291
O   O57       1.0  0.73550  0.96620  0.67720  1.0000 -0.4801155197
O   O58       1.0  0.76450  0.03380  0.17720  1.0000 -0.4801155197
O   O59       1.0  0.23550  0.53380  0.32280  1.0000 -0.4801155197
O   O60       1.0  0.26450  0.46620  0.82280  1.0000 -0.4801155197
O   O61       1.0  0.74810  0.95510  0.57290  1.0000 -0.4080187291
O   O62       1.0  0.75190  0.04490  0.07290  1.0000 -0.4080187291
O   O63       1.0  0.24810  0.54490  0.42710  1.0000 -0.4080187291
O   O64       1.0  0.25190  0.45510  0.92710  1.0000 -0.4080187291
O   O65       1.0  0.73750  0.09220  0.67050  1.0000 -0.5104199703
O   O66       1.0  0.76250  0.90780  0.17050  1.0000 -0.5104199703
O   O67       1.0  0.23750  0.40780  0.32950  1.0000 -0.5104199703
O   O68       1.0  0.26250  0.59220  0.82950  1.0000 -0.5104199703
O   O69       1.0  0.60700  0.04680  0.65600  1.0000 -0.5384452068
O   O70       1.0  0.89300  0.95320  0.15600  1.0000 -0.5384452068
O   O71       1.0  0.10700  0.45320  0.34400  1.0000 -0.5384452068
O   O72       1.0  0.39300  0.54680  0.84400  1.0000 -0.5384452068
O   O73       1.0  0.59170  0.16530  0.62870  1.0000 -0.527831784
O   O74       1.0  0.90830  0.83470  0.12870  1.0000 -0.527831784
O   O75       1.0  0.09170  0.33470  0.37130  1.0000 -0.527831784
O   O76       1.0  0.40830  0.66530  0.87130  1.0000 -0.527831784
O   O77       1.0  0.65170  0.16210  0.53910  1.0000 -0.4607380465
O   O78       1.0  0.84830  0.83790  0.03910  1.0000 -0.4607380465
O   O79       1.0  0.15170  0.33790  0.46090  1.0000 -0.4607380465
O   O80       1.0  0.34830  0.66210  0.96090  1.0000 -0.4607380465
O   O81       1.0  0.62630  0.28580  0.73410  1.0000 -0.5104199703
O   O82       1.0  0.87370  0.71420  0.23410  1.0000 -0.5104199703
O   O83       1.0  0.12630  0.21420  0.26590  1.0000 -0.5104199703
O   O84       1.0  0.37370  0.78580  0.76590  1.0000 -0.5104199703
O   O85       1.0  0.64030  0.39050  0.75520  1.0000 -0.4801155197
O   O86       1.0  0.85970  0.60950  0.25520  1.0000 -0.4801155197
O   O87       1.0  0.14030  0.10950  0.24480  1.0000 -0.4801155197
O   O88       1.0  0.35970  0.89050  0.74480  1.0000 -0.4801155197
O   O89       1.0  0.73140  0.25340  0.80440  1.0000 -0.5010107932
O   O90       1.0  0.76860  0.74660  0.30440  1.0000 -0.5010107932
O   O91       1.0  0.23140  0.24660  0.19560  1.0000 -0.5010107932
O   O92       1.0  0.26860  0.75340  0.69560  1.0000 -0.5010107932
O   O93       1.0  0.61620  0.26280  0.87910  1.0000 -0.5104199703
O   O94       1.0  0.88380  0.73720  0.37910  1.0000 -0.5206282467
O   O95       1.0  0.11620  0.23720  0.12090  1.0000 -0.5104199703
O   O96       1.0  0.38380  0.76280  0.62090  1.0000 -0.5206282467
O   O97       1.0  0.70620  0.24660  0.96380  1.0000 -0.527831784
O   O98       1.0  0.79380  0.75340  0.46380  1.0000 -0.527831784
O   O99       1.0  0.20620  0.25340  0.03620  1.0000 -0.527831784
O   O100      1.0  0.29380  0.74660  0.53620  1.0000 -0.527831784
O   O101      1.0  0.75360  0.34270  0.94990  1.0000 -0.4801155197
O   O102      1.0  0.74640  0.65730  0.44990  1.0000 -0.4801155197
O   O103      1.0  0.25360  0.15730  0.05010  1.0000 -0.4704816968
O   O104      1.0  0.24640  0.84270  0.55010  1.0000 -0.4801155197
O   O105      1.0  0.34200  0.37840  0.59250  1.0000 -0.5104199703
O   O106      1.0  0.15800  0.62160  0.09250  1.0000 -0.5104199703
O   O107      1.0  0.84200  0.12160  0.40750  1.0000 -0.5104199703
O   O108      1.0  0.65800  0.87840  0.90750  1.0000 -0.5104199703
O   O109      1.0  0.40170  0.28960  0.59700  1.0000 -0.4607380465
O   O110      1.0  0.09830  0.71040  0.09700  1.0000 -0.4607380465
O   O111      1.0  0.90170  0.21040  0.40300  1.0000 -0.4607380465
O   O112      1.0  0.59830  0.78960  0.90300  1.0000 -0.4607380465
O   O113      1.0  0.36070  0.40950  0.70890  1.0000 -0.5384452068
O   O114      1.0  0.13930  0.59050  0.20890  1.0000 -0.5384452068
O   O115      1.0  0.86070  0.09050  0.29110  1.0000 -0.5384452068
O   O116      1.0  0.63930  0.90950  0.79110  1.0000 -0.5384452068
O   O117      1.0  0.48900  0.42485  0.65910  1.0000 -0.5104199703
O   O118      1.0  0.01100  0.57515  0.15910  1.0000 -0.5104199703
O   O119      1.0  0.98900  0.07515  0.34090  1.0000 -0.5104199703
O   O120      1.0  0.51100  0.92485  0.84090  1.0000 -0.5104199703
O   O121      1.0  0.49100  0.43439  0.78530  1.0000 -0.4801155197
O   O122      1.0  0.00900  0.56561  0.28530  1.0000 -0.4801155197
O   O123      1.0  0.99100  0.06561  0.21470  1.0000 -0.4801155197
O   O124      1.0  0.50900  0.93439  0.71470  1.0000 -0.4881932696
O   O125      1.0  0.50640  0.33040  0.79820  1.0000 -0.3904795409
O   O126      1.0  0.99360  0.66960  0.29820  1.0000 -0.3904795409
O   O127      1.0  0.00640  0.16960  0.20180  1.0000 -0.3904795409
O   O128      1.0  0.49360  0.83040  0.70180  1.0000 -0.3904795409
O   O129      1.0  0.46950  0.08310  0.67200  1.0000 -0.5384452068
O   O130      1.0  0.03050  0.91690  0.17200  1.0000 -0.5384452068
O   O131      1.0  0.96950  0.41690  0.32800  1.0000 -0.5384452068
O   O132      1.0  0.53050  0.58310  0.82800  1.0000 -0.5384452068
O   O133      1.0  0.36110  0.10630  0.67070  1.0000 -0.3797438652
O   O134      1.0  0.13890  0.89370  0.17070  1.0000 -0.3797438652
O   O135      1.0  0.86110  0.39370  0.32930  1.0000 -0.3797438652
O   O136      1.0  0.63890  0.60630  0.82930  1.0000 -0.3741225809
O   O137      1.0  0.50240  0.18377  0.73660  1.0000 -0.5384452068
O   O138      1.0  0.99760  0.81623  0.23660  1.0000 -0.5384452068
O   O139      1.0  0.00240  0.31623  0.26340  1.0000 -0.5384452068
O   O140      1.0  0.49760  0.68377  0.76340  1.0000 -0.5384452068
O   O141      1.0  0.42730  0.11690  0.82650  1.0000 -0.5010107932
O   O142      1.0  0.07270  0.88310  0.32650  1.0000 -0.5010107932
O   O143      1.0  0.92730  0.38310  0.17350  1.0000 -0.5010107932
O   O144      1.0  0.57270  0.61690  0.67350  1.0000 -0.5010107932
O   O145      1.0  0.45620  0.23090  0.87090  1.0000 -0.4881932696
O   O146      1.0  0.04380  0.76910  0.37090  1.0000 -0.4881932696
O   O147      1.0  0.95620  0.26910  0.12910  1.0000 -0.4881932696
O   O148      1.0  0.54380  0.73090  0.62910  1.0000 -0.4881932696
O   O149      1.0  0.37020  0.27610  0.82120  1.0000 -0.4218573705
O   O150      1.0  0.12980  0.72390  0.32120  1.0000 -0.4218573705
O   O151      1.0  0.87020  0.22390  0.17880  1.0000 -0.4218573705
O   O152      1.0  0.62980  0.77610  0.67880  1.0000 -0.4218573705
O   O153      1.0  0.55760  0.21740  0.99890  1.0000 -0.5104199703
O   O154      1.0  0.94240  0.78260  0.49890  1.0000 -0.5104199703
O   O155      1.0  0.05760  0.28260  0.00110  1.0000 -0.5104199703
O   O156      1.0  0.44240  0.71740  0.50110  1.0000 -0.5104199703
O   O157      1.0  0.51870  0.20490  0.09690  1.0000 -0.4490608782
O   O158      1.0  0.98130  0.79510  0.59690  1.0000 -0.4490608782
O   O159      1.0  0.01870  0.29510  0.90310  1.0000 -0.4490608782
O   O160      1.0  0.48130  0.70490  0.40310  1.0000 -0.4490608782
O   O161      1.0  0.64590  0.12970  0.00990  1.0000 -0.5104199703
O   O162      1.0  0.85410  0.87030  0.50990  1.0000 -0.5104199703
O   O163      1.0  0.14590  0.37030  0.99010  1.0000 -0.5010107932
O   O164      1.0  0.35410  0.62970  0.49010  1.0000 -0.5104199703
O   O165      1.0  0.52860  0.05840  0.00160  1.0000 -0.5010107932
O   O166      1.0  0.97140  0.94160  0.50160  1.0000 -0.5010107932
O   O167      1.0  0.02860  0.44160  0.99840  1.0000 -0.5010107932
O   O168      1.0  0.47140  0.55840  0.49840  1.0000 -0.5010107932
O   O169      1.0  0.62950  0.98340  0.03000  1.0000 -0.5206282467
O   O170      1.0  0.87050  0.01660  0.53000  1.0000 -0.5206282467
O   O171      1.0  0.12950  0.51660  0.97000  1.0000 -0.5206282467
O   O172      1.0  0.37050  0.48340  0.47000  1.0000 -0.5206282467
O   O173      1.0  0.61820  0.00250  0.13520  1.0000 -0.4704816968
O   O174      1.0  0.88180  0.99750  0.63520  1.0000 -0.4704816968
O   O175      1.0  0.11820  0.49750  0.86480  1.0000 -0.4704816968
O   O176      1.0  0.38180  0.50250  0.36480  1.0000 -0.4704816968
