# DDEC6 charges by PACMAN v1.1 (https://github.com/mtap-research/PACMAN-charge/)
data_2012[Zn][pcu]3[ASR]2
_chemical_formula_sum              "Zn16 H256 C280 N24 O52"
_cell_length_a       23.0013
_cell_length_b       14.0578
_cell_length_c       38.5068
_cell_angle_alpha    90
_cell_angle_beta     125.793
_cell_angle_gamma    90

_symmetry_space_group_name_H-M    "P 1"
_symmetry_Int_Tables_number       1

loop_
  _symmetry_equiv_pos_as_xyz
  'x, y, z'

loop_
  _atom_site_type_symbol
  _atom_site_label
  _atom_site_symmetry_multiplicity
  _atom_site_fract_x
  _atom_site_fract_y
  _atom_site_fract_z
  _atom_site_occupancy
  _atom_site_charge
Zn  Zn1       1.0  0.92535  0.20127  0.15743  1.0000 0.9133772601
Zn  Zn2       1.0  0.92535  0.29873  0.65743  1.0000 0.9133772601
Zn  Zn3       1.0  0.86456  0.99440  0.15038  1.0000 0.8312068481
Zn  Zn4       1.0  0.86456  0.50560  0.65038  1.0000 0.8312068481
Zn  Zn5       1.0  0.42199  0.16602  0.89157  1.0000 0.7593875747
Zn  Zn6       1.0  0.42199  0.33398  0.39157  1.0000 0.7593875747
Zn  Zn7       1.0  0.84227  0.28750  0.37314  1.0000 0.766634648
Zn  Zn8       1.0  0.84227  0.21250  0.87314  1.0000 0.7593875747
Zn  Zn9       1.0  0.07465  0.70127  0.34257  1.0000 0.9133772601
Zn  Zn10      1.0  0.07465  0.79873  0.84257  1.0000 0.9133772601
Zn  Zn11      1.0  0.13544  0.49440  0.34962  1.0000 0.8312068481
Zn  Zn12      1.0  0.13544  0.00560  0.84962  1.0000 0.8312068481
Zn  Zn13      1.0  0.57801  0.66602  0.60843  1.0000 0.7593875747
Zn  Zn14      1.0  0.57801  0.83398  0.10843  1.0000 0.7593875747
Zn  Zn15      1.0  0.15773  0.78750  0.12686  1.0000 0.7593875747
Zn  Zn16      1.0  0.15773  0.71250  0.62686  1.0000 0.7593875747
H   H1        1.0  0.71960  0.27990  0.05140  1.0000 0.1208497672
H   H2        1.0  0.71960  0.22010  0.55140  1.0000 0.1208497672
H   H3        1.0  0.64480  0.01250  0.03190  1.0000 0.1208497672
H   H4        1.0  0.64480  0.48750  0.53190  1.0000 0.1208497672
H   H5        1.0  0.54490  0.35050  0.92160  1.0000 0.1394217711
H   H6        1.0  0.54490  0.14950  0.42160  1.0000 0.1394217711
H   H7        1.0  0.57950  0.45210  0.93400  1.0000 0.1300985868
H   H8        1.0  0.57950  0.04790  0.43400  1.0000 0.1300985868
H   H9        1.0  0.62640  0.36300  0.94140  1.0000 0.1300985868
H   H10       1.0  0.62640  0.13700  0.44140  1.0000 0.1300985868
H   H11       1.0  0.66730  0.49840  0.00760  1.0000 0.1394217711
H   H12       1.0  0.66730  0.00160  0.50760  1.0000 0.1394217711
H   H13       1.0  0.69000  0.42800  0.04510  1.0000 0.1300985868
H   H14       1.0  0.69000  0.07200  0.54510  1.0000 0.1300985868
H   H15       1.0  0.71320  0.40820  0.01480  1.0000 0.1208497672
H   H16       1.0  0.71320  0.09180  0.51480  1.0000 0.1208497672
H   H17       1.0  0.50410  0.38110  0.97050  1.0000 0.1475724764
H   H18       1.0  0.50410  0.11890  0.47050  1.0000 0.1475724764
H   H19       1.0  0.56270  0.41320  0.01770  1.0000 0.1300985868
H   H20       1.0  0.56270  0.08680  0.51770  1.0000 0.1300985868
H   H21       1.0  0.53980  0.48160  0.97950  1.0000 0.1394217711
H   H22       1.0  0.53980  0.01840  0.47950  1.0000 0.1394217711
H   H23       1.0  0.53030  0.97170  0.97770  1.0000 0.1006204431
H   H24       1.0  0.53030  0.52830  0.47770  1.0000 0.1006204431
H   H25       1.0  0.47200  0.85370  0.94440  1.0000 0.1300985868
H   H26       1.0  0.47200  0.64630  0.44440  1.0000 0.1300985868
H   H27       1.0  0.38800  0.73510  0.90490  1.0000 0.1300985868
H   H28       1.0  0.38800  0.76490  0.40490  1.0000 0.1300985868
H   H29       1.0  0.27660  0.77370  0.84330  1.0000 0.1300985868
H   H30       1.0  0.27660  0.72630  0.34330  1.0000 0.1300985868
H   H31       1.0  0.24900  0.93100  0.82120  1.0000 0.1208497672
H   H32       1.0  0.24900  0.56900  0.32120  1.0000 0.1208497672
H   H33       1.0  0.23030  0.07060  0.81500  1.0000 0.1112249519
H   H34       1.0  0.23030  0.42940  0.31500  1.0000 0.1112249519
H   H35       1.0  0.18060  0.46140  0.78120  1.0000 0.1112249519
H   H36       1.0  0.18060  0.03860  0.28120  1.0000 0.1112249519
H   H37       1.0  0.14570  0.17930  0.76920  1.0000 0.1208497672
H   H38       1.0  0.14570  0.32070  0.26920  1.0000 0.1208497672
H   H39       1.0  0.40840  0.52640  0.85730  1.0000 0.1208497672
H   H40       1.0  0.40840  0.97360  0.35730  1.0000 0.1208497672
H   H41       1.0  0.40620  0.41490  0.85630  1.0000 0.1394217711
H   H42       1.0  0.40620  0.08510  0.35630  1.0000 0.1394217711
H   H43       1.0  0.36030  0.47270  0.81350  1.0000 0.1300985868
H   H44       1.0  0.36030  0.02730  0.31350  1.0000 0.1300985868
H   H45       1.0  0.37510  0.53000  0.90710  1.0000 0.1300985868
H   H46       1.0  0.37510  0.97000  0.40710  1.0000 0.1300985868
H   H47       1.0  0.30510  0.47870  0.89510  1.0000 0.1300985868
H   H48       1.0  0.30510  0.02130  0.39510  1.0000 0.1300985868
H   H49       1.0  0.37200  0.41860  0.90730  1.0000 0.1475724764
H   H50       1.0  0.37200  0.08140  0.40730  1.0000 0.1475724764
H   H51       1.0  0.31000  0.61800  0.84200  1.0000 0.1300985868
H   H52       1.0  0.31000  0.88200  0.34200  1.0000 0.1300985868
H   H53       1.0  0.26040  0.56730  0.79760  1.0000 0.1208497672
H   H54       1.0  0.26040  0.93270  0.29760  1.0000 0.1208497672
H   H55       1.0  0.23870  0.56950  0.82930  1.0000 0.1300985868
H   H56       1.0  0.23870  0.93050  0.32930  1.0000 0.1300985868
H   H57       1.0  0.87810  0.27500  0.24980  1.0000 0.1208497672
H   H58       1.0  0.87810  0.22500  0.74980  1.0000 0.1208497672
H   H59       1.0  0.88320  0.99300  0.26840  1.0000 0.1112249519
H   H60       1.0  0.88320  0.50700  0.76840  1.0000 0.1112249519
H   H61       1.0  0.81520  0.92560  0.35150  1.0000 0.1300985868
H   H62       1.0  0.81520  0.57440  0.85150  1.0000 0.1300985868
H   H63       1.0  0.80770  0.03640  0.34610  1.0000 0.1394217711
H   H64       1.0  0.80770  0.46360  0.84610  1.0000 0.1394217711
H   H65       1.0  0.77230  0.97080  0.30560  1.0000 0.1300985868
H   H66       1.0  0.77230  0.52920  0.80560  1.0000 0.1300985868
H   H67       1.0  0.95180  0.93960  0.39990  1.0000 0.1394217711
H   H68       1.0  0.95180  0.56040  0.89990  1.0000 0.1394217711
H   H69       1.0  0.99040  0.99760  0.38410  1.0000 0.1300985868
H   H70       1.0  0.99040  0.50240  0.88410  1.0000 0.1300985868
H   H71       1.0  0.94360  0.05050  0.39550  1.0000 0.1394217711
H   H72       1.0  0.94360  0.44950  0.89550  1.0000 0.1394217711
H   H73       1.0  0.89230  0.83630  0.33620  1.0000 0.1300985868
H   H74       1.0  0.89230  0.66370  0.83620  1.0000 0.1300985868
H   H75       1.0  0.84560  0.88020  0.29010  1.0000 0.1300985868
H   H76       1.0  0.84560  0.61980  0.79010  1.0000 0.1300985868
H   H77       1.0  0.92920  0.89030  0.31830  1.0000 0.1394217711
H   H78       1.0  0.92920  0.60970  0.81830  1.0000 0.1394217711
H   H79       1.0  0.88540  0.38440  0.29620  1.0000 0.1112249519
H   H80       1.0  0.88540  0.11560  0.79620  1.0000 0.1112249519
H   H81       1.0  0.86850  0.52790  0.30010  1.0000 0.1300985868
H   H82       1.0  0.86850  0.97210  0.80010  1.0000 0.1300985868
H   H83       1.0  0.88400  0.68390  0.32360  1.0000 0.1208497672
H   H84       1.0  0.88400  0.81610  0.82360  1.0000 0.1208497672
H   H85       1.0  0.90000  0.71750  0.38770  1.0000 0.1300985868
H   H86       1.0  0.90000  0.78250  0.88770  1.0000 0.1300985868
H   H87       1.0  0.90040  0.59500  0.42820  1.0000 0.1300985868
H   H88       1.0  0.90040  0.90500  0.92820  1.0000 0.1300985868
H   H89       1.0  0.91940  0.47440  0.46270  1.0000 0.1006204431
H   H90       1.0  0.91940  0.02560  0.96270  1.0000 0.1006204431
H   H91       1.0  0.89120  0.16580  0.54360  1.0000 0.1208497672
H   H92       1.0  0.89120  0.33420  0.04360  1.0000 0.1208497672
H   H93       1.0  0.93010  0.43060  0.52260  1.0000 0.1112249519
H   H94       1.0  0.93010  0.06940  0.02260  1.0000 0.1112249519
H   H95       1.0  0.75260  0.01340  0.42170  1.0000 0.1300985868
H   H96       1.0  0.75260  0.48660  0.92170  1.0000 0.1208497672
H   H97       1.0  0.73760  0.10910  0.43600  1.0000 0.1300985868
H   H98       1.0  0.73760  0.39090  0.93600  1.0000 0.1300985868
H   H99       1.0  0.76650  0.11080  0.40790  1.0000 0.1394217711
H   H100      1.0  0.76650  0.38920  0.90790  1.0000 0.1394217711
H   H101      1.0  0.87800  0.96380  0.45210  1.0000 0.1300985868
H   H102      1.0  0.87800  0.53620  0.95210  1.0000 0.1300985868
H   H103      1.0  0.89400  0.06180  0.43980  1.0000 0.1475724764
H   H104      1.0  0.89400  0.43820  0.93980  1.0000 0.1475724764
H   H105      1.0  0.94240  0.02620  0.48740  1.0000 0.1300985868
H   H106      1.0  0.94240  0.47380  0.98740  1.0000 0.1300985868
H   H107      1.0  0.82700  0.95660  0.49300  1.0000 0.1300985868
H   H108      1.0  0.82700  0.54340  0.99300  1.0000 0.1300985868
H   H109      1.0  0.89270  0.01530  0.52960  1.0000 0.1300985868
H   H110      1.0  0.89270  0.48470  0.02960  1.0000 0.1300985868
H   H111      1.0  0.81450  0.04930  0.51040  1.0000 0.1208497672
H   H112      1.0  0.81450  0.45070  0.01040  1.0000 0.1208497672
H   H113      1.0  0.97300  0.84180  0.20280  1.0000 0.1208497672
H   H114      1.0  0.97300  0.65820  0.70280  1.0000 0.1208497672
H   H115      1.0  0.98180  0.67730  0.20380  1.0000 0.1300985868
H   H116      1.0  0.98180  0.82270  0.70380  1.0000 0.1300985868
H   H117      1.0  0.77900  0.66140  0.09840  1.0000 0.1394217711
H   H118      1.0  0.77900  0.83860  0.59840  1.0000 0.1394217711
H   H119      1.0  0.77010  0.82590  0.09740  1.0000 0.1208497672
H   H120      1.0  0.77010  0.67410  0.59740  1.0000 0.1208497672
H   H121      1.0  0.95600  0.53350  0.21650  1.0000 0.1394217711
H   H122      1.0  0.95600  0.96650  0.71650  1.0000 0.1394217711
H   H123      1.0  0.96950  0.36960  0.21880  1.0000 0.1208497672
H   H124      1.0  0.96950  0.13040  0.71880  1.0000 0.1208497672
H   H125      1.0  0.83730  0.35950  0.09030  1.0000 0.1208497672
H   H126      1.0  0.83730  0.14050  0.59030  1.0000 0.1208497672
H   H127      1.0  0.82380  0.52350  0.08800  1.0000 0.1394217711
H   H128      1.0  0.82380  0.97650  0.58800  1.0000 0.1394217711
H   H129      1.0  0.28040  0.77990  0.44860  1.0000 0.1208497672
H   H130      1.0  0.28040  0.72010  0.94860  1.0000 0.1208497672
H   H131      1.0  0.35520  0.51250  0.46810  1.0000 0.1208497672
H   H132      1.0  0.35520  0.98750  0.96810  1.0000 0.1208497672
H   H133      1.0  0.45510  0.85050  0.57840  1.0000 0.1394217711
H   H134      1.0  0.45510  0.64950  0.07840  1.0000 0.1394217711
H   H135      1.0  0.42050  0.95210  0.56600  1.0000 0.1300985868
H   H136      1.0  0.42050  0.54790  0.06600  1.0000 0.1300985868
H   H137      1.0  0.37360  0.86300  0.55860  1.0000 0.1300985868
H   H138      1.0  0.37360  0.63700  0.05860  1.0000 0.1300985868
H   H139      1.0  0.33270  0.99840  0.49240  1.0000 0.1394217711
H   H140      1.0  0.33270  0.50160  0.99240  1.0000 0.1394217711
H   H141      1.0  0.31000  0.92800  0.45490  1.0000 0.1300985868
H   H142      1.0  0.31000  0.57200  0.95490  1.0000 0.1300985868
H   H143      1.0  0.28680  0.90820  0.48520  1.0000 0.1208497672
H   H144      1.0  0.28680  0.59180  0.98520  1.0000 0.1208497672
H   H145      1.0  0.49590  0.88110  0.52950  1.0000 0.1475724764
H   H146      1.0  0.49590  0.61890  0.02950  1.0000 0.1475724764
H   H147      1.0  0.43730  0.91320  0.48230  1.0000 0.1300985868
H   H148      1.0  0.43730  0.58680  0.98230  1.0000 0.1300985868
H   H149      1.0  0.46020  0.98160  0.52050  1.0000 0.1394217711
H   H150      1.0  0.46020  0.51840  0.02050  1.0000 0.1394217711
H   H151      1.0  0.46970  0.47170  0.52230  1.0000 0.1006204431
H   H152      1.0  0.46970  0.02830  0.02230  1.0000 0.1006204431
H   H153      1.0  0.52800  0.35370  0.55560  1.0000 0.1300985868
H   H154      1.0  0.52800  0.14630  0.05560  1.0000 0.1300985868
H   H155      1.0  0.61200  0.23510  0.59510  1.0000 0.1300985868
H   H156      1.0  0.61200  0.26490  0.09510  1.0000 0.1300985868
H   H157      1.0  0.72340  0.27370  0.65670  1.0000 0.1300985868
H   H158      1.0  0.72340  0.22630  0.15670  1.0000 0.1300985868
H   H159      1.0  0.75100  0.43100  0.67880  1.0000 0.1208497672
H   H160      1.0  0.75100  0.06900  0.17880  1.0000 0.1208497672
H   H161      1.0  0.76970  0.57060  0.68500  1.0000 0.1112249519
H   H162      1.0  0.76970  0.92940  0.18500  1.0000 0.1112249519
H   H163      1.0  0.81940  0.96140  0.71880  1.0000 0.1112249519
H   H164      1.0  0.81940  0.53860  0.21880  1.0000 0.1112249519
H   H165      1.0  0.85430  0.67930  0.73080  1.0000 0.1208497672
H   H166      1.0  0.85430  0.82070  0.23080  1.0000 0.1208497672
H   H167      1.0  0.59160  0.02640  0.64270  1.0000 0.1208497672
H   H168      1.0  0.59160  0.47360  0.14270  1.0000 0.1208497672
H   H169      1.0  0.59380  0.91490  0.64370  1.0000 0.1394217711
H   H170      1.0  0.59380  0.58510  0.14370  1.0000 0.1394217711
H   H171      1.0  0.63970  0.97270  0.68650  1.0000 0.1300985868
H   H172      1.0  0.63970  0.52730  0.18650  1.0000 0.1300985868
H   H173      1.0  0.62490  0.03000  0.59290  1.0000 0.1300985868
H   H174      1.0  0.62490  0.47000  0.09290  1.0000 0.1300985868
H   H175      1.0  0.69490  0.97870  0.60490  1.0000 0.1300985868
H   H176      1.0  0.69490  0.52130  0.10490  1.0000 0.1300985868
H   H177      1.0  0.62800  0.91860  0.59270  1.0000 0.1475724764
H   H178      1.0  0.62800  0.58140  0.09270  1.0000 0.1475724764
H   H179      1.0  0.69000  0.11800  0.65800  1.0000 0.1300985868
H   H180      1.0  0.69000  0.38200  0.15800  1.0000 0.1300985868
H   H181      1.0  0.73960  0.06730  0.70240  1.0000 0.1208497672
H   H182      1.0  0.73960  0.43270  0.20240  1.0000 0.1208497672
H   H183      1.0  0.76130  0.06950  0.67070  1.0000 0.1300985868
H   H184      1.0  0.76130  0.43050  0.17070  1.0000 0.1300985868
H   H185      1.0  0.12190  0.77500  0.25020  1.0000 0.1208497672
H   H186      1.0  0.12190  0.72500  0.75020  1.0000 0.1208497672
H   H187      1.0  0.11680  0.49300  0.23160  1.0000 0.1112249519
H   H188      1.0  0.11680  0.00700  0.73160  1.0000 0.1112249519
H   H189      1.0  0.18480  0.42560  0.14850  1.0000 0.1300985868
H   H190      1.0  0.18480  0.07440  0.64850  1.0000 0.1300985868
H   H191      1.0  0.19230  0.53640  0.15390  1.0000 0.1394217711
H   H192      1.0  0.19230  0.96360  0.65390  1.0000 0.1394217711
H   H193      1.0  0.22770  0.47080  0.19440  1.0000 0.1300985868
H   H194      1.0  0.22770  0.02920  0.69440  1.0000 0.1300985868
H   H195      1.0  0.04820  0.43960  0.10010  1.0000 0.1394217711
H   H196      1.0  0.04820  0.06040  0.60010  1.0000 0.1394217711
H   H197      1.0  0.00960  0.49760  0.11590  1.0000 0.1300985868
H   H198      1.0  0.00960  0.00240  0.61590  1.0000 0.1300985868
H   H199      1.0  0.05640  0.55050  0.10450  1.0000 0.1394217711
H   H200      1.0  0.05640  0.94950  0.60450  1.0000 0.1394217711
H   H201      1.0  0.10770  0.33630  0.16380  1.0000 0.1300985868
H   H202      1.0  0.10770  0.16370  0.66380  1.0000 0.1300985868
H   H203      1.0  0.15440  0.38020  0.20990  1.0000 0.1300985868
H   H204      1.0  0.15440  0.11980  0.70990  1.0000 0.1300985868
H   H205      1.0  0.07080  0.39030  0.18170  1.0000 0.1394217711
H   H206      1.0  0.07080  0.10970  0.68170  1.0000 0.1394217711
H   H207      1.0  0.11460  0.88440  0.20380  1.0000 0.1112249519
H   H208      1.0  0.11460  0.61560  0.70380  1.0000 0.1112249519
H   H209      1.0  0.13150  0.02790  0.19990  1.0000 0.1300985868
H   H210      1.0  0.13150  0.47210  0.69990  1.0000 0.1300985868
H   H211      1.0  0.11600  0.18390  0.17640  1.0000 0.1208497672
H   H212      1.0  0.11600  0.31610  0.67640  1.0000 0.1208497672
H   H213      1.0  0.10000  0.21750  0.11230  1.0000 0.1300985868
H   H214      1.0  0.10000  0.28250  0.61230  1.0000 0.1300985868
H   H215      1.0  0.09960  0.09500  0.07180  1.0000 0.1300985868
H   H216      1.0  0.09960  0.40500  0.57180  1.0000 0.1300985868
H   H217      1.0  0.08060  0.97440  0.03730  1.0000 0.1006204431
H   H218      1.0  0.08060  0.52560  0.53730  1.0000 0.1006204431
H   H219      1.0  0.10880  0.66580  0.95640  1.0000 0.1208497672
H   H220      1.0  0.10880  0.83420  0.45640  1.0000 0.1208497672
H   H221      1.0  0.06990  0.93060  0.97740  1.0000 0.1112249519
H   H222      1.0  0.06990  0.56940  0.47740  1.0000 0.1112249519
H   H223      1.0  0.24740  0.51340  0.07830  1.0000 0.1208497672
H   H224      1.0  0.24740  0.98660  0.57830  1.0000 0.1208497672
H   H225      1.0  0.26240  0.60910  0.06400  1.0000 0.1300985868
H   H226      1.0  0.26240  0.89090  0.56400  1.0000 0.1300985868
H   H227      1.0  0.23350  0.61080  0.09210  1.0000 0.1394217711
H   H228      1.0  0.23350  0.88920  0.59210  1.0000 0.1394217711
H   H229      1.0  0.12200  0.46380  0.04790  1.0000 0.1300985868
H   H230      1.0  0.12200  0.03620  0.54790  1.0000 0.1300985868
H   H231      1.0  0.10600  0.56180  0.06020  1.0000 0.1475724764
H   H232      1.0  0.10600  0.93820  0.56020  1.0000 0.1475724764
H   H233      1.0  0.05760  0.52620  0.01260  1.0000 0.1300985868
H   H234      1.0  0.05760  0.97380  0.51260  1.0000 0.1300985868
H   H235      1.0  0.17300  0.45660  0.00700  1.0000 0.1300985868
H   H236      1.0  0.17300  0.04340  0.50700  1.0000 0.1300985868
H   H237      1.0  0.10730  0.51530  0.97040  1.0000 0.1300985868
H   H238      1.0  0.10730  0.98470  0.47040  1.0000 0.1300985868
H   H239      1.0  0.18550  0.54930  0.98960  1.0000 0.1208497672
H   H240      1.0  0.18550  0.95070  0.48960  1.0000 0.1208497672
H   H241      1.0  0.02700  0.34180  0.29720  1.0000 0.1208497672
H   H242      1.0  0.02700  0.15820  0.79720  1.0000 0.1208497672
H   H243      1.0  0.01820  0.17730  0.29620  1.0000 0.1300985868
H   H244      1.0  0.01820  0.32270  0.79620  1.0000 0.1300985868
H   H245      1.0  0.22100  0.16140  0.40160  1.0000 0.1394217711
H   H246      1.0  0.22100  0.33860  0.90160  1.0000 0.1394217711
H   H247      1.0  0.22990  0.32590  0.40260  1.0000 0.1208497672
H   H248      1.0  0.22990  0.17410  0.90260  1.0000 0.1208497672
H   H249      1.0  0.04400  0.03350  0.28350  1.0000 0.1394217711
H   H250      1.0  0.04400  0.46650  0.78350  1.0000 0.1394217711
H   H251      1.0  0.03050  0.86960  0.28120  1.0000 0.1208497672
H   H252      1.0  0.03050  0.63040  0.78120  1.0000 0.1208497672
H   H253      1.0  0.16270  0.85950  0.40970  1.0000 0.1208497672
H   H254      1.0  0.16270  0.64050  0.90970  1.0000 0.1208497672
H   H255      1.0  0.17620  0.02350  0.41200  1.0000 0.1394217711
H   H256      1.0  0.17620  0.47650  0.91200  1.0000 0.1394217711
C   C1        1.0  0.76360  0.11060  0.08680  1.0000 0.5840213944
C   C2        1.0  0.76360  0.38940  0.58680  1.0000 0.5840213944
C   C3        1.0  0.69312  0.14130  0.04762  1.0000 -0.0387237107
C   C4        1.0  0.69312  0.35870  0.54762  1.0000 -0.0387237107
C   C5        1.0  0.68270  0.23630  0.03540  1.0000 -0.1310010292
C   C6        1.0  0.68270  0.26370  0.53540  1.0000 -0.1310010292
C   C7        1.0  0.61710  0.26610  0.99930  1.0000 -0.050547199
C   C8        1.0  0.61710  0.23390  0.49930  1.0000 -0.050547199
C   C9        1.0  0.56180  0.20090  0.97540  1.0000 0.2517317819
C   C10       1.0  0.56180  0.29910  0.47540  1.0000 0.2517317819
C   C11       1.0  0.57230  0.10590  0.98770  1.0000 -0.0799357977
C   C12       1.0  0.57230  0.39410  0.48770  1.0000 -0.0799357977
C   C13       1.0  0.63800  0.07600  0.02380  1.0000 -0.152100085
C   C14       1.0  0.63800  0.42400  0.52380  1.0000 -0.152100085
C   C15       1.0  0.60560  0.37420  0.98580  1.0000 0.2995123231
C   C16       1.0  0.60560  0.12580  0.48580  1.0000 0.2995123231
C   C17       1.0  0.58740  0.38600  0.94170  1.0000 -0.45928842
C   C18       1.0  0.58740  0.11400  0.44170  1.0000 -0.45928842
C   C19       1.0  0.67580  0.43290  0.01630  1.0000 -0.469253206
C   C20       1.0  0.67580  0.06710  0.51630  1.0000 -0.469253206
C   C21       1.0  0.54770  0.41640  0.98860  1.0000 -0.4927486058
C   C22       1.0  0.54770  0.08360  0.48860  1.0000 -0.4927486058
C   C23       1.0  0.51920  0.03120  0.96470  1.0000 0.0891445589
C   C24       1.0  0.51920  0.46880  0.46470  1.0000 0.0891445589
C   C25       1.0  0.41070  0.96340  0.90640  1.0000 0.1394217711
C   C26       1.0  0.41070  0.53660  0.40640  1.0000 0.1394217711
C   C27       1.0  0.42730  0.86920  0.91970  1.0000 -0.1619411558
C   C28       1.0  0.42730  0.63080  0.41970  1.0000 -0.1619411558
C   C29       1.0  0.37700  0.79810  0.89600  1.0000 -0.0699278663
C   C30       1.0  0.37700  0.70190  0.39600  1.0000 -0.0699278663
C   C31       1.0  0.31020  0.82130  0.85910  1.0000 -0.0591573561
C   C32       1.0  0.31020  0.67870  0.35910  1.0000 -0.0591573561
C   C33       1.0  0.29370  0.91550  0.84590  1.0000 -0.152100085
C   C34       1.0  0.29370  0.58450  0.34590  1.0000 -0.152100085
C   C35       1.0  0.34390  0.98650  0.86950  1.0000 0.1394217711
C   C36       1.0  0.34390  0.51350  0.36950  1.0000 0.1394217711
C   C37       1.0  0.26700  0.11520  0.82910  1.0000 0.1112249519
C   C38       1.0  0.26700  0.38480  0.32910  1.0000 0.1112249519
C   C39       1.0  0.24780  0.21530  0.81660  1.0000 -0.0799357977
C   C40       1.0  0.24780  0.28470  0.31660  1.0000 -0.0799357977
C   C41       1.0  0.29396  0.29200  0.83706  1.0000 0.2517317819
C   C42       1.0  0.29396  0.20800  0.33706  1.0000 0.2517317819
C   C43       1.0  0.26870  0.38430  0.82380  1.0000 -0.050547199
C   C44       1.0  0.26870  0.11570  0.32380  1.0000 -0.050547199
C   C45       1.0  0.19740  0.39970  0.79000  1.0000 -0.152100085
C   C46       1.0  0.19740  0.10030  0.29000  1.0000 -0.152100085
C   C47       1.0  0.15129  0.32290  0.76959  1.0000 -0.050547199
C   C48       1.0  0.15129  0.17710  0.26959  1.0000 -0.050547199
C   C49       1.0  0.17658  0.23070  0.78288  1.0000 -0.1435123
C   C50       1.0  0.17658  0.26930  0.28288  1.0000 -0.1435123
C   C51       1.0  0.31790  0.47350  0.84690  1.0000 0.2832265716
C   C52       1.0  0.31790  0.02650  0.34690  1.0000 0.2832265716
C   C53       1.0  0.37860  0.47170  0.84320  1.0000 -0.4387750129
C   C54       1.0  0.37860  0.02830  0.34320  1.0000 -0.4387750129
C   C55       1.0  0.34500  0.47530  0.89330  1.0000 -0.469253206
C   C56       1.0  0.34500  0.02470  0.39330  1.0000 -0.469253206
C   C57       1.0  0.27810  0.56540  0.82710  1.0000 -0.4494261042
C   C58       1.0  0.27810  0.93460  0.32710  1.0000 -0.4494261042
C   C59       1.0  0.07510  0.34480  0.73280  1.0000 0.5417146136
C   C60       1.0  0.07510  0.15520  0.23280  1.0000 0.5417146136
C   C61       1.0  0.88690  0.11490  0.21690  1.0000 0.5686701138
C   C62       1.0  0.88690  0.38510  0.71690  1.0000 0.5686701138
C   C63       1.0  0.88141  0.13140  0.25351  1.0000 -0.0591573561
C   C64       1.0  0.88141  0.36860  0.75351  1.0000 -0.0591573561
C   C65       1.0  0.87748  0.22380  0.26488  1.0000 -0.1619411558
C   C66       1.0  0.87748  0.27620  0.76488  1.0000 -0.1619411558
C   C67       1.0  0.87280  0.23950  0.29880  1.0000 -0.0799357977
C   C68       1.0  0.87280  0.26050  0.79880  1.0000 -0.0799357977
C   C69       1.0  0.87188  0.16290  0.32128  1.0000 0.2600854312
C   C70       1.0  0.87188  0.33710  0.82128  1.0000 0.2600854312
C   C71       1.0  0.87580  0.07060  0.30990  1.0000 -0.050547199
C   C72       1.0  0.87580  0.42940  0.80990  1.0000 -0.050547199
C   C73       1.0  0.88060  0.05480  0.27600  1.0000 -0.1435123
C   C74       1.0  0.88060  0.44520  0.77600  1.0000 -0.1435123
C   C75       1.0  0.88250  0.98270  0.33730  1.0000 0.2995123231
C   C76       1.0  0.88250  0.51730  0.83730  1.0000 0.2995123231
C   C77       1.0  0.81280  0.97840  0.33490  1.0000 -0.45928842
C   C78       1.0  0.81280  0.52160  0.83490  1.0000 -0.45928842
C   C79       1.0  0.94820  0.99360  0.38350  1.0000 -0.4826168704
C   C80       1.0  0.94820  0.50640  0.88350  1.0000 -0.4826168704
C   C81       1.0  0.88790  0.88850  0.31870  1.0000 -0.469253206
C   C82       1.0  0.88790  0.61150  0.81870  1.0000 -0.469253206
C   C83       1.0  0.87610  0.33990  0.31020  1.0000 0.1006204431
C   C84       1.0  0.87610  0.16010  0.81020  1.0000 0.1006204431
C   C85       1.0  0.87520  0.46790  0.35010  1.0000 0.1394217711
C   C86       1.0  0.87520  0.03210  0.85010  1.0000 0.1394217711
C   C87       1.0  0.87488  0.54130  0.32578  1.0000 -0.1310010292
C   C88       1.0  0.87488  0.95870  0.82578  1.0000 -0.1310010292
C   C89       1.0  0.88420  0.63480  0.33990  1.0000 -0.0387237107
C   C90       1.0  0.88420  0.86520  0.83990  1.0000 -0.0387237107
C   C91       1.0  0.89370  0.65490  0.37820  1.0000 -0.0699278663
C   C92       1.0  0.89370  0.84510  0.87820  1.0000 -0.0699278663
C   C93       1.0  0.89400  0.58150  0.40250  1.0000 -0.1726541228
C   C94       1.0  0.89400  0.91850  0.90250  1.0000 -0.1726541228
C   C95       1.0  0.88480  0.48800  0.38850  1.0000 0.1394217711
C   C96       1.0  0.88480  0.01200  0.88850  1.0000 0.1394217711
C   C97       1.0  0.90090  0.41610  0.44910  1.0000 0.1006204431
C   C98       1.0  0.90090  0.08390  0.94910  1.0000 0.1006204431
C   C99       1.0  0.89620  0.34070  0.47320  1.0000 -0.0799357977
C   C100      1.0  0.89620  0.15930  0.97320  1.0000 -0.0799357977
C   C101      1.0  0.87467  0.24760  0.45937  1.0000 0.2517317819
C   C102      1.0  0.87467  0.25240  0.95937  1.0000 0.2517317819
C   C103      1.0  0.87280  0.18210  0.48570  1.0000 -0.0591573561
C   C104      1.0  0.87280  0.31790  0.98570  1.0000 -0.0591573561
C   C105      1.0  0.89242  0.20970  0.52592  1.0000 -0.1310010292
C   C106      1.0  0.89242  0.29030  0.02592  1.0000 -0.1310010292
C   C107      1.0  0.91384  0.30280  0.53974  1.0000 -0.021807844
C   C108      1.0  0.91384  0.19720  0.03974  1.0000 -0.021807844
C   C109      1.0  0.91580  0.36830  0.51340  1.0000 -0.152100085
C   C110      1.0  0.91580  0.13170  0.01340  1.0000 -0.152100085
C   C111      1.0  0.84440  0.07820  0.47050  1.0000 0.2832265716
C   C112      1.0  0.84440  0.42180  0.97050  1.0000 0.2832265716
C   C113      1.0  0.76830  0.07780  0.43030  1.0000 -0.4494261042
C   C114      1.0  0.76830  0.42220  0.93030  1.0000 -0.4494261042
C   C115      1.0  0.89450  0.02770  0.46160  1.0000 -0.469253206
C   C116      1.0  0.89450  0.47230  0.96160  1.0000 -0.469253206
C   C117      1.0  0.84470  0.01940  0.50400  1.0000 -0.469253206
C   C118      1.0  0.84470  0.48060  0.00400  1.0000 -0.469253206
C   C119      1.0  0.93110  0.33280  0.58240  1.0000 0.545027559
C   C120      1.0  0.93110  0.16720  0.08240  1.0000 0.545027559
C   C121      1.0  0.93411  0.80560  0.18191  1.0000 0.0769704229
C   C122      1.0  0.93411  0.69440  0.68191  1.0000 0.0769704229
C   C123      1.0  0.93940  0.70710  0.18250  1.0000 -0.1619411558
C   C124      1.0  0.93940  0.79290  0.68250  1.0000 -0.1619411558
C   C125      1.0  0.88130  0.65300  0.15120  1.0000 0.1112249519
C   C126      1.0  0.88130  0.84700  0.65120  1.0000 0.1112249519
C   C127      1.0  0.81784  0.69750  0.11934  1.0000 -0.1769806693
C   C128      1.0  0.81784  0.80250  0.61934  1.0000 -0.1769806693
C   C129      1.0  0.81255  0.79610  0.11875  1.0000 0.0769704229
C   C130      1.0  0.81255  0.70390  0.61875  1.0000 0.0769704229
C   C131      1.0  0.88849  0.54470  0.15199  1.0000 0.1006204431
C   C132      1.0  0.88849  0.95530  0.65199  1.0000 0.1006204431
C   C133      1.0  0.93216  0.49860  0.19116  1.0000 -0.1726541228
C   C134      1.0  0.93216  0.00140  0.69116  1.0000 -0.1726541228
C   C135      1.0  0.94024  0.40040  0.19254  1.0000 0.0891445589
C   C136      1.0  0.94024  0.09960  0.69254  1.0000 0.0891445589
C   C137      1.0  0.86106  0.39440  0.11556  1.0000 0.0891445589
C   C138      1.0  0.86106  0.10560  0.61556  1.0000 0.0891445589
C   C139      1.0  0.85298  0.49260  0.11418  1.0000 -0.1915486108
C   C140      1.0  0.85298  0.00740  0.61418  1.0000 -0.1915486108
C   C141      1.0  0.23640  0.61060  0.41320  1.0000 0.5840213944
C   C142      1.0  0.23640  0.88940  0.91320  1.0000 0.5840213944
C   C143      1.0  0.30688  0.64130  0.45238  1.0000 -0.0387237107
C   C144      1.0  0.30688  0.85870  0.95238  1.0000 -0.0387237107
C   C145      1.0  0.31730  0.73630  0.46460  1.0000 -0.1310010292
C   C146      1.0  0.31730  0.76370  0.96460  1.0000 -0.1310010292
C   C147      1.0  0.38290  0.76610  0.50070  1.0000 -0.050547199
C   C148      1.0  0.38290  0.73390  0.00070  1.0000 -0.050547199
C   C149      1.0  0.43820  0.70090  0.52460  1.0000 0.2517317819
C   C150      1.0  0.43820  0.79910  0.02460  1.0000 0.2517317819
C   C151      1.0  0.42770  0.60590  0.51230  1.0000 -0.0799357977
C   C152      1.0  0.42770  0.89410  0.01230  1.0000 -0.0799357977
C   C153      1.0  0.36200  0.57600  0.47620  1.0000 -0.152100085
C   C154      1.0  0.36200  0.92400  0.97620  1.0000 -0.152100085
C   C155      1.0  0.39440  0.87420  0.51420  1.0000 0.2995123231
C   C156      1.0  0.39440  0.62580  0.01420  1.0000 0.2899411668
C   C157      1.0  0.41260  0.88600  0.55830  1.0000 -0.45928842
C   C158      1.0  0.41260  0.61400  0.05830  1.0000 -0.45928842
C   C159      1.0  0.32420  0.93290  0.48370  1.0000 -0.469253206
C   C160      1.0  0.32420  0.56710  0.98370  1.0000 -0.469253206
C   C161      1.0  0.45230  0.91640  0.51140  1.0000 -0.4927486058
C   C162      1.0  0.45230  0.58360  0.01140  1.0000 -0.4927486058
C   C163      1.0  0.48080  0.53120  0.53530  1.0000 0.0891445589
C   C164      1.0  0.48080  0.96880  0.03530  1.0000 0.0891445589
C   C165      1.0  0.58930  0.46340  0.59360  1.0000 0.1394217711
C   C166      1.0  0.58930  0.03660  0.09360  1.0000 0.1394217711
C   C167      1.0  0.57270  0.36920  0.58030  1.0000 -0.1619411558
C   C168      1.0  0.57270  0.13080  0.08030  1.0000 -0.1619411558
C   C169      1.0  0.62300  0.29810  0.60400  1.0000 -0.0699278663
C   C170      1.0  0.62300  0.20190  0.10400  1.0000 -0.0699278663
C   C171      1.0  0.68980  0.32130  0.64090  1.0000 -0.0591573561
C   C172      1.0  0.68980  0.17870  0.14090  1.0000 -0.0591573561
C   C173      1.0  0.70630  0.41550  0.65410  1.0000 -0.152100085
C   C174      1.0  0.70630  0.08450  0.15410  1.0000 -0.152100085
C   C175      1.0  0.65610  0.48650  0.63050  1.0000 0.1394217711
C   C176      1.0  0.65610  0.01350  0.13050  1.0000 0.1394217711
C   C177      1.0  0.73300  0.61520  0.67090  1.0000 0.1112249519
C   C178      1.0  0.73300  0.88480  0.17090  1.0000 0.1112249519
C   C179      1.0  0.75220  0.71530  0.68340  1.0000 -0.0799357977
C   C180      1.0  0.75220  0.78470  0.18340  1.0000 -0.0799357977
C   C181      1.0  0.70604  0.79200  0.66294  1.0000 0.2517317819
C   C182      1.0  0.70604  0.70800  0.16294  1.0000 0.2517317819
C   C183      1.0  0.73130  0.88430  0.67620  1.0000 -0.050547199
C   C184      1.0  0.73130  0.61570  0.17620  1.0000 -0.050547199
C   C185      1.0  0.80260  0.89970  0.71000  1.0000 -0.152100085
C   C186      1.0  0.80260  0.60030  0.21000  1.0000 -0.152100085
C   C187      1.0  0.84871  0.82290  0.73041  1.0000 -0.050547199
C   C188      1.0  0.84871  0.67710  0.23041  1.0000 -0.050547199
C   C189      1.0  0.82342  0.73070  0.71712  1.0000 -0.1435123
C   C190      1.0  0.82342  0.76930  0.21712  1.0000 -0.1435123
C   C191      1.0  0.68210  0.97350  0.65310  1.0000 0.2832265716
C   C192      1.0  0.68210  0.52650  0.15310  1.0000 0.2832265716
C   C193      1.0  0.62140  0.97170  0.65680  1.0000 -0.4387750129
C   C194      1.0  0.62140  0.52830  0.15680  1.0000 -0.4387750129
C   C195      1.0  0.65500  0.97530  0.60670  1.0000 -0.469253206
C   C196      1.0  0.65500  0.52470  0.10670  1.0000 -0.469253206
C   C197      1.0  0.72190  0.06540  0.67290  1.0000 -0.4494261042
C   C198      1.0  0.72190  0.43460  0.17290  1.0000 -0.4494261042
C   C199      1.0  0.92490  0.84480  0.76720  1.0000 0.5417146136
C   C200      1.0  0.92490  0.65520  0.26720  1.0000 0.5417146136
C   C201      1.0  0.11310  0.61490  0.28310  1.0000 0.5686701138
C   C202      1.0  0.11310  0.88510  0.78310  1.0000 0.5686701138
C   C203      1.0  0.11859  0.63140  0.24649  1.0000 -0.0591573561
C   C204      1.0  0.11859  0.86860  0.74649  1.0000 -0.0591573561
C   C205      1.0  0.12252  0.72380  0.23512  1.0000 -0.1619411558
C   C206      1.0  0.12252  0.77620  0.73512  1.0000 -0.1619411558
C   C207      1.0  0.12720  0.73950  0.20120  1.0000 -0.0799357977
C   C208      1.0  0.12720  0.76050  0.70120  1.0000 -0.0799357977
C   C209      1.0  0.12812  0.66290  0.17872  1.0000 0.2600854312
C   C210      1.0  0.12812  0.83710  0.67872  1.0000 0.2600854312
C   C211      1.0  0.12420  0.57060  0.19010  1.0000 -0.050547199
C   C212      1.0  0.12420  0.92940  0.69010  1.0000 -0.050547199
C   C213      1.0  0.11940  0.55480  0.22400  1.0000 -0.1435123
C   C214      1.0  0.11940  0.94520  0.72400  1.0000 -0.1435123
C   C215      1.0  0.11750  0.48270  0.16270  1.0000 0.2995123231
C   C216      1.0  0.11750  0.01730  0.66270  1.0000 0.2995123231
C   C217      1.0  0.18720  0.47840  0.16510  1.0000 -0.45928842
C   C218      1.0  0.18720  0.02160  0.66510  1.0000 -0.45928842
C   C219      1.0  0.05180  0.49360  0.11650  1.0000 -0.4826168704
C   C220      1.0  0.05180  0.00640  0.61650  1.0000 -0.4826168704
C   C221      1.0  0.11210  0.38850  0.18130  1.0000 -0.469253206
C   C222      1.0  0.11210  0.11150  0.68130  1.0000 -0.469253206
C   C223      1.0  0.12390  0.83990  0.18980  1.0000 0.1006204431
C   C224      1.0  0.12390  0.66010  0.68980  1.0000 0.1006204431
C   C225      1.0  0.12480  0.96790  0.14990  1.0000 0.1394217711
C   C226      1.0  0.12480  0.53210  0.64990  1.0000 0.1394217711
C   C227      1.0  0.12512  0.04130  0.17422  1.0000 -0.1310010292
C   C228      1.0  0.12512  0.45870  0.67422  1.0000 -0.1310010292
C   C229      1.0  0.11580  0.13480  0.16010  1.0000 -0.0387237107
C   C230      1.0  0.11580  0.36520  0.66010  1.0000 -0.0387237107
C   C231      1.0  0.10630  0.15490  0.12180  1.0000 -0.0699278663
C   C232      1.0  0.10630  0.34510  0.62180  1.0000 -0.0699278663
C   C233      1.0  0.10600  0.08150  0.09750  1.0000 -0.1726541228
C   C234      1.0  0.10600  0.41850  0.59750  1.0000 -0.1726541228
C   C235      1.0  0.11520  0.98800  0.11150  1.0000 0.1394217711
C   C236      1.0  0.11520  0.51200  0.61150  1.0000 0.1394217711
C   C237      1.0  0.09910  0.91610  0.05090  1.0000 0.1006204431
C   C238      1.0  0.09910  0.58390  0.55090  1.0000 0.1006204431
C   C239      1.0  0.10380  0.84070  0.02680  1.0000 -0.0799357977
C   C240      1.0  0.10380  0.65930  0.52680  1.0000 -0.0799357977
C   C241      1.0  0.12533  0.74760  0.04063  1.0000 0.2517317819
C   C242      1.0  0.12533  0.75240  0.54063  1.0000 0.2517317819
C   C243      1.0  0.12720  0.68210  0.01430  1.0000 -0.0591573561
C   C244      1.0  0.12720  0.81790  0.51430  1.0000 -0.0591573561
C   C245      1.0  0.10758  0.70970  0.97408  1.0000 -0.1310010292
C   C246      1.0  0.10758  0.79030  0.47408  1.0000 -0.1310010292
C   C247      1.0  0.08616  0.80280  0.96026  1.0000 -0.021807844
C   C248      1.0  0.08616  0.69720  0.46026  1.0000 -0.021807844
C   C249      1.0  0.08420  0.86830  0.98660  1.0000 -0.152100085
C   C250      1.0  0.08420  0.63170  0.48660  1.0000 -0.152100085
C   C251      1.0  0.15560  0.57820  0.02950  1.0000 0.2899411668
C   C252      1.0  0.15560  0.92180  0.52950  1.0000 0.2832265716
C   C253      1.0  0.23170  0.57780  0.06970  1.0000 -0.4494261042
C   C254      1.0  0.23170  0.92220  0.56970  1.0000 -0.45928842
C   C255      1.0  0.10550  0.52770  0.03840  1.0000 -0.469253206
C   C256      1.0  0.10550  0.97230  0.53840  1.0000 -0.469253206
C   C257      1.0  0.15530  0.51940  0.99600  1.0000 -0.469253206
C   C258      1.0  0.15530  0.98060  0.49600  1.0000 -0.469253206
C   C259      1.0  0.06890  0.83280  0.91760  1.0000 0.545027559
C   C260      1.0  0.06890  0.66720  0.41760  1.0000 0.545027559
C   C261      1.0  0.06589  0.30560  0.31809  1.0000 0.0769704229
C   C262      1.0  0.06589  0.19440  0.81809  1.0000 0.0769704229
C   C263      1.0  0.06060  0.20710  0.31750  1.0000 -0.1619411558
C   C264      1.0  0.06060  0.29290  0.81750  1.0000 -0.1619411558
C   C265      1.0  0.11870  0.15300  0.34880  1.0000 0.1112249519
C   C266      1.0  0.11870  0.34700  0.84880  1.0000 0.1112249519
C   C267      1.0  0.18216  0.19750  0.38066  1.0000 -0.1769806693
C   C268      1.0  0.18216  0.30250  0.88066  1.0000 -0.1769806693
C   C269      1.0  0.18745  0.29610  0.38125  1.0000 0.0769704229
C   C270      1.0  0.18745  0.20390  0.88125  1.0000 0.0769704229
C   C271      1.0  0.11151  0.04470  0.34801  1.0000 0.1006204431
C   C272      1.0  0.11151  0.45530  0.84801  1.0000 0.1006204431
C   C273      1.0  0.06784  0.99860  0.30884  1.0000 -0.1726541228
C   C274      1.0  0.06784  0.50140  0.80884  1.0000 -0.1726541228
C   C275      1.0  0.05976  0.90040  0.30746  1.0000 0.0891445589
C   C276      1.0  0.05976  0.59960  0.80746  1.0000 0.0891445589
C   C277      1.0  0.13894  0.89440  0.38444  1.0000 0.0891445589
C   C278      1.0  0.13894  0.60560  0.88444  1.0000 0.0891445589
C   C279      1.0  0.14702  0.99260  0.38582  1.0000 -0.1915486108
C   C280      1.0  0.14702  0.50740  0.88582  1.0000 -0.1915486108
N   N1        1.0  0.87063  0.85020  0.15003  1.0000 -0.277561733
N   N2        1.0  0.87063  0.64980  0.65003  1.0000 -0.277561733
N   N3        1.0  0.45780  0.03990  0.92790  1.0000 -0.2887632116
N   N4        1.0  0.45780  0.46010  0.42790  1.0000 -0.2887632116
N   N5        1.0  0.90464  0.34830  0.15474  1.0000 -0.2585128422
N   N6        1.0  0.90464  0.15170  0.65474  1.0000 -0.2585128422
N   N7        1.0  0.33050  0.08380  0.85800  1.0000 -0.277561733
N   N8        1.0  0.33050  0.41620  0.35800  1.0000 -0.277561733
N   N9        1.0  0.86680  0.37130  0.33850  1.0000 -0.277561733
N   N10       1.0  0.86680  0.12870  0.83850  1.0000 -0.277561733
N   N11       1.0  0.88130  0.40820  0.41010  1.0000 -0.277561733
N   N12       1.0  0.88130  0.09180  0.91010  1.0000 -0.2887632116
N   N13       1.0  0.12937  0.35020  0.34997  1.0000 -0.277561733
N   N14       1.0  0.12937  0.14980  0.84997  1.0000 -0.277561733
N   N15       1.0  0.54220  0.53990  0.57210  1.0000 -0.2887632116
N   N16       1.0  0.54220  0.96010  0.07210  1.0000 -0.2887632116
N   N17       1.0  0.09536  0.84830  0.34526  1.0000 -0.2585128422
N   N18       1.0  0.09536  0.65170  0.84526  1.0000 -0.2585128422
N   N19       1.0  0.66950  0.58380  0.64200  1.0000 -0.277561733
N   N20       1.0  0.66950  0.91620  0.14200  1.0000 -0.277561733
N   N21       1.0  0.13320  0.87130  0.16150  1.0000 -0.277561733
N   N22       1.0  0.13320  0.62870  0.66150  1.0000 -0.277561733
N   N23       1.0  0.11870  0.90820  0.08990  1.0000 -0.2887632116
N   N24       1.0  0.11870  0.59180  0.58990  1.0000 -0.2887632116
O   O1        1.0  0.77330  0.02350  0.09820  1.0000 -0.5497829716
O   O2        1.0  0.77330  0.47650  0.59820  1.0000 -0.5497829716
O   O3        1.0  0.81180  0.17550  0.10720  1.0000 -0.5609662484
O   O4        1.0  0.81180  0.32450  0.60720  1.0000 -0.5609662484
O   O5        1.0  0.49780  0.23270  0.94240  1.0000 -0.5409555556
O   O6        1.0  0.49780  0.26730  0.44240  1.0000 -0.5409555556
O   O7        1.0  0.36260  0.28000  0.86840  1.0000 -0.4999961357
O   O8        1.0  0.36260  0.22000  0.36840  1.0000 -0.4999961357
O   O9        1.0  0.05780  0.43170  0.72680  1.0000 -0.5076693843
O   O10       1.0  0.05780  0.06830  0.22680  1.0000 -0.5076693843
O   O11       1.0  0.03250  0.27780  0.70980  1.0000 -0.5409555556
O   O12       1.0  0.03250  0.22220  0.20980  1.0000 -0.5409555556
O   O13       1.0  0.87810  0.02700  0.20410  1.0000 -0.5609662484
O   O14       1.0  0.87810  0.47300  0.70410  1.0000 -0.5609662484
O   O15       1.0  0.90070  0.18250  0.20190  1.0000 -0.530462725
O   O16       1.0  0.90070  0.31750  0.70190  1.0000 -0.530462725
O   O17       1.0  0.86440  0.17510  0.35260  1.0000 -0.4999961357
O   O18       1.0  0.86440  0.32490  0.85260  1.0000 -0.4999961357
O   O19       1.0  0.85480  0.21890  0.42160  1.0000 -0.4826168704
O   O20       1.0  0.85480  0.28110  0.92160  1.0000 -0.4826168704
O   O21       1.0  0.93510  0.27320  0.60720  1.0000 -0.5163847904
O   O22       1.0  0.93510  0.22680  0.10720  1.0000 -0.5163847904
O   O23       1.0  0.93820  0.42310  0.58970  1.0000 -0.469253206
O   O24       1.0  0.93820  0.07690  0.08970  1.0000 -0.469253206
O   O25       1.0  0.94340  0.05410  0.15380  1.0000 -0.4494261042
O   O26       1.0  0.94340  0.44590  0.65380  1.0000 -0.4494261042
O   O27       1.0  0.22670  0.52350  0.40180  1.0000 -0.5497829716
O   O28       1.0  0.22670  0.97650  0.90180  1.0000 -0.5497829716
O   O29       1.0  0.18820  0.67550  0.39280  1.0000 -0.5609662484
O   O30       1.0  0.18820  0.82450  0.89280  1.0000 -0.5609662484
O   O31       1.0  0.50220  0.73270  0.55760  1.0000 -0.5409555556
O   O32       1.0  0.50220  0.76730  0.05760  1.0000 -0.530462725
O   O33       1.0  0.63740  0.78000  0.63160  1.0000 -0.4999961357
O   O34       1.0  0.63740  0.72000  0.13160  1.0000 -0.4999961357
O   O35       1.0  0.94220  0.93170  0.77320  1.0000 -0.5076693843
O   O36       1.0  0.94220  0.56830  0.27320  1.0000 -0.5076693843
O   O37       1.0  0.96750  0.77780  0.79020  1.0000 -0.5409555556
O   O38       1.0  0.96750  0.72220  0.29020  1.0000 -0.5409555556
O   O39       1.0  0.12190  0.52700  0.29590  1.0000 -0.5609662484
O   O40       1.0  0.12190  0.97300  0.79590  1.0000 -0.5609662484
O   O41       1.0  0.09930  0.68250  0.29810  1.0000 -0.530462725
O   O42       1.0  0.09930  0.81750  0.79810  1.0000 -0.530462725
O   O43       1.0  0.13560  0.67510  0.14740  1.0000 -0.4999961357
O   O44       1.0  0.13560  0.82490  0.64740  1.0000 -0.4999961357
O   O45       1.0  0.14520  0.71890  0.07840  1.0000 -0.4826168704
O   O46       1.0  0.14520  0.78110  0.57840  1.0000 -0.4826168704
O   O47       1.0  0.06490  0.77320  0.89280  1.0000 -0.5163847904
O   O48       1.0  0.06490  0.72680  0.39280  1.0000 -0.5163847904
O   O49       1.0  0.06180  0.92310  0.91030  1.0000 -0.469253206
O   O50       1.0  0.06180  0.57690  0.41030  1.0000 -0.469253206
O   O51       1.0  0.05660  0.55410  0.34620  1.0000 -0.4494261042
O   O52       1.0  0.05660  0.94590  0.84620  1.0000 -0.4494261042
