# DDEC6 charges by PACMAN v1.1 (https://github.com/mtap-research/PACMAN-charge/)
data_2012[Mg][nan]3[ASR]3
_chemical_formula_sum              "Mg2 P8 H48 C24 N4 O24"
_cell_length_a       15.3915
_cell_length_b       15.3915
_cell_length_c       9.703
_cell_angle_alpha    95.222
_cell_angle_beta     95.222
_cell_angle_gamma    32.5133

_symmetry_space_group_name_H-M    "P 1"
_symmetry_Int_Tables_number       1

loop_
  _symmetry_equiv_pos_as_xyz
  'x, y, z'

loop_
  _atom_site_type_symbol
  _atom_site_label
  _atom_site_symmetry_multiplicity
  _atom_site_fract_x
  _atom_site_fract_y
  _atom_site_fract_z
  _atom_site_occupancy
  _atom_site_charge
Mg  Mg1       1.0  0.00000  0.50000  0.00000  1.0000 1.5273588815
Mg  Mg2       1.0  0.50000  0.00000  0.50000  1.0000 1.5273588815
P   P1        1.0  0.27638  0.42458  0.93890  1.0000 1.2512589016
P   P2        1.0  0.80074  0.77274  0.75990  1.0000 1.2877718726
P   P3        1.0  0.57542  0.72362  0.56110  1.0000 1.2512589016
P   P4        1.0  0.22726  0.19926  0.74010  1.0000 1.2877718726
P   P5        1.0  0.72362  0.57542  0.06110  1.0000 1.2512589016
P   P6        1.0  0.19926  0.22726  0.24010  1.0000 1.2877718726
P   P7        1.0  0.42458  0.27638  0.43890  1.0000 1.2512589016
P   P8        1.0  0.77274  0.80074  0.25990  1.0000 1.2877718726
H   H1        1.0  0.94499  0.30316  0.78067  1.0000 0.1078254518
H   H2        1.0  0.75151  0.46404  0.67951  1.0000 0.1006014782
H   H3        1.0  0.09406  0.14978  0.55736  1.0000 0.1006014782
H   H4        1.0  0.89689  0.30478  0.46193  1.0000 0.1078254518
H   H5        1.0  0.82037  0.25270  0.60631  1.0000 0.0900691729
H   H6        1.0  0.02196  0.08771  0.69048  1.0000 0.0900691729
H   H7        1.0  0.15308  0.92697  0.48781  1.0000 0.1006014782
H   H8        1.0  0.96490  0.08535  0.38233  1.0000 0.0900691729
H   H9        1.0  0.10257  0.24290  0.52432  1.0000 0.1202999943
H   H10       1.0  0.05913  0.39730  0.55844  1.0000 0.129125112
H   H11       1.0  0.17253  0.51715  0.55517  1.0000 0.139944251
H   H12       1.0  0.18499  0.39272  0.47943  1.0000 0.129125112
H   H13       1.0  0.69684  0.05501  0.71933  1.0000 0.1078254518
H   H14       1.0  0.53596  0.24849  0.82049  1.0000 0.1006014782
H   H15       1.0  0.85022  0.90594  0.94264  1.0000 0.1006014782
H   H16       1.0  0.69522  0.10311  0.03807  1.0000 0.1078254518
H   H17       1.0  0.74730  0.17963  0.89369  1.0000 0.0900691729
H   H18       1.0  0.91229  0.97804  0.80952  1.0000 0.0900691729
H   H19       1.0  0.07303  0.84692  0.01219  1.0000 0.1006014782
H   H20       1.0  0.91465  0.03510  0.11767  1.0000 0.0900691729
H   H21       1.0  0.75710  0.89743  0.97568  1.0000 0.1202999943
H   H22       1.0  0.60270  0.94087  0.94156  1.0000 0.129125112
H   H23       1.0  0.48285  0.82747  0.94483  1.0000 0.139944251
H   H24       1.0  0.60728  0.81501  0.02057  1.0000 0.129125112
H   H25       1.0  0.05501  0.69684  0.21933  1.0000 0.1078254518
H   H26       1.0  0.24849  0.53596  0.32049  1.0000 0.1006014782
H   H27       1.0  0.90594  0.85022  0.44264  1.0000 0.1006014782
H   H28       1.0  0.10311  0.69522  0.53807  1.0000 0.1078254518
H   H29       1.0  0.17963  0.74730  0.39369  1.0000 0.0900691729
H   H30       1.0  0.97804  0.91229  0.30952  1.0000 0.0900691729
H   H31       1.0  0.84692  0.07303  0.51219  1.0000 0.1006014782
H   H32       1.0  0.03510  0.91465  0.61767  1.0000 0.0900691729
H   H33       1.0  0.89743  0.75710  0.47568  1.0000 0.1202999943
H   H34       1.0  0.94087  0.60270  0.44156  1.0000 0.129125112
H   H35       1.0  0.82747  0.48285  0.44483  1.0000 0.139944251
H   H36       1.0  0.81501  0.60728  0.52057  1.0000 0.129125112
H   H37       1.0  0.30316  0.94499  0.28067  1.0000 0.1078254518
H   H38       1.0  0.46404  0.75151  0.17951  1.0000 0.1006014782
H   H39       1.0  0.14978  0.09406  0.05736  1.0000 0.1006014782
H   H40       1.0  0.30478  0.89689  0.96193  1.0000 0.1078254518
H   H41       1.0  0.25270  0.82037  0.10631  1.0000 0.0900691729
H   H42       1.0  0.08771  0.02196  0.19048  1.0000 0.0900691729
H   H43       1.0  0.92697  0.15308  0.98781  1.0000 0.1006014782
H   H44       1.0  0.08535  0.96490  0.88233  1.0000 0.0900691729
H   H45       1.0  0.24290  0.10257  0.02432  1.0000 0.1202999943
H   H46       1.0  0.39730  0.05913  0.05844  1.0000 0.129125112
H   H47       1.0  0.51715  0.17253  0.05517  1.0000 0.139944251
H   H48       1.0  0.39272  0.18499  0.97943  1.0000 0.129125112
C   C1        1.0  0.44250  0.20970  0.95970  1.0000 -0.3277175805
C   C2        1.0  0.67520  0.93120  0.89230  1.0000 -0.3240621469
C   C3        1.0  0.63486  0.11366  0.82330  1.0000 -0.0610176852
C   C4        1.0  0.75770  0.03830  0.93480  1.0000 -0.1002019639
C   C5        1.0  0.84319  0.04719  0.90970  1.0000 -0.0760404846
C   C6        1.0  0.96659  0.98359  0.00960  1.0000 -0.0947639278
C   C7        1.0  0.79030  0.55750  0.54030  1.0000 -0.3277175805
C   C8        1.0  0.06880  0.32480  0.60770  1.0000 -0.3240621469
C   C9        1.0  0.88634  0.36514  0.67670  1.0000 -0.0610176852
C   C10       1.0  0.96170  0.24230  0.56520  1.0000 -0.1002019639
C   C11       1.0  0.95281  0.15681  0.59030  1.0000 -0.0760404846
C   C12       1.0  0.01641  0.03341  0.49040  1.0000 -0.1002019639
C   C13       1.0  0.55750  0.79030  0.04030  1.0000 -0.3277175805
C   C14       1.0  0.32480  0.06880  0.10770  1.0000 -0.3240621469
C   C15       1.0  0.36514  0.88634  0.17670  1.0000 -0.0610176852
C   C16       1.0  0.24230  0.96170  0.06520  1.0000 -0.1002019639
C   C17       1.0  0.15681  0.95281  0.09030  1.0000 -0.0747529051
C   C18       1.0  0.03341  0.01641  0.99040  1.0000 -0.1002019639
C   C19       1.0  0.20970  0.44250  0.45970  1.0000 -0.3277175805
C   C20       1.0  0.93120  0.67520  0.39230  1.0000 -0.3240621469
C   C21       1.0  0.11366  0.63486  0.32330  1.0000 -0.0610176852
C   C22       1.0  0.03830  0.75770  0.43480  1.0000 -0.1002019639
C   C23       1.0  0.04719  0.84319  0.40970  1.0000 -0.0747529051
C   C24       1.0  0.98359  0.96659  0.50960  1.0000 -0.1002019639
N   N1        1.0  0.55525  0.09625  0.84370  1.0000 0.249924186
N   N2        1.0  0.90375  0.44475  0.65630  1.0000 0.249924186
N   N3        1.0  0.44475  0.90375  0.15630  1.0000 0.249924186
N   N4        1.0  0.09625  0.55525  0.34370  1.0000 0.249924186
O   O1        1.0  0.14052  0.49872  0.01690  1.0000 -0.6887457451
O   O2        1.0  0.33266  0.46766  0.00490  1.0000 -0.6206206312
O   O3        1.0  0.23700  0.46700  0.78910  1.0000 -0.5296352139
O   O4        1.0  0.69720  0.83960  0.63240  1.0000 -0.7455216727
O   O5        1.0  0.87236  0.62996  0.81360  1.0000 -0.6982254764
O   O6        1.0  0.92273  0.73573  0.71950  1.0000 -0.5888044617
O   O7        1.0  0.50128  0.85948  0.48310  1.0000 -0.6887457451
O   O8        1.0  0.53234  0.66734  0.49510  1.0000 -0.6206206312
O   O9        1.0  0.53300  0.76300  0.71090  1.0000 -0.5296352139
O   O10       1.0  0.16040  0.30280  0.86760  1.0000 -0.7455216727
O   O11       1.0  0.37004  0.12764  0.68640  1.0000 -0.6982254764
O   O12       1.0  0.26427  0.07727  0.78050  1.0000 -0.5888044617
O   O13       1.0  0.85948  0.50128  0.98310  1.0000 -0.6887457451
O   O14       1.0  0.66734  0.53234  0.99510  1.0000 -0.6206206312
O   O15       1.0  0.76300  0.53300  0.21090  1.0000 -0.5296352139
O   O16       1.0  0.30280  0.16040  0.36760  1.0000 -0.7455216727
O   O17       1.0  0.12764  0.37004  0.18640  1.0000 -0.6982254764
O   O18       1.0  0.07727  0.26427  0.28050  1.0000 -0.5888044617
O   O19       1.0  0.49872  0.14052  0.51690  1.0000 -0.6887457451
O   O20       1.0  0.46766  0.33266  0.50490  1.0000 -0.6206206312
O   O21       1.0  0.46700  0.23700  0.28910  1.0000 -0.5296352139
O   O22       1.0  0.83960  0.69720  0.13240  1.0000 -0.7455216727
O   O23       1.0  0.62996  0.87236  0.31360  1.0000 -0.6982254764
O   O24       1.0  0.73573  0.92273  0.21950  1.0000 -0.5888044617
