# DDEC6 charges by PACMAN v1.1 (https://github.com/mtap-research/PACMAN-charge/)
data_2012[Eu][pcu]3[ASR]1
_chemical_formula_sum              "Eu4 H32 C48 N12 O36"
_cell_length_a       10.2031
_cell_length_b       17.5346
_cell_length_c       11.4588
_cell_angle_alpha    90
_cell_angle_beta     109.874
_cell_angle_gamma    90

_symmetry_space_group_name_H-M    "P 1"
_symmetry_Int_Tables_number       1

loop_
  _symmetry_equiv_pos_as_xyz
  'x, y, z'

loop_
  _atom_site_type_symbol
  _atom_site_label
  _atom_site_symmetry_multiplicity
  _atom_site_fract_x
  _atom_site_fract_y
  _atom_site_fract_z
  _atom_site_occupancy
  _atom_site_charge
Eu  Eu1       1.0  0.49060  0.99272  0.31895  1.0000 2.034200605
Eu  Eu2       1.0  0.50940  0.49272  0.18105  1.0000 2.034200605
Eu  Eu3       1.0  0.50940  0.00728  0.68105  1.0000 2.034200605
Eu  Eu4       1.0  0.49060  0.50728  0.81895  1.0000 2.034200605
H   H1        1.0  0.40080  0.71490  0.36540  1.0000 0.151387489
H   H2        1.0  0.59920  0.21490  0.13460  1.0000 0.151387489
H   H3        1.0  0.59920  0.28510  0.63460  1.0000 0.151387489
H   H4        1.0  0.40080  0.78510  0.86540  1.0000 0.151387489
H   H5        1.0  0.44840  0.59860  0.46330  1.0000 0.138656022
H   H6        1.0  0.55160  0.09860  0.03670  1.0000 0.138656022
H   H7        1.0  0.55160  0.40140  0.53670  1.0000 0.138656022
H   H8        1.0  0.44840  0.90140  0.96330  1.0000 0.138656022
H   H9        1.0  0.64500  0.69790  0.78340  1.0000 0.138656022
H   H10       1.0  0.35500  0.19790  0.71660  1.0000 0.138656022
H   H11       1.0  0.35500  0.30210  0.21660  1.0000 0.138656022
H   H12       1.0  0.64500  0.80210  0.28340  1.0000 0.138656022
H   H13       1.0  0.58910  0.81660  0.69430  1.0000 0.151387489
H   H14       1.0  0.41090  0.31660  0.80570  1.0000 0.151387489
H   H15       1.0  0.41090  0.18340  0.30570  1.0000 0.151387489
H   H16       1.0  0.58910  0.68340  0.19430  1.0000 0.151387489
H   H17       1.0  0.01840  0.00860  0.21140  1.0000 0.151387489
H   H18       1.0  0.98160  0.50860  0.28860  1.0000 0.151387489
H   H19       1.0  0.98160  0.99140  0.78860  1.0000 0.151387489
H   H20       1.0  0.01840  0.49140  0.71140  1.0000 0.151387489
H   H21       1.0  0.78080  0.02620  0.15360  1.0000 0.1299296133
H   H22       1.0  0.21920  0.52620  0.34640  1.0000 0.1299296133
H   H23       1.0  0.21920  0.97380  0.84640  1.0000 0.1299296133
H   H24       1.0  0.78080  0.47380  0.65360  1.0000 0.1299296133
H   H25       1.0  0.82540  0.12550  0.47230  1.0000 0.138656022
H   H26       1.0  0.17460  0.62550  0.02770  1.0000 0.138656022
H   H27       1.0  0.17460  0.87450  0.52770  1.0000 0.138656022
H   H28       1.0  0.82540  0.37450  0.97230  1.0000 0.138656022
H   H29       1.0  0.06320  0.10700  0.53890  1.0000 0.138656022
H   H30       1.0  0.93680  0.60700  0.96110  1.0000 0.138656022
H   H31       1.0  0.93680  0.89300  0.46110  1.0000 0.138656022
H   H32       1.0  0.06320  0.39300  0.03890  1.0000 0.138656022
C   C1        1.0  0.46200  0.85600  0.45750  1.0000 0.6067203842
C   C2        1.0  0.53800  0.35600  0.04250  1.0000 0.6067203842
C   C3        1.0  0.53800  0.14400  0.54250  1.0000 0.6067203842
C   C4        1.0  0.46200  0.64400  0.95750  1.0000 0.6067203842
C   C5        1.0  0.49140  0.77890  0.52000  1.0000 0.0088951755
C   C6        1.0  0.50860  0.27890  0.98000  1.0000 0.0088951755
C   C7        1.0  0.50860  0.22110  0.48000  1.0000 0.0088951755
C   C8        1.0  0.49140  0.72110  0.02000  1.0000 0.0088951755
C   C9        1.0  0.44910  0.71220  0.45020  1.0000 -0.1246408784
C   C10       1.0  0.55090  0.21220  0.04980  1.0000 -0.1246408784
C   C11       1.0  0.55090  0.28780  0.54980  1.0000 -0.1246408784
C   C12       1.0  0.44910  0.78780  0.95020  1.0000 -0.1246408784
C   C13       1.0  0.47960  0.64300  0.50860  1.0000 -0.0233390034
C   C14       1.0  0.52040  0.14300  0.99140  1.0000 -0.0233390034
C   C15       1.0  0.52040  0.35700  0.49140  1.0000 -0.0233390034
C   C16       1.0  0.47960  0.85700  0.00860  1.0000 -0.0233390034
C   C17       1.0  0.59470  0.70190  0.69910  1.0000 -0.0298310118
C   C18       1.0  0.40530  0.20190  0.80090  1.0000 -0.0298310118
C   C19       1.0  0.40530  0.29810  0.30090  1.0000 -0.0298310118
C   C20       1.0  0.59470  0.79810  0.19910  1.0000 -0.0298310118
C   C21       1.0  0.56280  0.77290  0.64590  1.0000 -0.1268243923
C   C22       1.0  0.43720  0.27290  0.85410  1.0000 -0.1268243923
C   C23       1.0  0.43720  0.22710  0.35410  1.0000 -0.1268243923
C   C24       1.0  0.56280  0.72710  0.14590  1.0000 -0.1268243923
C   C25       1.0  0.22290  0.03820  0.42660  1.0000 0.6311783753
C   C26       1.0  0.77710  0.53820  0.07340  1.0000 0.6311783753
C   C27       1.0  0.77710  0.96180  0.57340  1.0000 0.6311783753
C   C28       1.0  0.22290  0.46180  0.92660  1.0000 0.6311783753
C   C29       1.0  0.06970  0.05450  0.38310  1.0000 -0.0088220956
C   C30       1.0  0.93030  0.55450  0.11690  1.0000 -0.0088220956
C   C31       1.0  0.93030  0.94550  0.61690  1.0000 -0.0088220956
C   C32       1.0  0.06970  0.44550  0.88310  1.0000 -0.0088220956
C   C33       1.0  0.98110  0.03140  0.26640  1.0000 -0.1268243923
C   C34       1.0  0.01890  0.53140  0.23360  1.0000 -0.1268243923
C   C35       1.0  0.01890  0.96860  0.73360  1.0000 -0.1246408784
C   C36       1.0  0.98110  0.46860  0.76640  1.0000 -0.1268243923
C   C37       1.0  0.83900  0.04180  0.23160  1.0000 -0.0233390034
C   C38       1.0  0.16100  0.54180  0.26840  1.0000 -0.0233390034
C   C39       1.0  0.16100  0.95820  0.76840  1.0000 -0.0233390034
C   C40       1.0  0.83900  0.45820  0.73160  1.0000 -0.0233390034
C   C41       1.0  0.86570  0.10040  0.42140  1.0000 -0.0372165535
C   C42       1.0  0.13430  0.60040  0.07860  1.0000 -0.0372165535
C   C43       1.0  0.13430  0.89960  0.57860  1.0000 -0.0372165535
C   C44       1.0  0.86570  0.39960  0.92140  1.0000 -0.0372165535
C   C45       1.0  0.00800  0.09020  0.46060  1.0000 -0.1441039034
C   C46       1.0  0.99200  0.59020  0.03940  1.0000 -0.1441039034
C   C47       1.0  0.99200  0.90980  0.53940  1.0000 -0.1441039034
C   C48       1.0  0.00800  0.40980  0.96060  1.0000 -0.1441039034
N   N1        1.0  0.26820  0.03190  0.09090  1.0000 0.6864188723
N   N2        1.0  0.73180  0.53190  0.40910  1.0000 0.6864188723
N   N3        1.0  0.73180  0.96810  0.90910  1.0000 0.6864188723
N   N4        1.0  0.26820  0.46810  0.59090  1.0000 0.6864188723
N   N5        1.0  0.55400  0.63810  0.63050  1.0000 0.3465125523
N   N6        1.0  0.44600  0.13810  0.86950  1.0000 0.3465125523
N   N7        1.0  0.44600  0.36190  0.36950  1.0000 0.3465125523
N   N8        1.0  0.55400  0.86190  0.13050  1.0000 0.3465125523
N   N9        1.0  0.78530  0.07460  0.31080  1.0000 0.3222964666
N   N10       1.0  0.21470  0.57460  0.18920  1.0000 0.3222964666
N   N11       1.0  0.21470  0.92540  0.68920  1.0000 0.3222964666
N   N12       1.0  0.78530  0.42540  0.81080  1.0000 0.3222964666
O   O1        1.0  0.35300  0.08200  0.15530  1.0000 -0.5162314413
O   O2        1.0  0.64700  0.58200  0.34470  1.0000 -0.5162314413
O   O3        1.0  0.64700  0.91800  0.84470  1.0000 -0.5162314413
O   O4        1.0  0.35300  0.41800  0.65530  1.0000 -0.5147585311
O   O5        1.0  0.29640  0.96310  0.11840  1.0000 -0.4793347009
O   O6        1.0  0.70360  0.46310  0.38160  1.0000 -0.4793347009
O   O7        1.0  0.70360  0.03690  0.88160  1.0000 -0.4793347009
O   O8        1.0  0.29640  0.53690  0.61840  1.0000 -0.4793347009
O   O9        1.0  0.43920  0.85900  0.34350  1.0000 -0.5938312375
O   O10       1.0  0.56080  0.35900  0.15650  1.0000 -0.5938312375
O   O11       1.0  0.56080  0.14100  0.65650  1.0000 -0.5938312375
O   O12       1.0  0.43920  0.64100  0.84350  1.0000 -0.5938312375
O   O13       1.0  0.47450  0.91480  0.52270  1.0000 -0.7033344545
O   O14       1.0  0.52550  0.41480  0.97730  1.0000 -0.7033344545
O   O15       1.0  0.52550  0.08520  0.47730  1.0000 -0.7033344545
O   O16       1.0  0.47450  0.58520  0.02270  1.0000 -0.7033344545
O   O17       1.0  0.58760  0.57070  0.68300  1.0000 -0.5938312375
O   O18       1.0  0.41240  0.07070  0.81700  1.0000 -0.5938312375
O   O19       1.0  0.41240  0.42930  0.31700  1.0000 -0.5938312375
O   O20       1.0  0.58760  0.92930  0.18300  1.0000 -0.5938312375
O   O21       1.0  0.27140  0.01510  0.34630  1.0000 -0.6398742385
O   O22       1.0  0.72860  0.51510  0.15370  1.0000 -0.6398742385
O   O23       1.0  0.72860  0.98490  0.65370  1.0000 -0.6398742385
O   O24       1.0  0.27140  0.48490  0.84630  1.0000 -0.6398742385
O   O25       1.0  0.28970  0.04770  0.54090  1.0000 -0.6639511325
O   O26       1.0  0.71030  0.54770  0.95910  1.0000 -0.6639511325
O   O27       1.0  0.71030  0.95230  0.45910  1.0000 -0.6639511325
O   O28       1.0  0.28970  0.45230  0.04090  1.0000 -0.6639511325
O   O29       1.0  0.64630  0.08210  0.27450  1.0000 -0.6117507704
O   O30       1.0  0.35370  0.58210  0.22550  1.0000 -0.6117507704
O   O31       1.0  0.35370  0.91790  0.72550  1.0000 -0.6117507704
O   O32       1.0  0.64630  0.41790  0.77450  1.0000 -0.6117507704
O   O33       1.0  0.16820  0.04900  0.00510  1.0000 -0.328772258
O   O34       1.0  0.83180  0.54900  0.49490  1.0000 -0.328772258
O   O35       1.0  0.83180  0.95100  0.99490  1.0000 -0.328772258
O   O36       1.0  0.16820  0.45100  0.50510  1.0000 -0.328772258
