# DDEC6 charges by PACMAN v1.1 (https://github.com/mtap-research/PACMAN-charge/)
data_2012[Mn][llj]3[ASR]1
_chemical_formula_sum              "Mn10 H240 C264 N48 Cl20"
_cell_length_a       22.0951
_cell_length_b       22.0951
_cell_length_c       13.0878
_cell_angle_alpha    90
_cell_angle_beta     90
_cell_angle_gamma    90

_symmetry_space_group_name_H-M    "P 1"
_symmetry_Int_Tables_number       1

loop_
  _symmetry_equiv_pos_as_xyz
  'x, y, z'

loop_
  _atom_site_type_symbol
  _atom_site_label
  _atom_site_symmetry_multiplicity
  _atom_site_fract_x
  _atom_site_fract_y
  _atom_site_fract_z
  _atom_site_occupancy
  _atom_site_charge
Mn  Mn1       1.0  0.52874  0.72941  0.48248  1.0000 0.726666373
Mn  Mn2       1.0  0.47126  0.27059  0.48248  1.0000 0.726666373
Mn  Mn3       1.0  0.22941  0.97126  0.98248  1.0000 0.726666373
Mn  Mn4       1.0  0.77059  0.02874  0.98248  1.0000 0.726666373
Mn  Mn5       1.0  0.97126  0.77059  0.01752  1.0000 0.726666373
Mn  Mn6       1.0  0.02874  0.22941  0.01752  1.0000 0.726666373
Mn  Mn7       1.0  0.27059  0.52874  0.51752  1.0000 0.726666373
Mn  Mn8       1.0  0.72941  0.47126  0.51752  1.0000 0.726666373
Mn  Mn9       1.0  0.50000  0.50000  0.50000  1.0000 0.7873345882
Mn  Mn10      1.0  0.00000  0.00000  0.00000  1.0000 0.7873345882
H   H1        1.0  0.52810  0.83600  0.29360  1.0000 0.1296531577
H   H2        1.0  0.47190  0.16400  0.29360  1.0000 0.1296531577
H   H3        1.0  0.33600  0.97190  0.79360  1.0000 0.1296531577
H   H4        1.0  0.66400  0.02810  0.79360  1.0000 0.1296531577
H   H5        1.0  0.97190  0.66400  0.20640  1.0000 0.1296531577
H   H6        1.0  0.02810  0.33600  0.20640  1.0000 0.1296531577
H   H7        1.0  0.16400  0.52810  0.70640  1.0000 0.1296531577
H   H8        1.0  0.83600  0.47190  0.70640  1.0000 0.1296531577
H   H9        1.0  0.53970  0.88500  0.13610  1.0000 0.1198914637
H   H10       1.0  0.46030  0.11500  0.13610  1.0000 0.1198914637
H   H11       1.0  0.38500  0.96030  0.63610  1.0000 0.1198914637
H   H12       1.0  0.61500  0.03970  0.63610  1.0000 0.1198914637
H   H13       1.0  0.96030  0.61500  0.36390  1.0000 0.1198914637
H   H14       1.0  0.03970  0.38500  0.36390  1.0000 0.1198914637
H   H15       1.0  0.11500  0.53970  0.86390  1.0000 0.1198914637
H   H16       1.0  0.88500  0.46030  0.86390  1.0000 0.1198914637
H   H17       1.0  0.55500  0.82990  0.98640  1.0000 0.1198914637
H   H18       1.0  0.44500  0.17010  0.98640  1.0000 0.1198914637
H   H19       1.0  0.32990  0.94500  0.48640  1.0000 0.1198914637
H   H20       1.0  0.67010  0.05500  0.48640  1.0000 0.1198914637
H   H21       1.0  0.94500  0.67010  0.51360  1.0000 0.1198914637
H   H22       1.0  0.05500  0.32990  0.51360  1.0000 0.1198914637
H   H23       1.0  0.17010  0.55500  0.01360  1.0000 0.1198914637
H   H24       1.0  0.82990  0.44500  0.01360  1.0000 0.1198914637
H   H25       1.0  0.56130  0.72470  0.98860  1.0000 0.1296531577
H   H26       1.0  0.43870  0.27530  0.98860  1.0000 0.1296531577
H   H27       1.0  0.22470  0.93870  0.48860  1.0000 0.1296531577
H   H28       1.0  0.77530  0.06130  0.48860  1.0000 0.1296531577
H   H29       1.0  0.93870  0.77530  0.51140  1.0000 0.1296531577
H   H30       1.0  0.06130  0.22470  0.51140  1.0000 0.1296531577
H   H31       1.0  0.27530  0.56130  0.01140  1.0000 0.1296531577
H   H32       1.0  0.72470  0.43870  0.01140  1.0000 0.1296531577
H   H33       1.0  0.53580  0.61920  0.31240  1.0000 0.1198914637
H   H34       1.0  0.46420  0.38080  0.31240  1.0000 0.1198914637
H   H35       1.0  0.11920  0.96420  0.81240  1.0000 0.1198914637
H   H36       1.0  0.88080  0.03580  0.81240  1.0000 0.1198914637
H   H37       1.0  0.96420  0.88080  0.18760  1.0000 0.1198914637
H   H38       1.0  0.03580  0.11920  0.18760  1.0000 0.1198914637
H   H39       1.0  0.38080  0.53580  0.68760  1.0000 0.1198914637
H   H40       1.0  0.61920  0.46420  0.68760  1.0000 0.1198914637
H   H41       1.0  0.51860  0.60560  0.05390  1.0000 0.1125058195
H   H42       1.0  0.48140  0.39440  0.05390  1.0000 0.1125058195
H   H43       1.0  0.10560  0.98140  0.55390  1.0000 0.1125058195
H   H44       1.0  0.89440  0.01860  0.55390  1.0000 0.1125058195
H   H45       1.0  0.98140  0.89440  0.44610  1.0000 0.1125058195
H   H46       1.0  0.01860  0.10560  0.44610  1.0000 0.1125058195
H   H47       1.0  0.39440  0.51860  0.94610  1.0000 0.1125058195
H   H48       1.0  0.60560  0.48140  0.94610  1.0000 0.1125058195
H   H49       1.0  0.54690  0.56690  0.14560  1.0000 0.1198914637
H   H50       1.0  0.45310  0.43310  0.14560  1.0000 0.1198914637
H   H51       1.0  0.06690  0.95310  0.64560  1.0000 0.1198914637
H   H52       1.0  0.93310  0.04690  0.64560  1.0000 0.1198914637
H   H53       1.0  0.95310  0.93310  0.35440  1.0000 0.1198914637
H   H54       1.0  0.04690  0.06690  0.35440  1.0000 0.1198914637
H   H55       1.0  0.43310  0.54690  0.85440  1.0000 0.1198914637
H   H56       1.0  0.56690  0.45310  0.85440  1.0000 0.1198914637
H   H57       1.0  0.69770  0.55590  0.23700  1.0000 0.138213991
H   H58       1.0  0.30230  0.44410  0.23700  1.0000 0.138213991
H   H59       1.0  0.05590  0.80230  0.73700  1.0000 0.138213991
H   H60       1.0  0.94410  0.19770  0.73700  1.0000 0.138213991
H   H61       1.0  0.80230  0.94410  0.26300  1.0000 0.138213991
H   H62       1.0  0.19770  0.05590  0.26300  1.0000 0.138213991
H   H63       1.0  0.44410  0.69770  0.76300  1.0000 0.138213991
H   H64       1.0  0.55590  0.30230  0.76300  1.0000 0.138213991
H   H65       1.0  0.62540  0.56090  0.23420  1.0000 0.138213991
H   H66       1.0  0.37460  0.43910  0.23420  1.0000 0.138213991
H   H67       1.0  0.06090  0.87460  0.73420  1.0000 0.138213991
H   H68       1.0  0.93910  0.12540  0.73420  1.0000 0.138213991
H   H69       1.0  0.87460  0.93910  0.26580  1.0000 0.138213991
H   H70       1.0  0.12540  0.06090  0.26580  1.0000 0.138213991
H   H71       1.0  0.43910  0.62540  0.76580  1.0000 0.138213991
H   H72       1.0  0.56090  0.37460  0.76580  1.0000 0.138213991
H   H73       1.0  0.66550  0.61990  0.25570  1.0000 0.138213991
H   H74       1.0  0.33450  0.38010  0.25570  1.0000 0.138213991
H   H75       1.0  0.11990  0.83450  0.75570  1.0000 0.138213991
H   H76       1.0  0.88010  0.16550  0.75570  1.0000 0.138213991
H   H77       1.0  0.83450  0.88010  0.24430  1.0000 0.138213991
H   H78       1.0  0.16550  0.11990  0.24430  1.0000 0.138213991
H   H79       1.0  0.38010  0.66550  0.74430  1.0000 0.138213991
H   H80       1.0  0.61990  0.33450  0.74430  1.0000 0.138213991
H   H81       1.0  0.79520  0.65310  0.88080  1.0000 0.138213991
H   H82       1.0  0.20480  0.34690  0.88080  1.0000 0.138213991
H   H83       1.0  0.15310  0.70480  0.38080  1.0000 0.138213991
H   H84       1.0  0.84690  0.29520  0.38080  1.0000 0.138213991
H   H85       1.0  0.70480  0.84690  0.61920  1.0000 0.138213991
H   H86       1.0  0.29520  0.15310  0.61920  1.0000 0.138213991
H   H87       1.0  0.34690  0.79520  0.11920  1.0000 0.138213991
H   H88       1.0  0.65310  0.20480  0.11920  1.0000 0.138213991
H   H89       1.0  0.78190  0.58930  0.82730  1.0000 0.1296531577
H   H90       1.0  0.21810  0.41070  0.82730  1.0000 0.1296531577
H   H91       1.0  0.08930  0.71810  0.32730  1.0000 0.1296531577
H   H92       1.0  0.91070  0.28190  0.32730  1.0000 0.1296531577
H   H93       1.0  0.71810  0.91070  0.67270  1.0000 0.1296531577
H   H94       1.0  0.28190  0.08930  0.67270  1.0000 0.1296531577
H   H95       1.0  0.41070  0.78190  0.17270  1.0000 0.1296531577
H   H96       1.0  0.58930  0.21810  0.17270  1.0000 0.1296531577
H   H97       1.0  0.81590  0.59170  0.93520  1.0000 0.1296531577
H   H98       1.0  0.18410  0.40830  0.93520  1.0000 0.1296531577
H   H99       1.0  0.09170  0.68410  0.43520  1.0000 0.1296531577
H   H100      1.0  0.90830  0.31590  0.43520  1.0000 0.1296531577
H   H101      1.0  0.68410  0.90830  0.56480  1.0000 0.1296531577
H   H102      1.0  0.31590  0.09170  0.56480  1.0000 0.1296531577
H   H103      1.0  0.40830  0.81590  0.06480  1.0000 0.1296531577
H   H104      1.0  0.59170  0.18410  0.06480  1.0000 0.1296531577
H   H105      1.0  0.52590  0.57920  0.91540  1.0000 0.1296531577
H   H106      1.0  0.47410  0.42080  0.91540  1.0000 0.1296531577
H   H107      1.0  0.07920  0.97410  0.41540  1.0000 0.1296531577
H   H108      1.0  0.92080  0.02590  0.41540  1.0000 0.1296531577
H   H109      1.0  0.97410  0.92080  0.58460  1.0000 0.1296531577
H   H110      1.0  0.02590  0.07920  0.58460  1.0000 0.1296531577
H   H111      1.0  0.42080  0.52590  0.08460  1.0000 0.1296531577
H   H112      1.0  0.57920  0.47410  0.08460  1.0000 0.1296531577
H   H113      1.0  0.56440  0.58490  0.81230  1.0000 0.138213991
H   H114      1.0  0.43560  0.41510  0.81230  1.0000 0.138213991
H   H115      1.0  0.08490  0.93560  0.31230  1.0000 0.138213991
H   H116      1.0  0.91510  0.06440  0.31230  1.0000 0.138213991
H   H117      1.0  0.93560  0.91510  0.68770  1.0000 0.138213991
H   H118      1.0  0.06440  0.08490  0.68770  1.0000 0.138213991
H   H119      1.0  0.41510  0.56440  0.18770  1.0000 0.138213991
H   H120      1.0  0.58490  0.43560  0.18770  1.0000 0.138213991
H   H121      1.0  0.54050  0.64450  0.86890  1.0000 0.138213991
H   H122      1.0  0.45950  0.35550  0.86890  1.0000 0.138213991
H   H123      1.0  0.14450  0.95950  0.36890  1.0000 0.138213991
H   H124      1.0  0.85550  0.04050  0.36890  1.0000 0.138213991
H   H125      1.0  0.95950  0.85550  0.63110  1.0000 0.138213991
H   H126      1.0  0.04050  0.14450  0.63110  1.0000 0.138213991
H   H127      1.0  0.35550  0.54050  0.13110  1.0000 0.138213991
H   H128      1.0  0.64450  0.45950  0.13110  1.0000 0.138213991
H   H129      1.0  0.84460  0.85050  0.04190  1.0000 0.138213991
H   H130      1.0  0.15540  0.14950  0.04190  1.0000 0.138213991
H   H131      1.0  0.35050  0.65540  0.54190  1.0000 0.138213991
H   H132      1.0  0.64950  0.34460  0.54190  1.0000 0.138213991
H   H133      1.0  0.65540  0.64950  0.45810  1.0000 0.138213991
H   H134      1.0  0.34460  0.35050  0.45810  1.0000 0.138213991
H   H135      1.0  0.14950  0.84460  0.95810  1.0000 0.138213991
H   H136      1.0  0.85050  0.15540  0.95810  1.0000 0.138213991
H   H137      1.0  0.74670  0.88290  0.08140  1.0000 0.1198914637
H   H138      1.0  0.25330  0.11710  0.08140  1.0000 0.1198914637
H   H139      1.0  0.38290  0.75330  0.58140  1.0000 0.1198914637
H   H140      1.0  0.61710  0.24670  0.58140  1.0000 0.1198914637
H   H141      1.0  0.75330  0.61710  0.41860  1.0000 0.1198914637
H   H142      1.0  0.24670  0.38290  0.41860  1.0000 0.1198914637
H   H143      1.0  0.11710  0.74670  0.91860  1.0000 0.1198914637
H   H144      1.0  0.88290  0.25330  0.91860  1.0000 0.1198914637
H   H145      1.0  0.67300  0.81510  0.13520  1.0000 0.1125058195
H   H146      1.0  0.32700  0.18490  0.13520  1.0000 0.1125058195
H   H147      1.0  0.31510  0.82700  0.63520  1.0000 0.1125058195
H   H148      1.0  0.68490  0.17300  0.63520  1.0000 0.1125058195
H   H149      1.0  0.82700  0.68490  0.36480  1.0000 0.1125058195
H   H150      1.0  0.17300  0.31510  0.36480  1.0000 0.1125058195
H   H151      1.0  0.18490  0.67300  0.86480  1.0000 0.1125058195
H   H152      1.0  0.81510  0.32700  0.86480  1.0000 0.1125058195
H   H153      1.0  0.69370  0.71130  0.14780  1.0000 0.1296531577
H   H154      1.0  0.30630  0.28870  0.14780  1.0000 0.1296531577
H   H155      1.0  0.21130  0.80630  0.64780  1.0000 0.1296531577
H   H156      1.0  0.78870  0.19370  0.64780  1.0000 0.1296531577
H   H157      1.0  0.80630  0.78870  0.35220  1.0000 0.1296531577
H   H158      1.0  0.19370  0.21130  0.35220  1.0000 0.1296531577
H   H159      1.0  0.28870  0.69370  0.85220  1.0000 0.1296531577
H   H160      1.0  0.71130  0.30630  0.85220  1.0000 0.1296531577
H   H161      1.0  0.89580  0.64090  0.06110  1.0000 0.1198914637
H   H162      1.0  0.10420  0.35910  0.06110  1.0000 0.1198914637
H   H163      1.0  0.14090  0.60420  0.56110  1.0000 0.1198914637
H   H164      1.0  0.85910  0.39580  0.56110  1.0000 0.1198914637
H   H165      1.0  0.60420  0.85910  0.43890  1.0000 0.1198914637
H   H166      1.0  0.39580  0.14090  0.43890  1.0000 0.1198914637
H   H167      1.0  0.35910  0.89580  0.93890  1.0000 0.1198914637
H   H168      1.0  0.64090  0.10420  0.93890  1.0000 0.1198914637
H   H169      1.0  0.77040  0.59990  0.18980  1.0000 0.1198914637
H   H170      1.0  0.22960  0.40010  0.18980  1.0000 0.1198914637
H   H171      1.0  0.09990  0.72960  0.68980  1.0000 0.1198914637
H   H172      1.0  0.90010  0.27040  0.68980  1.0000 0.1198914637
H   H173      1.0  0.72960  0.90010  0.31020  1.0000 0.1198914637
H   H174      1.0  0.27040  0.09990  0.31020  1.0000 0.1198914637
H   H175      1.0  0.40010  0.77040  0.81020  1.0000 0.1198914637
H   H176      1.0  0.59990  0.22960  0.81020  1.0000 0.1198914637
H   H177      1.0  0.80780  0.57160  0.09640  1.0000 0.1296531577
H   H178      1.0  0.19220  0.42840  0.09640  1.0000 0.1296531577
H   H179      1.0  0.07160  0.69220  0.59640  1.0000 0.1296531577
H   H180      1.0  0.92840  0.30780  0.59640  1.0000 0.1296531577
H   H181      1.0  0.69220  0.92840  0.40360  1.0000 0.1296531577
H   H182      1.0  0.30780  0.07160  0.40360  1.0000 0.1296531577
H   H183      1.0  0.42840  0.80780  0.90360  1.0000 0.1296531577
H   H184      1.0  0.57160  0.19220  0.90360  1.0000 0.1296531577
H   H185      1.0  0.55250  0.83870  0.67390  1.0000 0.138213991
H   H186      1.0  0.44750  0.16130  0.67390  1.0000 0.138213991
H   H187      1.0  0.33870  0.94750  0.17390  1.0000 0.138213991
H   H188      1.0  0.66130  0.05250  0.17390  1.0000 0.138213991
H   H189      1.0  0.94750  0.66130  0.82610  1.0000 0.138213991
H   H190      1.0  0.05250  0.33870  0.82610  1.0000 0.138213991
H   H191      1.0  0.16130  0.55250  0.32610  1.0000 0.138213991
H   H192      1.0  0.83870  0.44750  0.32610  1.0000 0.138213991
H   H193      1.0  0.60780  0.89160  0.79730  1.0000 0.1296531577
H   H194      1.0  0.39220  0.10840  0.79730  1.0000 0.1296531577
H   H195      1.0  0.39160  0.89220  0.29730  1.0000 0.1296531577
H   H196      1.0  0.60840  0.10780  0.29730  1.0000 0.1296531577
H   H197      1.0  0.89220  0.60840  0.70270  1.0000 0.1296531577
H   H198      1.0  0.10780  0.39160  0.70270  1.0000 0.1296531577
H   H199      1.0  0.10840  0.60780  0.20270  1.0000 0.1296531577
H   H200      1.0  0.89160  0.39220  0.20270  1.0000 0.1296531577
H   H201      1.0  0.68130  0.84420  0.89570  1.0000 0.1198914637
H   H202      1.0  0.31870  0.15580  0.89570  1.0000 0.1198914637
H   H203      1.0  0.34420  0.81870  0.39570  1.0000 0.1198914637
H   H204      1.0  0.65580  0.18130  0.39570  1.0000 0.1198914637
H   H205      1.0  0.81870  0.65580  0.60430  1.0000 0.1198914637
H   H206      1.0  0.18130  0.34420  0.60430  1.0000 0.1198914637
H   H207      1.0  0.15580  0.68130  0.10430  1.0000 0.1198914637
H   H208      1.0  0.84420  0.31870  0.10430  1.0000 0.1198914637
H   H209      1.0  0.69980  0.73990  0.87930  1.0000 0.138213991
H   H210      1.0  0.30020  0.26010  0.87930  1.0000 0.138213991
H   H211      1.0  0.23990  0.80020  0.37930  1.0000 0.138213991
H   H212      1.0  0.76010  0.19980  0.37930  1.0000 0.1296531577
H   H213      1.0  0.80020  0.76010  0.62070  1.0000 0.138213991
H   H214      1.0  0.19980  0.23990  0.62070  1.0000 0.138213991
H   H215      1.0  0.26010  0.69980  0.12070  1.0000 0.138213991
H   H216      1.0  0.73990  0.30020  0.12070  1.0000 0.138213991
H   H217      1.0  0.58500  0.62640  0.62710  1.0000 0.1198914637
H   H218      1.0  0.41500  0.37360  0.62710  1.0000 0.1198914637
H   H219      1.0  0.12640  0.91500  0.12710  1.0000 0.1198914637
H   H220      1.0  0.87360  0.08500  0.12710  1.0000 0.1198914637
H   H221      1.0  0.91500  0.87360  0.87290  1.0000 0.1198914637
H   H222      1.0  0.08500  0.12640  0.87290  1.0000 0.1198914637
H   H223      1.0  0.37360  0.58500  0.37290  1.0000 0.1198914637
H   H224      1.0  0.62640  0.41500  0.37290  1.0000 0.1198914637
H   H225      1.0  0.71540  0.62520  0.75520  1.0000 0.1198914637
H   H226      1.0  0.28460  0.37480  0.75520  1.0000 0.1198914637
H   H227      1.0  0.12520  0.78460  0.25520  1.0000 0.1198914637
H   H228      1.0  0.87480  0.21540  0.25520  1.0000 0.1198914637
H   H229      1.0  0.78460  0.87480  0.74480  1.0000 0.1198914637
H   H230      1.0  0.21540  0.12520  0.74480  1.0000 0.1198914637
H   H231      1.0  0.37480  0.71540  0.24480  1.0000 0.1198914637
H   H232      1.0  0.62520  0.28460  0.24480  1.0000 0.1198914637
H   H233      1.0  0.65950  0.58000  0.74250  1.0000 0.1198914637
H   H234      1.0  0.34050  0.42000  0.74250  1.0000 0.1198914637
H   H235      1.0  0.08000  0.84050  0.24250  1.0000 0.1198914637
H   H236      1.0  0.92000  0.15950  0.24250  1.0000 0.1198914637
H   H237      1.0  0.84050  0.92000  0.75750  1.0000 0.1198914637
H   H238      1.0  0.15950  0.08000  0.75750  1.0000 0.1198914637
H   H239      1.0  0.42000  0.65950  0.25750  1.0000 0.1198914637
H   H240      1.0  0.58000  0.34050  0.25750  1.0000 0.1198914637
C   C1        1.0  0.53805  0.75056  0.23400  1.0000 0.138213991
C   C2        1.0  0.46195  0.24944  0.23400  1.0000 0.138213991
C   C3        1.0  0.25056  0.96195  0.73400  1.0000 0.138213991
C   C4        1.0  0.74944  0.03805  0.73400  1.0000 0.138213991
C   C5        1.0  0.96195  0.74944  0.26600  1.0000 0.138213991
C   C6        1.0  0.03805  0.25056  0.26600  1.0000 0.138213991
C   C7        1.0  0.24944  0.53805  0.76600  1.0000 0.138213991
C   C8        1.0  0.75056  0.46195  0.76600  1.0000 0.138213991
C   C9        1.0  0.53477  0.81351  0.23270  1.0000 -0.1614582811
C   C10       1.0  0.46523  0.18649  0.23270  1.0000 -0.1614582811
C   C11       1.0  0.31351  0.96523  0.73270  1.0000 -0.1614582811
C   C12       1.0  0.68649  0.03477  0.73270  1.0000 -0.1614582811
C   C13       1.0  0.96523  0.68649  0.26730  1.0000 -0.1614582811
C   C14       1.0  0.03477  0.31351  0.26730  1.0000 -0.1614582811
C   C15       1.0  0.18649  0.53477  0.76730  1.0000 -0.1614582811
C   C16       1.0  0.81351  0.46523  0.76730  1.0000 -0.1614582811
C   C17       1.0  0.54152  0.84211  0.13930  1.0000 -0.1066656962
C   C18       1.0  0.45848  0.15789  0.13930  1.0000 -0.1066656962
C   C19       1.0  0.34211  0.95848  0.63930  1.0000 -0.1066656962
C   C20       1.0  0.65789  0.04152  0.63930  1.0000 -0.1066656962
C   C21       1.0  0.95848  0.65789  0.36070  1.0000 -0.1066656962
C   C22       1.0  0.04152  0.34211  0.36070  1.0000 -0.1066656962
C   C23       1.0  0.15789  0.54152  0.86070  1.0000 -0.1066656962
C   C24       1.0  0.84211  0.45848  0.86070  1.0000 -0.1066656962
C   C25       1.0  0.55098  0.80889  0.04940  1.0000 -0.0981512629
C   C26       1.0  0.44902  0.19111  0.04940  1.0000 -0.0981512629
C   C27       1.0  0.30889  0.94902  0.54940  1.0000 -0.0981512629
C   C28       1.0  0.69111  0.05098  0.54940  1.0000 -0.0981512629
C   C29       1.0  0.94902  0.69111  0.45060  1.0000 -0.0981512629
C   C30       1.0  0.05098  0.30889  0.45060  1.0000 -0.0981512629
C   C31       1.0  0.19111  0.55098  0.95060  1.0000 -0.0981512629
C   C32       1.0  0.80889  0.44902  0.95060  1.0000 -0.0981512629
C   C33       1.0  0.55462  0.74695  0.04970  1.0000 -0.1724699361
C   C34       1.0  0.44538  0.25305  0.04970  1.0000 -0.1753762394
C   C35       1.0  0.24695  0.94538  0.54970  1.0000 -0.1724699361
C   C36       1.0  0.75305  0.05462  0.54970  1.0000 -0.1753762394
C   C37       1.0  0.94538  0.75305  0.45030  1.0000 -0.1724699361
C   C38       1.0  0.05462  0.24695  0.45030  1.0000 -0.1753762394
C   C39       1.0  0.25305  0.55462  0.95030  1.0000 -0.1724699361
C   C40       1.0  0.74695  0.44538  0.95030  1.0000 -0.1724699361
C   C41       1.0  0.54811  0.71807  0.14340  1.0000 0.0799656853
C   C42       1.0  0.45189  0.28193  0.14340  1.0000 0.0799656853
C   C43       1.0  0.21807  0.95189  0.64340  1.0000 0.0799656853
C   C44       1.0  0.78193  0.04811  0.64340  1.0000 0.0799656853
C   C45       1.0  0.95189  0.78193  0.35660  1.0000 0.0799656853
C   C46       1.0  0.04811  0.21807  0.35660  1.0000 0.0799656853
C   C47       1.0  0.28193  0.54811  0.85660  1.0000 0.0799656853
C   C48       1.0  0.71807  0.45189  0.85660  1.0000 0.0799656853
C   C49       1.0  0.53803  0.65578  0.27430  1.0000 0.1296531577
C   C50       1.0  0.46197  0.34422  0.27430  1.0000 0.1296531577
C   C51       1.0  0.15578  0.96197  0.77430  1.0000 0.1296531577
C   C52       1.0  0.84422  0.03803  0.77430  1.0000 0.1296531577
C   C53       1.0  0.96197  0.84422  0.22570  1.0000 0.1296531577
C   C54       1.0  0.03803  0.15578  0.22570  1.0000 0.1296531577
C   C55       1.0  0.34422  0.53803  0.72570  1.0000 0.1296531577
C   C56       1.0  0.65578  0.46197  0.72570  1.0000 0.1296531577
C   C57       1.0  0.55198  0.60404  0.10420  1.0000 -0.1472586088
C   C58       1.0  0.44802  0.39596  0.10420  1.0000 -0.1472586088
C   C59       1.0  0.10404  0.94802  0.60420  1.0000 -0.1472586088
C   C60       1.0  0.89596  0.05198  0.60420  1.0000 -0.1472586088
C   C61       1.0  0.94802  0.89596  0.39580  1.0000 -0.1472586088
C   C62       1.0  0.05198  0.10404  0.39580  1.0000 -0.1472586088
C   C63       1.0  0.39596  0.55198  0.89580  1.0000 -0.1472586088
C   C64       1.0  0.60404  0.44802  0.89580  1.0000 -0.1472586088
C   C65       1.0  0.61217  0.60097  0.04750  1.0000 -0.0414168542
C   C66       1.0  0.38783  0.39903  0.04750  1.0000 -0.0414168542
C   C67       1.0  0.10097  0.88783  0.54750  1.0000 -0.0414168542
C   C68       1.0  0.89903  0.11217  0.54750  1.0000 -0.0414168542
C   C69       1.0  0.88783  0.89903  0.45250  1.0000 -0.0414168542
C   C70       1.0  0.11217  0.10097  0.45250  1.0000 -0.0414168542
C   C71       1.0  0.39903  0.61217  0.95250  1.0000 -0.0414168542
C   C72       1.0  0.60097  0.38783  0.95250  1.0000 -0.0414168542
C   C73       1.0  0.66583  0.59456  0.10410  1.0000 0.0799656853
C   C74       1.0  0.33417  0.40544  0.10410  1.0000 0.0799656853
C   C75       1.0  0.09456  0.83417  0.60410  1.0000 0.0799656853
C   C76       1.0  0.90544  0.16583  0.60410  1.0000 0.0799656853
C   C77       1.0  0.83417  0.90544  0.39590  1.0000 0.0799656853
C   C78       1.0  0.16583  0.09456  0.39590  1.0000 0.0799656853
C   C79       1.0  0.40544  0.66583  0.89590  1.0000 0.0799656853
C   C80       1.0  0.59456  0.33417  0.89590  1.0000 0.0799656853
C   C81       1.0  0.66340  0.58167  0.21780  1.0000 -0.4518918127
C   C82       1.0  0.33660  0.41833  0.21780  1.0000 -0.4518918127
C   C83       1.0  0.08167  0.83660  0.71780  1.0000 -0.4518918127
C   C84       1.0  0.91833  0.16340  0.71780  1.0000 -0.4518918127
C   C85       1.0  0.83660  0.91833  0.28220  1.0000 -0.4518918127
C   C86       1.0  0.16340  0.08167  0.28220  1.0000 -0.4518918127
C   C87       1.0  0.41833  0.66340  0.78220  1.0000 -0.4518918127
C   C88       1.0  0.58167  0.33660  0.78220  1.0000 -0.4518918127
C   C89       1.0  0.72156  0.59995  0.05360  1.0000 -0.0414168542
C   C90       1.0  0.27844  0.40005  0.05360  1.0000 -0.0414168542
C   C91       1.0  0.09995  0.77844  0.55360  1.0000 -0.0414168542
C   C92       1.0  0.90005  0.22156  0.55360  1.0000 -0.0414168542
C   C93       1.0  0.77844  0.90005  0.44640  1.0000 -0.0414168542
C   C94       1.0  0.22156  0.09995  0.44640  1.0000 -0.0414168542
C   C95       1.0  0.40005  0.72156  0.94640  1.0000 -0.0414168542
C   C96       1.0  0.59995  0.27844  0.94640  1.0000 -0.0414168542
C   C97       1.0  0.72408  0.60717  0.94760  1.0000 0.0799656853
C   C98       1.0  0.27592  0.39283  0.94760  1.0000 0.0799656853
C   C99       1.0  0.10717  0.77592  0.44760  1.0000 0.0799656853
C   C100      1.0  0.89283  0.22408  0.44760  1.0000 0.0799656853
C   C101      1.0  0.77592  0.89283  0.55240  1.0000 0.0799656853
C   C102      1.0  0.22408  0.10717  0.55240  1.0000 0.0799656853
C   C103      1.0  0.39283  0.72408  0.05240  1.0000 0.0799656853
C   C104      1.0  0.60717  0.27592  0.05240  1.0000 0.0799656853
C   C105      1.0  0.78467  0.61063  0.89290  1.0000 -0.4632591039
C   C106      1.0  0.21533  0.38937  0.89290  1.0000 -0.4632591039
C   C107      1.0  0.11063  0.71533  0.39290  1.0000 -0.4632591039
C   C108      1.0  0.88937  0.28467  0.39290  1.0000 -0.4632591039
C   C109      1.0  0.71533  0.88937  0.60710  1.0000 -0.4632591039
C   C110      1.0  0.28467  0.11063  0.60710  1.0000 -0.4632591039
C   C111      1.0  0.38937  0.78467  0.10710  1.0000 -0.4632591039
C   C112      1.0  0.61063  0.21533  0.10710  1.0000 -0.4632591039
C   C113      1.0  0.67024  0.60990  0.89080  1.0000 -0.0414168542
C   C114      1.0  0.32976  0.39010  0.89080  1.0000 -0.0414168542
C   C115      1.0  0.10990  0.82976  0.39080  1.0000 -0.0414168542
C   C116      1.0  0.89010  0.17024  0.39080  1.0000 -0.0414168542
C   C117      1.0  0.82976  0.89010  0.60920  1.0000 -0.0414168542
C   C118      1.0  0.17024  0.10990  0.60920  1.0000 -0.0414168542
C   C119      1.0  0.39010  0.67024  0.10920  1.0000 -0.0414168542
C   C120      1.0  0.60990  0.32976  0.10920  1.0000 -0.0414168542
C   C121      1.0  0.61413  0.60591  0.94100  1.0000 0.0799656853
C   C122      1.0  0.38587  0.39409  0.94100  1.0000 0.0799656853
C   C123      1.0  0.10591  0.88587  0.44100  1.0000 0.0799656853
C   C124      1.0  0.89409  0.11413  0.44100  1.0000 0.0799656853
C   C125      1.0  0.88587  0.89409  0.55900  1.0000 0.0799656853
C   C126      1.0  0.11413  0.10591  0.55900  1.0000 0.0799656853
C   C127      1.0  0.39409  0.61413  0.05900  1.0000 0.0799656853
C   C128      1.0  0.60591  0.38587  0.05900  1.0000 0.0799656853
C   C129      1.0  0.55607  0.60342  0.87890  1.0000 -0.4668067724
C   C130      1.0  0.44393  0.39658  0.87890  1.0000 -0.4668067724
C   C131      1.0  0.10342  0.94393  0.37890  1.0000 -0.4668067724
C   C132      1.0  0.89658  0.05607  0.37890  1.0000 -0.4668067724
C   C133      1.0  0.94393  0.89658  0.62110  1.0000 -0.4668067724
C   C134      1.0  0.05607  0.10342  0.62110  1.0000 -0.4668067724
C   C135      1.0  0.39658  0.55607  0.12110  1.0000 -0.4668067724
C   C136      1.0  0.60342  0.44393  0.12110  1.0000 -0.4668067724
C   C137      1.0  0.82689  0.76097  0.06990  1.0000 0.138213991
C   C138      1.0  0.17311  0.23903  0.06990  1.0000 0.138213991
C   C139      1.0  0.26097  0.67311  0.56990  1.0000 0.138213991
C   C140      1.0  0.73903  0.32689  0.56990  1.0000 0.138213991
C   C141      1.0  0.67311  0.73903  0.43010  1.0000 0.138213991
C   C142      1.0  0.32689  0.26097  0.43010  1.0000 0.138213991
C   C143      1.0  0.23903  0.82689  0.93010  1.0000 0.138213991
C   C144      1.0  0.76097  0.17311  0.93010  1.0000 0.138213991
C   C145      1.0  0.81441  0.82244  0.06260  1.0000 -0.1614582811
C   C146      1.0  0.18559  0.17756  0.06260  1.0000 -0.1614582811
C   C147      1.0  0.32244  0.68559  0.56260  1.0000 -0.1614582811
C   C148      1.0  0.67756  0.31441  0.56260  1.0000 -0.1614582811
C   C149      1.0  0.68559  0.67756  0.43740  1.0000 -0.1614582811
C   C150      1.0  0.31441  0.32244  0.43740  1.0000 -0.1614582811
C   C151      1.0  0.17756  0.81441  0.93740  1.0000 -0.1614582811
C   C152      1.0  0.82244  0.18559  0.93740  1.0000 -0.1614582811
C   C153      1.0  0.75657  0.84116  0.08660  1.0000 -0.0981512629
C   C154      1.0  0.24343  0.15884  0.08660  1.0000 -0.0981512629
C   C155      1.0  0.34116  0.74343  0.58660  1.0000 -0.0981512629
C   C156      1.0  0.65884  0.25657  0.58660  1.0000 -0.0981512629
C   C157      1.0  0.74343  0.65884  0.41340  1.0000 -0.0981512629
C   C158      1.0  0.25657  0.34116  0.41340  1.0000 -0.0981512629
C   C159      1.0  0.15884  0.75657  0.91340  1.0000 -0.0981512629
C   C160      1.0  0.84116  0.24343  0.91340  1.0000 -0.0981512629
C   C161      1.0  0.71212  0.80042  0.11850  1.0000 -0.0981512629
C   C162      1.0  0.28788  0.19958  0.11850  1.0000 -0.0981512629
C   C163      1.0  0.30042  0.78788  0.61850  1.0000 -0.0981512629
C   C164      1.0  0.69958  0.21212  0.61850  1.0000 -0.0981512629
C   C165      1.0  0.78788  0.69958  0.38150  1.0000 -0.0981512629
C   C166      1.0  0.21212  0.30042  0.38150  1.0000 -0.0981512629
C   C167      1.0  0.19958  0.71212  0.88150  1.0000 -0.0981512629
C   C168      1.0  0.80042  0.28788  0.88150  1.0000 -0.0981512629
C   C169      1.0  0.72390  0.73914  0.12610  1.0000 -0.1724699361
C   C170      1.0  0.27610  0.26086  0.12610  1.0000 -0.1724699361
C   C171      1.0  0.23914  0.77610  0.62610  1.0000 -0.1724699361
C   C172      1.0  0.76086  0.22390  0.62610  1.0000 -0.1724699361
C   C173      1.0  0.77610  0.76086  0.37390  1.0000 -0.1724699361
C   C174      1.0  0.22390  0.23914  0.37390  1.0000 -0.1724699361
C   C175      1.0  0.26086  0.72390  0.87390  1.0000 -0.1724699361
C   C176      1.0  0.73914  0.27610  0.87390  1.0000 -0.1724699361
C   C177      1.0  0.78195  0.72012  0.10050  1.0000 0.0854660541
C   C178      1.0  0.21805  0.27988  0.10050  1.0000 0.0854660541
C   C179      1.0  0.22012  0.71805  0.60050  1.0000 0.0854660541
C   C180      1.0  0.77988  0.28195  0.60050  1.0000 0.0854660541
C   C181      1.0  0.71805  0.77988  0.39950  1.0000 0.0854660541
C   C182      1.0  0.28195  0.22012  0.39950  1.0000 0.0854660541
C   C183      1.0  0.27988  0.78195  0.89950  1.0000 0.0854660541
C   C184      1.0  0.72012  0.21805  0.89950  1.0000 0.0854660541
C   C185      1.0  0.86734  0.67282  0.06860  1.0000 0.1296531577
C   C186      1.0  0.13266  0.32718  0.06860  1.0000 0.1296531577
C   C187      1.0  0.17282  0.63266  0.56860  1.0000 0.1296531577
C   C188      1.0  0.82718  0.36734  0.56860  1.0000 0.1296531577
C   C189      1.0  0.63266  0.82718  0.43140  1.0000 0.1296531577
C   C190      1.0  0.36734  0.17282  0.43140  1.0000 0.1296531577
C   C191      1.0  0.32718  0.86734  0.93140  1.0000 0.1296531577
C   C192      1.0  0.67282  0.13266  0.93140  1.0000 0.1296531577
C   C193      1.0  0.77988  0.60454  0.11630  1.0000 -0.1383320914
C   C194      1.0  0.22012  0.39546  0.11630  1.0000 -0.1383320914
C   C195      1.0  0.10454  0.72012  0.61630  1.0000 -0.1383320914
C   C196      1.0  0.89546  0.27988  0.61630  1.0000 -0.1383320914
C   C197      1.0  0.72012  0.89546  0.38370  1.0000 -0.1383320914
C   C198      1.0  0.27988  0.10454  0.38370  1.0000 -0.1383320914
C   C199      1.0  0.39546  0.77988  0.88370  1.0000 -0.1383320914
C   C200      1.0  0.60454  0.22012  0.88370  1.0000 -0.1383320914
C   C201      1.0  0.59339  0.75722  0.70440  1.0000 0.1296531577
C   C202      1.0  0.40661  0.24278  0.70440  1.0000 0.1296531577
C   C203      1.0  0.25722  0.90661  0.20440  1.0000 0.1296531577
C   C204      1.0  0.74278  0.09339  0.20440  1.0000 0.1296531577
C   C205      1.0  0.90661  0.74278  0.79560  1.0000 0.1296531577
C   C206      1.0  0.09339  0.25722  0.79560  1.0000 0.1296531577
C   C207      1.0  0.24278  0.59339  0.29560  1.0000 0.1296531577
C   C208      1.0  0.75722  0.40661  0.29560  1.0000 0.1296531577
C   C209      1.0  0.58186  0.81873  0.71490  1.0000 -0.1614582811
C   C210      1.0  0.41814  0.18127  0.71490  1.0000 -0.1614582811
C   C211      1.0  0.31873  0.91814  0.21490  1.0000 -0.1614582811
C   C212      1.0  0.68127  0.08186  0.21490  1.0000 -0.1614582811
C   C213      1.0  0.91814  0.68127  0.78510  1.0000 -0.1614582811
C   C214      1.0  0.08186  0.31873  0.78510  1.0000 -0.1614582811
C   C215      1.0  0.18127  0.58186  0.28510  1.0000 -0.1614582811
C   C216      1.0  0.81873  0.41814  0.28510  1.0000 -0.1614582811
C   C217      1.0  0.61508  0.84960  0.78770  1.0000 -0.0981512629
C   C218      1.0  0.38492  0.15040  0.78770  1.0000 -0.0981512629
C   C219      1.0  0.34960  0.88492  0.28770  1.0000 -0.0981512629
C   C220      1.0  0.65040  0.11508  0.28770  1.0000 -0.0981512629
C   C221      1.0  0.88492  0.65040  0.71230  1.0000 -0.0981512629
C   C222      1.0  0.11508  0.34960  0.71230  1.0000 -0.0981512629
C   C223      1.0  0.15040  0.61508  0.21230  1.0000 -0.0981512629
C   C224      1.0  0.84960  0.38492  0.21230  1.0000 -0.0981512629
C   C225      1.0  0.65896  0.82105  0.84750  1.0000 -0.0981512629
C   C226      1.0  0.34104  0.17895  0.84750  1.0000 -0.0981512629
C   C227      1.0  0.32105  0.84104  0.34750  1.0000 -0.0981512629
C   C228      1.0  0.67895  0.15896  0.34750  1.0000 -0.0981512629
C   C229      1.0  0.84104  0.67895  0.65250  1.0000 -0.0981512629
C   C230      1.0  0.15896  0.32105  0.65250  1.0000 -0.0981512629
C   C231      1.0  0.17895  0.65896  0.15250  1.0000 -0.0981512629
C   C232      1.0  0.82105  0.34104  0.15250  1.0000 -0.0981512629
C   C233      1.0  0.67051  0.75971  0.83810  1.0000 -0.1724699361
C   C234      1.0  0.32949  0.24029  0.83810  1.0000 -0.1724699361
C   C235      1.0  0.25971  0.82949  0.33810  1.0000 -0.1724699361
C   C236      1.0  0.74029  0.17051  0.33810  1.0000 -0.1724699361
C   C237      1.0  0.82949  0.74029  0.66190  1.0000 -0.1724699361
C   C238      1.0  0.17051  0.25971  0.66190  1.0000 -0.1724699361
C   C239      1.0  0.24029  0.67051  0.16190  1.0000 -0.1724699361
C   C240      1.0  0.75971  0.32949  0.16190  1.0000 -0.1724699361
C   C241      1.0  0.63691  0.72869  0.76520  1.0000 0.0799656853
C   C242      1.0  0.36309  0.27131  0.76520  1.0000 0.0799656853
C   C243      1.0  0.22869  0.86309  0.26520  1.0000 0.0799656853
C   C244      1.0  0.77131  0.13691  0.26520  1.0000 0.0799656853
C   C245      1.0  0.86309  0.77131  0.73480  1.0000 0.0799656853
C   C246      1.0  0.13691  0.22869  0.73480  1.0000 0.0799656853
C   C247      1.0  0.27131  0.63691  0.23480  1.0000 0.0799656853
C   C248      1.0  0.72869  0.36309  0.23480  1.0000 0.0799656853
C   C249      1.0  0.59396  0.66345  0.66050  1.0000 0.138213991
C   C250      1.0  0.40604  0.33655  0.66050  1.0000 0.138213991
C   C251      1.0  0.16345  0.90604  0.16050  1.0000 0.138213991
C   C252      1.0  0.83655  0.09396  0.16050  1.0000 0.138213991
C   C253      1.0  0.90604  0.83655  0.83950  1.0000 0.138213991
C   C254      1.0  0.09396  0.16345  0.83950  1.0000 0.138213991
C   C255      1.0  0.33655  0.59396  0.33950  1.0000 0.138213991
C   C256      1.0  0.66345  0.40604  0.33950  1.0000 0.138213991
C   C257      1.0  0.67280  0.61806  0.77540  1.0000 -0.1383320914
C   C258      1.0  0.32720  0.38194  0.77540  1.0000 -0.1383320914
C   C259      1.0  0.11806  0.82720  0.27540  1.0000 -0.1383320914
C   C260      1.0  0.88194  0.17280  0.27540  1.0000 -0.1383320914
C   C261      1.0  0.82720  0.88194  0.72460  1.0000 -0.1383320914
C   C262      1.0  0.17280  0.11806  0.72460  1.0000 -0.1383320914
C   C263      1.0  0.38194  0.67280  0.22460  1.0000 -0.1383320914
C   C264      1.0  0.61806  0.32720  0.22460  1.0000 -0.1383320914
N   N1        1.0  0.53160  0.70981  0.31573  1.0000 -0.3453580991
N   N2        1.0  0.46840  0.29019  0.31573  1.0000 -0.3453580991
N   N3        1.0  0.20981  0.96840  0.81573  1.0000 -0.3453580991
N   N4        1.0  0.79019  0.03160  0.81573  1.0000 -0.3453580991
N   N5        1.0  0.96840  0.79019  0.18427  1.0000 -0.3453580991
N   N6        1.0  0.03160  0.20981  0.18427  1.0000 -0.3453580991
N   N7        1.0  0.29019  0.53160  0.68427  1.0000 -0.3453580991
N   N8        1.0  0.70981  0.46840  0.68427  1.0000 -0.3453580991
N   N9        1.0  0.54817  0.65738  0.17190  1.0000 -0.0136157974
N   N10       1.0  0.45183  0.34262  0.17190  1.0000 -0.0136157974
N   N11       1.0  0.15738  0.95183  0.67190  1.0000 -0.0136157974
N   N12       1.0  0.84262  0.04817  0.67190  1.0000 -0.0136157974
N   N13       1.0  0.95183  0.84262  0.32810  1.0000 -0.0136157974
N   N14       1.0  0.04817  0.15738  0.32810  1.0000 -0.0136157974
N   N15       1.0  0.34262  0.54817  0.82810  1.0000 -0.0136157974
N   N16       1.0  0.65738  0.45183  0.82810  1.0000 -0.0136157974
N   N17       1.0  0.88073  0.72950  0.05061  1.0000 -0.3328182895
N   N18       1.0  0.11927  0.27050  0.05061  1.0000 -0.3328182895
N   N19       1.0  0.22950  0.61927  0.55061  1.0000 -0.3328182895
N   N20       1.0  0.77050  0.38073  0.55061  1.0000 -0.3328182895
N   N21       1.0  0.61927  0.77050  0.44939  1.0000 -0.3328182895
N   N22       1.0  0.38073  0.22950  0.44939  1.0000 -0.3328182895
N   N23       1.0  0.27050  0.88073  0.94939  1.0000 -0.3328182895
N   N24       1.0  0.72950  0.11927  0.94939  1.0000 -0.3328182895
N   N25       1.0  0.80931  0.66364  0.09887  1.0000 -0.0223838605
N   N26       1.0  0.19069  0.33636  0.09887  1.0000 -0.0223838605
N   N27       1.0  0.16364  0.69069  0.59887  1.0000 -0.0223838605
N   N28       1.0  0.83636  0.30931  0.59887  1.0000 -0.0223838605
N   N29       1.0  0.69069  0.83636  0.40113  1.0000 -0.0223838605
N   N30       1.0  0.30931  0.16364  0.40113  1.0000 -0.0223838605
N   N31       1.0  0.33636  0.80931  0.90113  1.0000 -0.0223838605
N   N32       1.0  0.66364  0.19069  0.90113  1.0000 -0.0223838605
N   N33       1.0  0.56723  0.71469  0.63748  1.0000 -0.3328182895
N   N34       1.0  0.43277  0.28531  0.63748  1.0000 -0.3328182895
N   N35       1.0  0.21469  0.93277  0.13748  1.0000 -0.3328182895
N   N36       1.0  0.78531  0.06723  0.13748  1.0000 -0.3328182895
N   N37       1.0  0.93277  0.78531  0.86252  1.0000 -0.3328182895
N   N38       1.0  0.06723  0.21469  0.86252  1.0000 -0.3328182895
N   N39       1.0  0.28531  0.56723  0.36252  1.0000 -0.3328182895
N   N40       1.0  0.71469  0.43277  0.36252  1.0000 -0.3328182895
N   N41       1.0  0.63548  0.66803  0.73620  1.0000 -0.0136157974
N   N42       1.0  0.36452  0.33197  0.73620  1.0000 -0.0136157974
N   N43       1.0  0.16803  0.86452  0.23620  1.0000 -0.0136157974
N   N44       1.0  0.83197  0.13548  0.23620  1.0000 -0.0136157974
N   N45       1.0  0.86452  0.83197  0.76380  1.0000 -0.0136157974
N   N46       1.0  0.13548  0.16803  0.76380  1.0000 -0.0136157974
N   N47       1.0  0.33197  0.63548  0.26380  1.0000 -0.0136157974
N   N48       1.0  0.66803  0.36452  0.26380  1.0000 -0.0136157974
Cl  Cl1       1.0  0.47378  0.82201  0.49276  1.0000 -0.6182740584
Cl  Cl2       1.0  0.52622  0.17799  0.49276  1.0000 -0.6182740584
Cl  Cl3       1.0  0.32201  0.02622  0.99276  1.0000 -0.6182740584
Cl  Cl4       1.0  0.67799  0.97378  0.99276  1.0000 -0.6182740584
Cl  Cl5       1.0  0.02622  0.67799  0.00724  1.0000 -0.6182740584
Cl  Cl6       1.0  0.97378  0.32201  0.00724  1.0000 -0.6182740584
Cl  Cl7       1.0  0.17799  0.47378  0.50724  1.0000 -0.6182740584
Cl  Cl8       1.0  0.82201  0.52622  0.50724  1.0000 -0.6182740584
Cl  Cl9       1.0  0.47827  0.62580  0.50118  1.0000 -0.5578008696
Cl  Cl10      1.0  0.52173  0.37420  0.50118  1.0000 -0.5578008696
Cl  Cl11      1.0  0.12580  0.02173  0.00118  1.0000 -0.5578008696
Cl  Cl12      1.0  0.87420  0.97827  0.00118  1.0000 -0.5578008696
Cl  Cl13      1.0  0.02173  0.87420  0.99882  1.0000 -0.5578008696
Cl  Cl14      1.0  0.97827  0.12580  0.99882  1.0000 -0.5578008696
Cl  Cl15      1.0  0.37420  0.47827  0.49882  1.0000 -0.5578008696
Cl  Cl16      1.0  0.62580  0.52173  0.49882  1.0000 -0.5578008696
Cl  Cl17      1.0  0.50000  0.50000  0.68187  1.0000 -0.5383642644
Cl  Cl18      1.0  0.00000  0.00000  0.18187  1.0000 -0.5383642644
Cl  Cl19      1.0  0.00000  0.00000  0.81813  1.0000 -0.5383642644
Cl  Cl20      1.0  0.50000  0.50000  0.31813  1.0000 -0.5383642644
