# DDEC6 charges by PACMAN v1.1 (https://github.com/mtap-research/PACMAN-charge/)
data_2012[Cd][ant]3[ASR]1
_chemical_formula_sum              "Cd6 H48 C72 N4 O28"
_cell_length_a       12.6784
_cell_length_b       13.5433
_cell_length_c       17.1322
_cell_angle_alpha    77.839
_cell_angle_beta     76.404
_cell_angle_gamma    80.614

_symmetry_space_group_name_H-M    "P 1"
_symmetry_Int_Tables_number       1

loop_
  _symmetry_equiv_pos_as_xyz
  'x, y, z'

loop_
  _atom_site_type_symbol
  _atom_site_label
  _atom_site_symmetry_multiplicity
  _atom_site_fract_x
  _atom_site_fract_y
  _atom_site_fract_z
  _atom_site_occupancy
  _atom_site_charge
Cd  Cd1       1.0  0.52168  0.47243  0.26101  1.0000 0.9598806233
Cd  Cd2       1.0  0.47832  0.52757  0.73899  1.0000 0.9598806233
Cd  Cd3       1.0  0.27934  0.75402  0.75882  1.0000 1.0098573298
Cd  Cd4       1.0  0.72066  0.24598  0.24118  1.0000 1.0098573298
Cd  Cd5       1.0  0.28075  0.69941  0.25095  1.0000 1.0862799019
Cd  Cd6       1.0  0.71925  0.30059  0.74905  1.0000 1.0843031735
H   H1        1.0  0.19920  0.32040  0.34220  1.0000 0.1216147317
H   H2        1.0  0.80080  0.67960  0.65780  1.0000 0.1216147317
H   H3        1.0  0.04560  0.25140  0.34220  1.0000 0.1216147317
H   H4        1.0  0.95440  0.74860  0.65780  1.0000 0.1216147317
H   H5        1.0  0.02380  0.43290  0.12770  1.0000 0.1295896016
H   H6        1.0  0.97620  0.56710  0.87230  1.0000 0.1295896016
H   H7        1.0  0.27850  0.45080  0.02850  1.0000 0.1295896016
H   H8        1.0  0.72150  0.54920  0.97150  1.0000 0.1295896016
H   H9        1.0  0.27450  0.74730  0.93040  1.0000 0.1295896016
H   H10       1.0  0.72550  0.25270  0.06960  1.0000 0.1295896016
H   H11       1.0  0.15390  0.78650  0.04680  1.0000 0.1216147317
H   H12       1.0  0.84610  0.21350  0.95320  1.0000 0.1216147317
H   H13       1.0  0.47420  0.29260  0.54980  1.0000 0.1295896016
H   H14       1.0  0.52580  0.70740  0.45020  1.0000 0.1295896016
H   H15       1.0  0.83450  0.14910  0.52710  1.0000 0.1216147317
H   H16       1.0  0.16550  0.85090  0.47290  1.0000 0.1216147317
H   H17       1.0  0.77820  0.25170  0.41570  1.0000 0.1295896016
H   H18       1.0  0.22180  0.74830  0.58430  1.0000 0.1295896016
H   H19       1.0  0.69500  0.97870  0.58620  1.0000 0.1295896016
H   H20       1.0  0.30500  0.02130  0.41380  1.0000 0.1295896016
H   H21       1.0  0.68000  0.88320  0.65590  1.0000 0.1487149701
H   H22       1.0  0.32000  0.11680  0.34410  1.0000 0.1487149701
H   H23       1.0  0.79690  0.90200  0.60410  1.0000 0.1382198423
H   H24       1.0  0.20310  0.09800  0.39590  1.0000 0.1382198423
H   H25       1.0  0.85570  0.91440  0.74550  1.0000 0.1382198423
H   H26       1.0  0.14430  0.08560  0.25450  1.0000 0.1382198423
H   H27       1.0  0.74240  0.87200  0.77620  1.0000 0.1295896016
H   H28       1.0  0.25760  0.12800  0.22380  1.0000 0.1295896016
H   H29       1.0  0.76010  0.97170  0.80170  1.0000 0.1487149701
H   H30       1.0  0.23990  0.02830  0.19830  1.0000 0.1487149701
H   H31       1.0  0.32460  0.22640  0.84680  1.0000 0.1216147317
H   H32       1.0  0.67540  0.77360  0.15320  1.0000 0.1216147317
H   H33       1.0  0.28290  0.06290  0.86360  1.0000 0.1216147317
H   H34       1.0  0.71710  0.93710  0.13640  1.0000 0.1216147317
H   H35       1.0  0.50000  0.02380  0.65860  1.0000 0.1216147317
H   H36       1.0  0.50000  0.97620  0.34140  1.0000 0.1216147317
H   H37       1.0  0.92660  0.67550  0.31240  1.0000 0.1487149701
H   H38       1.0  0.07340  0.32450  0.68760  1.0000 0.1487149701
H   H39       1.0  0.82540  0.66580  0.27780  1.0000 0.1382198423
H   H40       1.0  0.17460  0.33420  0.72220  1.0000 0.1382198423
H   H41       1.0  0.87370  0.76980  0.25820  1.0000 0.1382198423
H   H42       1.0  0.12630  0.23020  0.74180  1.0000 0.1382198423
H   H43       1.0  0.86560  0.70430  0.11260  1.0000 0.1382198423
H   H44       1.0  0.13440  0.29570  0.88740  1.0000 0.1382198423
H   H45       1.0  0.86780  0.59020  0.15640  1.0000 0.1487149701
H   H46       1.0  0.13220  0.40980  0.84360  1.0000 0.1487149701
H   H47       1.0  0.96640  0.62530  0.08700  1.0000 0.1295896016
H   H48       1.0  0.03360  0.37470  0.91300  1.0000 0.1295896016
C   C1        1.0  0.30520  0.46090  0.24040  1.0000 0.5722378895
C   C2        1.0  0.69480  0.53910  0.75960  1.0000 0.5722378895
C   C3        1.0  0.20230  0.42080  0.23770  1.0000 -0.0576373383
C   C4        1.0  0.79770  0.57920  0.76230  1.0000 -0.0576373383
C   C5        1.0  0.16300  0.34410  0.29930  1.0000 -0.1094640053
C   C6        1.0  0.83700  0.65590  0.70070  1.0000 -0.1094640053
C   C7        1.0  0.07180  0.30160  0.29910  1.0000 -0.1292899594
C   C8        1.0  0.92820  0.69840  0.70090  1.0000 -0.1292899594
C   C9        1.0  0.01880  0.33460  0.23360  1.0000 -0.008222415
C   C10       1.0  0.98120  0.66540  0.76640  1.0000 -0.008222415
C   C11       1.0  0.05870  0.41130  0.17140  1.0000 -0.1511753544
C   C12       1.0  0.94130  0.58870  0.82860  1.0000 -0.1511753544
C   C13       1.0  0.14810  0.45680  0.17190  1.0000 0.0420011554
C   C14       1.0  0.85190  0.54320  0.82810  1.0000 0.0420011554
C   C15       1.0  0.91730  0.29230  0.23230  1.0000 0.5429957241
C   C16       1.0  0.08270  0.70770  0.76770  1.0000 0.5429957241
C   C17       1.0  0.18320  0.54120  0.10330  1.0000 0.0568414584
C   C18       1.0  0.81680  0.45880  0.89670  1.0000 0.0568414584
C   C19       1.0  0.25360  0.51840  0.03250  1.0000 -0.1362873733
C   C20       1.0  0.74640  0.48160  0.96750  1.0000 -0.1362873733
C   C21       1.0  0.28790  0.59520  0.96680  1.0000 0.0039766107
C   C22       1.0  0.71210  0.40480  0.03320  1.0000 0.0039766107
C   C23       1.0  0.25110  0.69550  0.97310  1.0000 -0.1011833742
C   C24       1.0  0.74890  0.30450  0.02690  1.0000 -0.0946358859
C   C25       1.0  0.17930  0.71900  0.04300  1.0000 -0.1094640053
C   C26       1.0  0.82070  0.28100  0.95700  1.0000 -0.1094640053
C   C27       1.0  0.14500  0.64190  0.10740  1.0000 -0.0730001375
C   C28       1.0  0.85500  0.35810  0.89260  1.0000 -0.0730001375
C   C29       1.0  0.36510  0.56800  0.89170  1.0000 0.5722378895
C   C30       1.0  0.63490  0.43200  0.10830  1.0000 0.5722378895
C   C31       1.0  0.06970  0.67330  0.18270  1.0000 0.3977009982
C   C32       1.0  0.93030  0.32670  0.81730  1.0000 0.3977009982
C   C33       1.0  0.58310  0.35500  0.40090  1.0000 0.5722378895
C   C34       1.0  0.41690  0.64500  0.59910  1.0000 0.5722378895
C   C35       1.0  0.62030  0.28490  0.47230  1.0000 0.0096724399
C   C36       1.0  0.37970  0.71510  0.52770  1.0000 0.0096724399
C   C37       1.0  0.54620  0.26260  0.54540  1.0000 -0.1292899594
C   C38       1.0  0.45380  0.73740  0.45460  1.0000 -0.1292899594
C   C39       1.0  0.57660  0.19700  0.61190  1.0000 0.0456825488
C   C40       1.0  0.42340  0.80300  0.38810  1.0000 0.0456825488
C   C41       1.0  0.68760  0.15460  0.60480  1.0000 -0.0834412731
C   C42       1.0  0.31240  0.84540  0.39520  1.0000 -0.0834412731
C   C43       1.0  0.76170  0.17690  0.53140  1.0000 -0.1201823286
C   C44       1.0  0.23830  0.82310  0.46860  1.0000 -0.1201823286
C   C45       1.0  0.72860  0.23950  0.46520  1.0000 -0.1011833742
C   C46       1.0  0.27140  0.76050  0.53480  1.0000 -0.1011833742
C   C47       1.0  0.72700  0.09320  0.67740  1.0000 0.3928668231
C   C48       1.0  0.27300  0.90680  0.32260  1.0000 0.3928668231
C   C49       1.0  0.72710  0.93420  0.62820  1.0000 -0.3339870542
C   C50       1.0  0.27290  0.06580  0.37180  1.0000 -0.3339870542
C   C51       1.0  0.77800  0.93260  0.75870  1.0000 -0.307778266
C   C52       1.0  0.22200  0.06740  0.24130  1.0000 -0.307778266
C   C53       1.0  0.45550  0.33310  0.73230  1.0000 0.5722378895
C   C54       1.0  0.54450  0.66690  0.26770  1.0000 0.5722378895
C   C55       1.0  0.43870  0.22350  0.74250  1.0000 -0.0576373383
C   C56       1.0  0.56130  0.77650  0.25750  1.0000 -0.0576373383
C   C57       1.0  0.36000  0.18570  0.80870  1.0000 -0.1201823286
C   C58       1.0  0.64000  0.81430  0.19130  1.0000 -0.1201823286
C   C59       1.0  0.33400  0.08830  0.81820  1.0000 -0.1011833742
C   C60       1.0  0.66600  0.91170  0.18180  1.0000 -0.1011833742
C   C61       1.0  0.38340  0.02870  0.76080  1.0000 -0.008222415
C   C62       1.0  0.61660  0.97130  0.23920  1.0000 -0.008222415
C   C63       1.0  0.46440  0.06540  0.69600  1.0000 -0.1511753544
C   C64       1.0  0.53560  0.93460  0.30400  1.0000 -0.1511753544
C   C65       1.0  0.49330  0.16200  0.68580  1.0000 0.0328205165
C   C66       1.0  0.50670  0.83800  0.31420  1.0000 0.0328205165
C   C67       1.0  0.34500  0.92810  0.76480  1.0000 0.5505906076
C   C68       1.0  0.65500  0.07190  0.23520  1.0000 0.5505906076
C   C69       1.0  0.89120  0.69720  0.26680  1.0000 -0.307778266
C   C70       1.0  0.10880  0.30280  0.73320  1.0000 -0.307778266
C   C71       1.0  0.91140  0.64480  0.13190  1.0000 -0.3413596421
C   C72       1.0  0.08860  0.35520  0.86810  1.0000 -0.3413596421
N   N1        1.0  0.96470  0.66730  0.19340  1.0000 -0.0043566331
N   N2        1.0  0.03530  0.33270  0.80660  1.0000 -0.008222415
N   N3        1.0  0.74140  0.99310  0.68660  1.0000 -0.0167879413
N   N4        1.0  0.25860  0.00690  0.31340  1.0000 -0.0167879413
O   O1        1.0  0.10680  0.70600  0.23200  1.0000 -0.5403736352
O   O2        1.0  0.89320  0.29400  0.76800  1.0000 -0.5403736352
O   O3        1.0  0.32470  0.54810  0.20350  1.0000 -0.5740204006
O   O4        1.0  0.67530  0.45190  0.79650  1.0000 -0.5740204006
O   O5        1.0  0.36800  0.40200  0.28100  1.0000 -0.5084058314
O   O6        1.0  0.63200  0.59800  0.71900  1.0000 -0.5084058314
O   O7        1.0  0.38490  0.88080  0.70500  1.0000 -0.550855117
O   O8        1.0  0.61510  0.11920  0.29500  1.0000 -0.550855117
O   O9        1.0  0.27210  0.89560  0.82280  1.0000 -0.550855117
O   O10       1.0  0.72790  0.10440  0.17720  1.0000 -0.550855117
O   O11       1.0  0.49760  0.41390  0.41110  1.0000 -0.4904568016
O   O12       1.0  0.50240  0.58610  0.58890  1.0000 -0.4904568016
O   O13       1.0  0.64240  0.35250  0.32980  1.0000 -0.5761829882
O   O14       1.0  0.35760  0.64750  0.67020  1.0000 -0.5740204006
O   O15       1.0  0.40450  0.48000  0.88830  1.0000 -0.4904568016
O   O16       1.0  0.59550  0.52000  0.11170  1.0000 -0.4904568016
O   O17       1.0  0.38750  0.63990  0.83020  1.0000 -0.5761829882
O   O18       1.0  0.61250  0.36010  0.16980  1.0000 -0.5761829882
O   O19       1.0  0.88540  0.21890  0.28630  1.0000 -0.550855117
O   O20       1.0  0.11460  0.78110  0.71370  1.0000 -0.550855117
O   O21       1.0  0.86620  0.33430  0.17750  1.0000 -0.5296855837
O   O22       1.0  0.13380  0.66570  0.82250  1.0000 -0.5296855837
O   O23       1.0  0.55220  0.35750  0.71360  1.0000 -0.5740204006
O   O24       1.0  0.44780  0.64250  0.28640  1.0000 -0.5740204006
O   O25       1.0  0.37510  0.39690  0.74300  1.0000 -0.4825371772
O   O26       1.0  0.62490  0.60310  0.25700  1.0000 -0.4825371772
O   O27       1.0  0.74630  0.13660  0.72900  1.0000 -0.5403736352
O   O28       1.0  0.25370  0.86340  0.27100  1.0000 -0.5403736352
