# DDEC6 charges by PACMAN v1.1 (https://github.com/mtap-research/PACMAN-charge/)
data_2012[Zn][pcu]3[ASR]14
_chemical_formula_sum              "Zn16 H192 C216 O52"
_cell_length_a       25.1354
_cell_length_b       25.1354
_cell_length_c       25.1354
_cell_angle_alpha    53.7751
_cell_angle_beta     53.7751
_cell_angle_gamma    53.7751

_symmetry_space_group_name_H-M    "P 1"
_symmetry_Int_Tables_number       1

loop_
  _symmetry_equiv_pos_as_xyz
  'x, y, z'

loop_
  _atom_site_type_symbol
  _atom_site_label
  _atom_site_symmetry_multiplicity
  _atom_site_fract_x
  _atom_site_fract_y
  _atom_site_fract_z
  _atom_site_occupancy
  _atom_site_charge
Zn  Zn1       1.0  0.45147  0.45147  0.45147  1.0000 0.9361938344
Zn  Zn2       1.0  0.95147  0.95147  0.95147  1.0000 0.9361938344
Zn  Zn3       1.0  0.47274  0.31972  0.44468  1.0000 0.9667322344
Zn  Zn4       1.0  0.44468  0.47274  0.31972  1.0000 0.9667322344
Zn  Zn5       1.0  0.31972  0.44468  0.47274  1.0000 0.9667322344
Zn  Zn6       1.0  0.97274  0.94468  0.81972  1.0000 0.9667322344
Zn  Zn7       1.0  0.94468  0.81972  0.97274  1.0000 0.9667322344
Zn  Zn8       1.0  0.81972  0.97274  0.94468  1.0000 0.9667322344
Zn  Zn9       1.0  0.04853  0.04853  0.04853  1.0000 0.9361938344
Zn  Zn10      1.0  0.54853  0.54853  0.54853  1.0000 0.9361938344
Zn  Zn11      1.0  0.02726  0.05532  0.18028  1.0000 0.9667322344
Zn  Zn12      1.0  0.05532  0.18028  0.02726  1.0000 0.9667322344
Zn  Zn13      1.0  0.18028  0.02726  0.05532  1.0000 0.9667322344
Zn  Zn14      1.0  0.52726  0.68028  0.55532  1.0000 0.9667322344
Zn  Zn15      1.0  0.55532  0.52726  0.68028  1.0000 0.9667322344
Zn  Zn16      1.0  0.68028  0.55532  0.52726  1.0000 0.9667322344
H   H1        1.0  0.62140  0.17690  0.55140  1.0000 0.1307927373
H   H2        1.0  0.55140  0.62140  0.17690  1.0000 0.1307927373
H   H3        1.0  0.17690  0.55140  0.62140  1.0000 0.1307927373
H   H4        1.0  0.12140  0.05140  0.67690  1.0000 0.1307927373
H   H5        1.0  0.05140  0.67690  0.12140  1.0000 0.1307927373
H   H6        1.0  0.67690  0.12140  0.05140  1.0000 0.1307927373
H   H7        1.0  0.61760  0.35860  0.51150  1.0000 0.1397505018
H   H8        1.0  0.51150  0.61760  0.35860  1.0000 0.1397505018
H   H9        1.0  0.35860  0.51150  0.61760  1.0000 0.1397505018
H   H10       1.0  0.11760  0.01150  0.85860  1.0000 0.1397505018
H   H11       1.0  0.01150  0.85860  0.11760  1.0000 0.1397505018
H   H12       1.0  0.85860  0.11760  0.01150  1.0000 0.1397505018
H   H13       1.0  0.74720  0.06270  0.63190  1.0000 0.1228699809
H   H14       1.0  0.63190  0.74720  0.06270  1.0000 0.1228699809
H   H15       1.0  0.06270  0.63190  0.74720  1.0000 0.1228699809
H   H16       1.0  0.24720  0.13190  0.56270  1.0000 0.1228699809
H   H17       1.0  0.13190  0.56270  0.24720  1.0000 0.1228699809
H   H18       1.0  0.56270  0.24720  0.13190  1.0000 0.1228699809
H   H19       1.0  0.66790  0.06850  0.67660  1.0000 0.1307927373
H   H20       1.0  0.67660  0.66790  0.06850  1.0000 0.1307927373
H   H21       1.0  0.06850  0.67660  0.66790  1.0000 0.1307927373
H   H22       1.0  0.16790  0.17660  0.56850  1.0000 0.1307927373
H   H23       1.0  0.17660  0.56850  0.16790  1.0000 0.1307927373
H   H24       1.0  0.56850  0.16790  0.17660  1.0000 0.1307927373
H   H25       1.0  0.70640  0.06480  0.60130  1.0000 0.1307927373
H   H26       1.0  0.60130  0.70640  0.06480  1.0000 0.1307927373
H   H27       1.0  0.06480  0.60130  0.70640  1.0000 0.1307927373
H   H28       1.0  0.20640  0.10130  0.56480  1.0000 0.1307927373
H   H29       1.0  0.10130  0.56480  0.20640  1.0000 0.1307927373
H   H30       1.0  0.56480  0.20640  0.10130  1.0000 0.1307927373
H   H31       1.0  0.66370  0.35960  0.57180  1.0000 0.1397505018
H   H32       1.0  0.57180  0.66370  0.35960  1.0000 0.1397505018
H   H33       1.0  0.35960  0.57180  0.66370  1.0000 0.1397505018
H   H34       1.0  0.16370  0.07180  0.85960  1.0000 0.1397505018
H   H35       1.0  0.07180  0.85960  0.16370  1.0000 0.1397505018
H   H36       1.0  0.85960  0.16370  0.07180  1.0000 0.1397505018
H   H37       1.0  0.70330  0.28830  0.62090  1.0000 0.1397505018
H   H38       1.0  0.62090  0.70330  0.28830  1.0000 0.1397505018
H   H39       1.0  0.28830  0.62090  0.70330  1.0000 0.1397505018
H   H40       1.0  0.20330  0.12090  0.78830  1.0000 0.1397505018
H   H41       1.0  0.12090  0.78830  0.20330  1.0000 0.1397505018
H   H42       1.0  0.78830  0.20330  0.12090  1.0000 0.1397505018
H   H43       1.0  0.74370  0.31490  0.53830  1.0000 0.1463143335
H   H44       1.0  0.53830  0.74370  0.31490  1.0000 0.1463143335
H   H45       1.0  0.31490  0.53830  0.74370  1.0000 0.1463143335
H   H46       1.0  0.24370  0.03830  0.81490  1.0000 0.1463143335
H   H47       1.0  0.03830  0.81490  0.24370  1.0000 0.1463143335
H   H48       1.0  0.81490  0.24370  0.03830  1.0000 0.1463143335
H   H49       1.0  0.70540  0.10390  0.81610  1.0000 0.1307927373
H   H50       1.0  0.81610  0.70540  0.10390  1.0000 0.1307927373
H   H51       1.0  0.10390  0.81610  0.70540  1.0000 0.1307927373
H   H52       1.0  0.20540  0.31610  0.60390  1.0000 0.1307927373
H   H53       1.0  0.31610  0.60390  0.20540  1.0000 0.1307927373
H   H54       1.0  0.60390  0.20540  0.31610  1.0000 0.1307927373
H   H55       1.0  0.89480  0.07540  0.65550  1.0000 0.1307927373
H   H56       1.0  0.65550  0.89480  0.07540  1.0000 0.1307927373
H   H57       1.0  0.07540  0.65550  0.89480  1.0000 0.1307927373
H   H58       1.0  0.39480  0.15550  0.57540  1.0000 0.1307927373
H   H59       1.0  0.15550  0.57540  0.39480  1.0000 0.1307927373
H   H60       1.0  0.57540  0.39480  0.15550  1.0000 0.1307927373
H   H61       1.0  0.59980  0.15500  0.74910  1.0000 0.1397505018
H   H62       1.0  0.74910  0.59980  0.15500  1.0000 0.1397505018
H   H63       1.0  0.15500  0.74910  0.59980  1.0000 0.1397505018
H   H64       1.0  0.09980  0.24910  0.65500  1.0000 0.1397505018
H   H65       1.0  0.24910  0.65500  0.09980  1.0000 0.1397505018
H   H66       1.0  0.65500  0.09980  0.24910  1.0000 0.1397505018
H   H67       1.0  0.59940  0.22870  0.72470  1.0000 0.1397505018
H   H68       1.0  0.72470  0.59940  0.22870  1.0000 0.1397505018
H   H69       1.0  0.22870  0.72470  0.59940  1.0000 0.1397505018
H   H70       1.0  0.09940  0.22470  0.72870  1.0000 0.1397505018
H   H71       1.0  0.22470  0.72870  0.09940  1.0000 0.1397505018
H   H72       1.0  0.72870  0.09940  0.22470  1.0000 0.1397505018
H   H73       1.0  0.59840  0.17190  0.80080  1.0000 0.1397505018
H   H74       1.0  0.80080  0.59840  0.17190  1.0000 0.1397505018
H   H75       1.0  0.17190  0.80080  0.59840  1.0000 0.1397505018
H   H76       1.0  0.09840  0.30080  0.67190  1.0000 0.1397505018
H   H77       1.0  0.30080  0.67190  0.09840  1.0000 0.1397505018
H   H78       1.0  0.67190  0.09840  0.30080  1.0000 0.1397505018
H   H79       1.0  0.86750  0.10460  0.53750  1.0000 0.1397505018
H   H80       1.0  0.53750  0.86750  0.10460  1.0000 0.1397505018
H   H81       1.0  0.10460  0.53750  0.86750  1.0000 0.1397505018
H   H82       1.0  0.36750  0.03750  0.60460  1.0000 0.1397505018
H   H83       1.0  0.03750  0.60460  0.36750  1.0000 0.1397505018
H   H84       1.0  0.60460  0.36750  0.03750  1.0000 0.1397505018
H   H85       1.0  0.89670  0.14740  0.53420  1.0000 0.1397505018
H   H86       1.0  0.53420  0.89670  0.14740  1.0000 0.1397505018
H   H87       1.0  0.14740  0.53420  0.89670  1.0000 0.1397505018
H   H88       1.0  0.39670  0.03420  0.64740  1.0000 0.1397505018
H   H89       1.0  0.03420  0.64740  0.39670  1.0000 0.1397505018
H   H90       1.0  0.64740  0.39670  0.03420  1.0000 0.1397505018
H   H91       1.0  0.82740  0.18670  0.51920  1.0000 0.1307927373
H   H92       1.0  0.51920  0.82740  0.18670  1.0000 0.1307927373
H   H93       1.0  0.18670  0.51920  0.82740  1.0000 0.1307927373
H   H94       1.0  0.32740  0.01920  0.68670  1.0000 0.1307927373
H   H95       1.0  0.01920  0.68670  0.32740  1.0000 0.1307927373
H   H96       1.0  0.68670  0.32740  0.01920  1.0000 0.1307927373
H   H97       1.0  0.87860  0.94860  0.32310  1.0000 0.1307927373
H   H98       1.0  0.94860  0.32310  0.87860  1.0000 0.1307927373
H   H99       1.0  0.32310  0.87860  0.94860  1.0000 0.1307927373
H   H100      1.0  0.37860  0.82310  0.44860  1.0000 0.1307927373
H   H101      1.0  0.44860  0.37860  0.82310  1.0000 0.1307927373
H   H102      1.0  0.82310  0.44860  0.37860  1.0000 0.1307927373
H   H103      1.0  0.88240  0.98850  0.14140  1.0000 0.1397505018
H   H104      1.0  0.98850  0.14140  0.88240  1.0000 0.1397505018
H   H105      1.0  0.14140  0.88240  0.98850  1.0000 0.1397505018
H   H106      1.0  0.38240  0.64140  0.48850  1.0000 0.1397505018
H   H107      1.0  0.48850  0.38240  0.64140  1.0000 0.1397505018
H   H108      1.0  0.64140  0.48850  0.38240  1.0000 0.1397505018
H   H109      1.0  0.75280  0.86810  0.43730  1.0000 0.1228699809
H   H110      1.0  0.86810  0.43730  0.75280  1.0000 0.1228699809
H   H111      1.0  0.43730  0.75280  0.86810  1.0000 0.1228699809
H   H112      1.0  0.25280  0.93730  0.36810  1.0000 0.1228699809
H   H113      1.0  0.36810  0.25280  0.93730  1.0000 0.1228699809
H   H114      1.0  0.93730  0.36810  0.25280  1.0000 0.1228699809
H   H115      1.0  0.83210  0.82340  0.43150  1.0000 0.1307927373
H   H116      1.0  0.82340  0.43150  0.83210  1.0000 0.1307927373
H   H117      1.0  0.43150  0.83210  0.82340  1.0000 0.1307927373
H   H118      1.0  0.33210  0.93150  0.32340  1.0000 0.1307927373
H   H119      1.0  0.32340  0.33210  0.93150  1.0000 0.1307927373
H   H120      1.0  0.93150  0.32340  0.33210  1.0000 0.1307927373
H   H121      1.0  0.79360  0.89870  0.43520  1.0000 0.1307927373
H   H122      1.0  0.89870  0.43520  0.79360  1.0000 0.1307927373
H   H123      1.0  0.43520  0.79360  0.89870  1.0000 0.1307927373
H   H124      1.0  0.29360  0.93520  0.39870  1.0000 0.1307927373
H   H125      1.0  0.39870  0.29360  0.93520  1.0000 0.1307927373
H   H126      1.0  0.93520  0.39870  0.29360  1.0000 0.1307927373
H   H127      1.0  0.83630  0.92820  0.14040  1.0000 0.1397505018
H   H128      1.0  0.92820  0.14040  0.83630  1.0000 0.1397505018
H   H129      1.0  0.14040  0.83630  0.92820  1.0000 0.1397505018
H   H130      1.0  0.33630  0.64040  0.42820  1.0000 0.1397505018
H   H131      1.0  0.42820  0.33630  0.64040  1.0000 0.1397505018
H   H132      1.0  0.64040  0.42820  0.33630  1.0000 0.1397505018
H   H133      1.0  0.79670  0.87910  0.21170  1.0000 0.1397505018
H   H134      1.0  0.87910  0.21170  0.79670  1.0000 0.1397505018
H   H135      1.0  0.21170  0.79670  0.87910  1.0000 0.1397505018
H   H136      1.0  0.29670  0.71170  0.37910  1.0000 0.1397505018
H   H137      1.0  0.37910  0.29670  0.71170  1.0000 0.1397505018
H   H138      1.0  0.71170  0.37910  0.29670  1.0000 0.1397505018
H   H139      1.0  0.75630  0.96170  0.18510  1.0000 0.1463143335
H   H140      1.0  0.96170  0.18510  0.75630  1.0000 0.1463143335
H   H141      1.0  0.18510  0.75630  0.96170  1.0000 0.1463143335
H   H142      1.0  0.25630  0.68510  0.46170  1.0000 0.1463143335
H   H143      1.0  0.46170  0.25630  0.68510  1.0000 0.1463143335
H   H144      1.0  0.68510  0.46170  0.25630  1.0000 0.1463143335
H   H145      1.0  0.79460  0.68390  0.39610  1.0000 0.1307927373
H   H146      1.0  0.68390  0.39610  0.79460  1.0000 0.1307927373
H   H147      1.0  0.39610  0.79460  0.68390  1.0000 0.1307927373
H   H148      1.0  0.29460  0.89610  0.18390  1.0000 0.1307927373
H   H149      1.0  0.18390  0.29460  0.89610  1.0000 0.1307927373
H   H150      1.0  0.89610  0.18390  0.29460  1.0000 0.1307927373
H   H151      1.0  0.60520  0.84450  0.42460  1.0000 0.1307927373
H   H152      1.0  0.84450  0.42460  0.60520  1.0000 0.1307927373
H   H153      1.0  0.42460  0.60520  0.84450  1.0000 0.1307927373
H   H154      1.0  0.10520  0.92460  0.34450  1.0000 0.1307927373
H   H155      1.0  0.34450  0.10520  0.92460  1.0000 0.1307927373
H   H156      1.0  0.92460  0.34450  0.10520  1.0000 0.1307927373
H   H157      1.0  0.90020  0.75090  0.34500  1.0000 0.1397505018
H   H158      1.0  0.75090  0.34500  0.90020  1.0000 0.1397505018
H   H159      1.0  0.34500  0.90020  0.75090  1.0000 0.1397505018
H   H160      1.0  0.40020  0.84500  0.25090  1.0000 0.1397505018
H   H161      1.0  0.25090  0.40020  0.84500  1.0000 0.1397505018
H   H162      1.0  0.84500  0.25090  0.40020  1.0000 0.1397505018
H   H163      1.0  0.90060  0.77530  0.27130  1.0000 0.1397505018
H   H164      1.0  0.77530  0.27130  0.90060  1.0000 0.1397505018
H   H165      1.0  0.27130  0.90060  0.77530  1.0000 0.1397505018
H   H166      1.0  0.40060  0.77130  0.27530  1.0000 0.1397505018
H   H167      1.0  0.27530  0.40060  0.77130  1.0000 0.1397505018
H   H168      1.0  0.77130  0.27530  0.40060  1.0000 0.1397505018
H   H169      1.0  0.90160  0.69920  0.32810  1.0000 0.1397505018
H   H170      1.0  0.69920  0.32810  0.90160  1.0000 0.1397505018
H   H171      1.0  0.32810  0.90160  0.69920  1.0000 0.1397505018
H   H172      1.0  0.40160  0.82810  0.19920  1.0000 0.1397505018
H   H173      1.0  0.19920  0.40160  0.82810  1.0000 0.1397505018
H   H174      1.0  0.82810  0.19920  0.40160  1.0000 0.1397505018
H   H175      1.0  0.63250  0.96250  0.39540  1.0000 0.1397505018
H   H176      1.0  0.96250  0.39540  0.63250  1.0000 0.1397505018
H   H177      1.0  0.39540  0.63250  0.96250  1.0000 0.1397505018
H   H178      1.0  0.13250  0.89540  0.46250  1.0000 0.1397505018
H   H179      1.0  0.46250  0.13250  0.89540  1.0000 0.1397505018
H   H180      1.0  0.89540  0.46250  0.13250  1.0000 0.1397505018
H   H181      1.0  0.60330  0.96580  0.35260  1.0000 0.1397505018
H   H182      1.0  0.96580  0.35260  0.60330  1.0000 0.1397505018
H   H183      1.0  0.35260  0.60330  0.96580  1.0000 0.1397505018
H   H184      1.0  0.10330  0.85260  0.46580  1.0000 0.1397505018
H   H185      1.0  0.46580  0.10330  0.85260  1.0000 0.1397505018
H   H186      1.0  0.85260  0.46580  0.10330  1.0000 0.1397505018
H   H187      1.0  0.67260  0.98080  0.31330  1.0000 0.1307927373
H   H188      1.0  0.98080  0.31330  0.67260  1.0000 0.1307927373
H   H189      1.0  0.31330  0.67260  0.98080  1.0000 0.1307927373
H   H190      1.0  0.17260  0.81330  0.48080  1.0000 0.1307927373
H   H191      1.0  0.48080  0.17260  0.81330  1.0000 0.1307927373
H   H192      1.0  0.81330  0.48080  0.17260  1.0000 0.1307927373
C   C1        1.0  0.55926  0.31546  0.49226  1.0000 0.5925682491
C   C2        1.0  0.49226  0.55926  0.31546  1.0000 0.5925682491
C   C3        1.0  0.31546  0.49226  0.55926  1.0000 0.5925682491
C   C4        1.0  0.05926  0.99226  0.81546  1.0000 0.5925682491
C   C5        1.0  0.99226  0.81546  0.05926  1.0000 0.5925682491
C   C6        1.0  0.81546  0.05926  0.99226  1.0000 0.5925682491
C   C7        1.0  0.61095  0.27455  0.52705  1.0000 -0.0382924037
C   C8        1.0  0.52705  0.61095  0.27455  1.0000 -0.0382924037
C   C9        1.0  0.27455  0.52705  0.61095  1.0000 -0.0382924037
C   C10       1.0  0.11095  0.02705  0.77455  1.0000 -0.0382924037
C   C11       1.0  0.02705  0.77455  0.11095  1.0000 -0.0382924037
C   C12       1.0  0.77455  0.11095  0.02705  1.0000 -0.0382924037
C   C13       1.0  0.63420  0.20080  0.55700  1.0000 -0.1826547514
C   C14       1.0  0.55700  0.63420  0.20080  1.0000 -0.1826547514
C   C15       1.0  0.20080  0.55700  0.63420  1.0000 -0.1826547514
C   C16       1.0  0.13420  0.05700  0.70080  1.0000 -0.1826547514
C   C17       1.0  0.05700  0.70080  0.13420  1.0000 -0.1826547514
C   C18       1.0  0.70080  0.13420  0.05700  1.0000 -0.1826547514
C   C19       1.0  0.67705  0.16335  0.59555  1.0000 0.1121648616
C   C20       1.0  0.59555  0.67705  0.16335  1.0000 0.1121648616
C   C21       1.0  0.16335  0.59555  0.67705  1.0000 0.1121648616
C   C22       1.0  0.17705  0.09555  0.66335  1.0000 0.1121648616
C   C23       1.0  0.09555  0.66335  0.17705  1.0000 0.1121648616
C   C24       1.0  0.66335  0.17705  0.09555  1.0000 0.1121648616
C   C25       1.0  0.69720  0.19780  0.60320  1.0000 -0.0382924037
C   C26       1.0  0.60320  0.69720  0.19780  1.0000 -0.0382924037
C   C27       1.0  0.19780  0.60320  0.69720  1.0000 -0.0382924037
C   C28       1.0  0.19720  0.10320  0.69780  1.0000 -0.0382924037
C   C29       1.0  0.10320  0.69780  0.19720  1.0000 -0.0382924037
C   C30       1.0  0.69780  0.19720  0.10320  1.0000 -0.0382924037
C   C31       1.0  0.67612  0.27232  0.57052  1.0000 0.1307927373
C   C32       1.0  0.57052  0.67612  0.27232  1.0000 0.1307927373
C   C33       1.0  0.27232  0.57052  0.67612  1.0000 0.1307927373
C   C34       1.0  0.17612  0.07052  0.77232  1.0000 0.1307927373
C   C35       1.0  0.07052  0.77232  0.17612  1.0000 0.1307927373
C   C36       1.0  0.77232  0.17612  0.07052  1.0000 0.1307927373
C   C37       1.0  0.63252  0.30942  0.53292  1.0000 -0.1729105307
C   C38       1.0  0.53292  0.63252  0.30942  1.0000 -0.1729105307
C   C39       1.0  0.30942  0.53292  0.63252  1.0000 -0.1729105307
C   C40       1.0  0.13252  0.03292  0.80942  1.0000 -0.1729105307
C   C41       1.0  0.03292  0.80942  0.13252  1.0000 -0.1729105307
C   C42       1.0  0.80942  0.13252  0.03292  1.0000 -0.1729105307
C   C43       1.0  0.70204  0.08224  0.62944  1.0000 -0.4210246323
C   C44       1.0  0.62944  0.70204  0.08224  1.0000 -0.4210246323
C   C45       1.0  0.08224  0.62944  0.70204  1.0000 -0.4210246323
C   C46       1.0  0.20204  0.12944  0.58224  1.0000 -0.4210246323
C   C47       1.0  0.12944  0.58224  0.20204  1.0000 -0.4210246323
C   C48       1.0  0.58224  0.20204  0.12944  1.0000 -0.4210246323
C   C49       1.0  0.69880  0.31240  0.57580  1.0000 -0.4515618167
C   C50       1.0  0.57580  0.69880  0.31240  1.0000 -0.4515618167
C   C51       1.0  0.31240  0.57580  0.69880  1.0000 -0.4515618167
C   C52       1.0  0.19880  0.07580  0.81240  1.0000 -0.4515618167
C   C53       1.0  0.07580  0.81240  0.19880  1.0000 -0.4515618167
C   C54       1.0  0.81240  0.19880  0.07580  1.0000 -0.4515618167
C   C55       1.0  0.84230  0.04430  0.79460  1.0000 0.6075848
C   C56       1.0  0.79460  0.84230  0.04430  1.0000 0.6075848
C   C57       1.0  0.04430  0.79460  0.84230  1.0000 0.6075848
C   C58       1.0  0.34230  0.29460  0.54430  1.0000 0.6075848
C   C59       1.0  0.29460  0.54430  0.34230  1.0000 0.6075848
C   C60       1.0  0.54430  0.34230  0.29460  1.0000 0.6075848
C   C61       1.0  0.80431  0.08551  0.74401  1.0000 -0.0183805576
C   C62       1.0  0.74401  0.80431  0.08551  1.0000 -0.0183805576
C   C63       1.0  0.08551  0.74401  0.80431  1.0000 -0.0183805576
C   C64       1.0  0.30431  0.24401  0.58551  1.0000 -0.0183805576
C   C65       1.0  0.24401  0.58551  0.30431  1.0000 -0.0183805576
C   C66       1.0  0.58551  0.30431  0.24401  1.0000 -0.0183805576
C   C67       1.0  0.73169  0.11159  0.76799  1.0000 -0.1579604776
C   C68       1.0  0.76799  0.73169  0.11159  1.0000 -0.1579604776
C   C69       1.0  0.11159  0.76799  0.73169  1.0000 -0.1579604776
C   C70       1.0  0.23169  0.26799  0.61159  1.0000 -0.1579604776
C   C71       1.0  0.26799  0.61159  0.23169  1.0000 -0.1579604776
C   C72       1.0  0.61159  0.23169  0.26799  1.0000 -0.1579604776
C   C73       1.0  0.69714  0.14864  0.72304  1.0000 0.1121648616
C   C74       1.0  0.72304  0.69714  0.14864  1.0000 0.1121648616
C   C75       1.0  0.14864  0.72304  0.69714  1.0000 0.1121648616
C   C76       1.0  0.19714  0.22304  0.64864  1.0000 0.1121648616
C   C77       1.0  0.22304  0.64864  0.19714  1.0000 0.1121648616
C   C78       1.0  0.64864  0.19714  0.22304  1.0000 0.1121648616
C   C79       1.0  0.73523  0.15823  0.65253  1.0000 -0.0382924037
C   C80       1.0  0.65253  0.73523  0.15823  1.0000 -0.0382924037
C   C81       1.0  0.15823  0.65253  0.73523  1.0000 -0.0382924037
C   C82       1.0  0.23523  0.15253  0.65823  1.0000 -0.0382924037
C   C83       1.0  0.15253  0.65823  0.23523  1.0000 -0.0382924037
C   C84       1.0  0.65823  0.23523  0.15253  1.0000 -0.0382924037
C   C85       1.0  0.80971  0.13031  0.62631  1.0000 0.1307927373
C   C86       1.0  0.62631  0.80971  0.13031  1.0000 0.1307927373
C   C87       1.0  0.13031  0.62631  0.80971  1.0000 0.1307927373
C   C88       1.0  0.30971  0.12631  0.63031  1.0000 0.1307927373
C   C89       1.0  0.12631  0.63031  0.30971  1.0000 0.1307927373
C   C90       1.0  0.63031  0.30971  0.12631  1.0000 0.1307927373
C   C91       1.0  0.84547  0.09367  0.67207  1.0000 -0.1861602595
C   C92       1.0  0.67207  0.84547  0.09367  1.0000 -0.1861602595
C   C93       1.0  0.09367  0.67207  0.84547  1.0000 -0.1861602595
C   C94       1.0  0.34547  0.17207  0.59367  1.0000 -0.1861602595
C   C95       1.0  0.17207  0.59367  0.34547  1.0000 -0.1861602595
C   C96       1.0  0.59367  0.34547  0.17207  1.0000 -0.1861602595
C   C97       1.0  0.61619  0.17879  0.75209  1.0000 -0.4515618167
C   C98       1.0  0.75209  0.61619  0.17879  1.0000 -0.4515618167
C   C99       1.0  0.17879  0.75209  0.61619  1.0000 -0.4515618167
C   C100      1.0  0.11619  0.25209  0.67879  1.0000 -0.4515618167
C   C101      1.0  0.25209  0.67879  0.11619  1.0000 -0.4515618167
C   C102      1.0  0.67879  0.11619  0.25209  1.0000 -0.4515618167
C   C103      1.0  0.85453  0.14343  0.54683  1.0000 -0.4408481487
C   C104      1.0  0.54683  0.85453  0.14343  1.0000 -0.4408481487
C   C105      1.0  0.14343  0.54683  0.85453  1.0000 -0.4408481487
C   C106      1.0  0.35453  0.04683  0.64343  1.0000 -0.4408481487
C   C107      1.0  0.04683  0.64343  0.35453  1.0000 -0.4408481487
C   C108      1.0  0.64343  0.35453  0.04683  1.0000 -0.4408481487
C   C109      1.0  0.94074  0.00774  0.18454  1.0000 0.5925682491
C   C110      1.0  0.00774  0.18454  0.94074  1.0000 0.5925682491
C   C111      1.0  0.18454  0.94074  0.00774  1.0000 0.5925682491
C   C112      1.0  0.44074  0.68454  0.50774  1.0000 0.5925682491
C   C113      1.0  0.50774  0.44074  0.68454  1.0000 0.5925682491
C   C114      1.0  0.68454  0.50774  0.44074  1.0000 0.5925682491
C   C115      1.0  0.88905  0.97295  0.22545  1.0000 -0.0382924037
C   C116      1.0  0.97295  0.22545  0.88905  1.0000 -0.0382924037
C   C117      1.0  0.22545  0.88905  0.97295  1.0000 -0.0382924037
C   C118      1.0  0.38905  0.72545  0.47295  1.0000 -0.0382924037
C   C119      1.0  0.47295  0.38905  0.72545  1.0000 -0.0382924037
C   C120      1.0  0.72545  0.47295  0.38905  1.0000 -0.0382924037
C   C121      1.0  0.86580  0.94300  0.29920  1.0000 -0.1826547514
C   C122      1.0  0.94300  0.29920  0.86580  1.0000 -0.1826547514
C   C123      1.0  0.29920  0.86580  0.94300  1.0000 -0.1826547514
C   C124      1.0  0.36580  0.79920  0.44300  1.0000 -0.1826547514
C   C125      1.0  0.44300  0.36580  0.79920  1.0000 -0.1826547514
C   C126      1.0  0.79920  0.44300  0.36580  1.0000 -0.1826547514
C   C127      1.0  0.82295  0.90445  0.33665  1.0000 0.1121648616
C   C128      1.0  0.90445  0.33665  0.82295  1.0000 0.1121648616
C   C129      1.0  0.33665  0.82295  0.90445  1.0000 0.1121648616
C   C130      1.0  0.32295  0.83665  0.40445  1.0000 0.1121648616
C   C131      1.0  0.40445  0.32295  0.83665  1.0000 0.1121648616
C   C132      1.0  0.83665  0.40445  0.32295  1.0000 0.1121648616
C   C133      1.0  0.80280  0.89680  0.30220  1.0000 -0.0382924037
C   C134      1.0  0.89680  0.30220  0.80280  1.0000 -0.0382924037
C   C135      1.0  0.30220  0.80280  0.89680  1.0000 -0.0382924037
C   C136      1.0  0.30280  0.80220  0.39680  1.0000 -0.0382924037
C   C137      1.0  0.39680  0.30280  0.80220  1.0000 -0.0382924037
C   C138      1.0  0.80220  0.39680  0.30280  1.0000 -0.0382924037
C   C139      1.0  0.82388  0.92948  0.22768  1.0000 0.1307927373
C   C140      1.0  0.92948  0.22768  0.82388  1.0000 0.1307927373
C   C141      1.0  0.22768  0.82388  0.92948  1.0000 0.1307927373
C   C142      1.0  0.32388  0.72768  0.42948  1.0000 0.1307927373
C   C143      1.0  0.42948  0.32388  0.72768  1.0000 0.1307927373
C   C144      1.0  0.72768  0.42948  0.32388  1.0000 0.1307927373
C   C145      1.0  0.86748  0.96708  0.19058  1.0000 -0.1729105307
C   C146      1.0  0.96708  0.19058  0.86748  1.0000 -0.1729105307
C   C147      1.0  0.19058  0.86748  0.96708  1.0000 -0.1729105307
C   C148      1.0  0.36748  0.69058  0.46708  1.0000 -0.1729105307
C   C149      1.0  0.46708  0.36748  0.69058  1.0000 -0.1729105307
C   C150      1.0  0.69058  0.46708  0.36748  1.0000 -0.1729105307
C   C151      1.0  0.79796  0.87056  0.41776  1.0000 -0.4210246323
C   C152      1.0  0.87056  0.41776  0.79796  1.0000 -0.4210246323
C   C153      1.0  0.41776  0.79796  0.87056  1.0000 -0.4210246323
C   C154      1.0  0.29796  0.91776  0.37056  1.0000 -0.4210246323
C   C155      1.0  0.37056  0.29796  0.91776  1.0000 -0.4210246323
C   C156      1.0  0.91776  0.37056  0.29796  1.0000 -0.4210246323
C   C157      1.0  0.80120  0.92420  0.18760  1.0000 -0.4515618167
C   C158      1.0  0.92420  0.18760  0.80120  1.0000 -0.4515618167
C   C159      1.0  0.18760  0.80120  0.92420  1.0000 -0.4515618167
C   C160      1.0  0.30120  0.68760  0.42420  1.0000 -0.4515618167
C   C161      1.0  0.42420  0.30120  0.68760  1.0000 -0.4515618167
C   C162      1.0  0.68760  0.42420  0.30120  1.0000 -0.4515618167
C   C163      1.0  0.65770  0.70540  0.45570  1.0000 0.6075848
C   C164      1.0  0.70540  0.45570  0.65770  1.0000 0.6075848
C   C165      1.0  0.45570  0.65770  0.70540  1.0000 0.6075848
C   C166      1.0  0.15770  0.95570  0.20540  1.0000 0.6075848
C   C167      1.0  0.20540  0.15770  0.95570  1.0000 0.6075848
C   C168      1.0  0.95570  0.20540  0.15770  1.0000 0.6075848
C   C169      1.0  0.69569  0.75599  0.41449  1.0000 -0.0183805576
C   C170      1.0  0.75599  0.41449  0.69569  1.0000 -0.0183805576
C   C171      1.0  0.41449  0.69569  0.75599  1.0000 -0.0183805576
C   C172      1.0  0.19569  0.91449  0.25599  1.0000 -0.0183805576
C   C173      1.0  0.25599  0.19569  0.91449  1.0000 -0.0183805576
C   C174      1.0  0.91449  0.25599  0.19569  1.0000 -0.0183805576
C   C175      1.0  0.76831  0.73201  0.38841  1.0000 -0.1579604776
C   C176      1.0  0.73201  0.38841  0.76831  1.0000 -0.1579604776
C   C177      1.0  0.38841  0.76831  0.73201  1.0000 -0.1579604776
C   C178      1.0  0.26831  0.88841  0.23201  1.0000 -0.1579604776
C   C179      1.0  0.23201  0.26831  0.88841  1.0000 -0.1579604776
C   C180      1.0  0.88841  0.23201  0.26831  1.0000 -0.1579604776
C   C181      1.0  0.80286  0.77696  0.35136  1.0000 0.1121648616
C   C182      1.0  0.77696  0.35136  0.80286  1.0000 0.1121648616
C   C183      1.0  0.35136  0.80286  0.77696  1.0000 0.1121648616
C   C184      1.0  0.30286  0.85136  0.27696  1.0000 0.1121648616
C   C185      1.0  0.27696  0.30286  0.85136  1.0000 0.1121648616
C   C186      1.0  0.85136  0.27696  0.30286  1.0000 0.1121648616
C   C187      1.0  0.76477  0.84747  0.34177  1.0000 -0.0382924037
C   C188      1.0  0.84747  0.34177  0.76477  1.0000 -0.0382924037
C   C189      1.0  0.34177  0.76477  0.84747  1.0000 -0.0382924037
C   C190      1.0  0.26477  0.84177  0.34747  1.0000 -0.0382924037
C   C191      1.0  0.34747  0.26477  0.84177  1.0000 -0.0382924037
C   C192      1.0  0.84177  0.34747  0.26477  1.0000 -0.0382924037
C   C193      1.0  0.69029  0.87369  0.36969  1.0000 0.1307927373
C   C194      1.0  0.87369  0.36969  0.69029  1.0000 0.1307927373
C   C195      1.0  0.36969  0.69029  0.87369  1.0000 0.1307927373
C   C196      1.0  0.19029  0.86969  0.37369  1.0000 0.1307927373
C   C197      1.0  0.37369  0.19029  0.86969  1.0000 0.1307927373
C   C198      1.0  0.86969  0.37369  0.19029  1.0000 0.1307927373
C   C199      1.0  0.65453  0.82793  0.40633  1.0000 -0.1861602595
C   C200      1.0  0.82793  0.40633  0.65453  1.0000 -0.1861602595
C   C201      1.0  0.40633  0.65453  0.82793  1.0000 -0.1861602595
C   C202      1.0  0.15453  0.90633  0.32793  1.0000 -0.1861602595
C   C203      1.0  0.32793  0.15453  0.90633  1.0000 -0.1861602595
C   C204      1.0  0.90633  0.32793  0.15453  1.0000 -0.1861602595
C   C205      1.0  0.88381  0.74791  0.32121  1.0000 -0.4515618167
C   C206      1.0  0.74791  0.32121  0.88381  1.0000 -0.4515618167
C   C207      1.0  0.32121  0.88381  0.74791  1.0000 -0.4515618167
C   C208      1.0  0.38381  0.82121  0.24791  1.0000 -0.4515618167
C   C209      1.0  0.24791  0.38381  0.82121  1.0000 -0.4515618167
C   C210      1.0  0.82121  0.24791  0.38381  1.0000 -0.4515618167
C   C211      1.0  0.64547  0.95317  0.35657  1.0000 -0.4408481487
C   C212      1.0  0.95317  0.35657  0.64547  1.0000 -0.4408481487
C   C213      1.0  0.35657  0.64547  0.95317  1.0000 -0.4408481487
C   C214      1.0  0.14547  0.85657  0.45317  1.0000 -0.4408481487
C   C215      1.0  0.45317  0.14547  0.85657  1.0000 -0.4408481487
C   C216      1.0  0.85657  0.45317  0.14547  1.0000 -0.4408481487
O   O1        1.0  0.53719  0.28305  0.49022  1.0000 -0.5400134219
O   O2        1.0  0.49022  0.53719  0.28305  1.0000 -0.5400134219
O   O3        1.0  0.28305  0.49022  0.53719  1.0000 -0.5400134219
O   O4        1.0  0.03719  0.99022  0.78305  1.0000 -0.5400134219
O   O5        1.0  0.99022  0.78305  0.03719  1.0000 -0.5400134219
O   O6        1.0  0.78305  0.03719  0.99022  1.0000 -0.5400134219
O   O7        1.0  0.53891  0.38289  0.46759  1.0000 -0.5400134219
O   O8        1.0  0.46759  0.53891  0.38289  1.0000 -0.5400134219
O   O9        1.0  0.38289  0.46759  0.53891  1.0000 -0.5400134219
O   O10       1.0  0.03891  0.96759  0.88289  1.0000 -0.5400134219
O   O11       1.0  0.96759  0.88289  0.03891  1.0000 -0.5400134219
O   O12       1.0  0.88289  0.03891  0.96759  1.0000 -0.5400134219
O   O13       1.0  0.91049  0.01569  0.76789  1.0000 -0.5500552847
O   O14       1.0  0.76789  0.91049  0.01569  1.0000 -0.5500552847
O   O15       1.0  0.01569  0.76789  0.91049  1.0000 -0.5500552847
O   O16       1.0  0.41049  0.26789  0.51569  1.0000 -0.5500552847
O   O17       1.0  0.26789  0.51569  0.41049  1.0000 -0.5500552847
O   O18       1.0  0.51569  0.41049  0.26789  1.0000 -0.5500552847
O   O19       1.0  0.79963  0.03543  0.86093  1.0000 -0.5660692646
O   O20       1.0  0.86093  0.79963  0.03543  1.0000 -0.5660692646
O   O21       1.0  0.03543  0.86093  0.79963  1.0000 -0.5660692646
O   O22       1.0  0.29963  0.36093  0.53543  1.0000 -0.5660692646
O   O23       1.0  0.36093  0.53543  0.29963  1.0000 -0.5660692646
O   O24       1.0  0.53543  0.29963  0.36093  1.0000 -0.5660692646
O   O25       1.0  0.42159  0.42159  0.42159  1.0000 -1.02815475
O   O26       1.0  0.92159  0.92159  0.92159  1.0000 -1.02815475
O   O27       1.0  0.96281  0.00978  0.21695  1.0000 -0.5400134219
O   O28       1.0  0.00978  0.21695  0.96281  1.0000 -0.5400134219
O   O29       1.0  0.21695  0.96281  0.00978  1.0000 -0.5400134219
O   O30       1.0  0.46281  0.71695  0.50978  1.0000 -0.5400134219
O   O31       1.0  0.50978  0.46281  0.71695  1.0000 -0.5400134219
O   O32       1.0  0.71695  0.50978  0.46281  1.0000 -0.5400134219
O   O33       1.0  0.96109  0.03241  0.11711  1.0000 -0.5400134219
O   O34       1.0  0.03241  0.11711  0.96109  1.0000 -0.5400134219
O   O35       1.0  0.11711  0.96109  0.03241  1.0000 -0.5400134219
O   O36       1.0  0.46109  0.61711  0.53241  1.0000 -0.5400134219
O   O37       1.0  0.53241  0.46109  0.61711  1.0000 -0.5400134219
O   O38       1.0  0.61711  0.53241  0.46109  1.0000 -0.5400134219
O   O39       1.0  0.58951  0.73211  0.48431  1.0000 -0.5500552847
O   O40       1.0  0.73211  0.48431  0.58951  1.0000 -0.5500552847
O   O41       1.0  0.48431  0.58951  0.73211  1.0000 -0.5500552847
O   O42       1.0  0.08951  0.98431  0.23211  1.0000 -0.5500552847
O   O43       1.0  0.23211  0.08951  0.98431  1.0000 -0.5500552847
O   O44       1.0  0.98431  0.23211  0.08951  1.0000 -0.5500552847
O   O45       1.0  0.70037  0.63907  0.46457  1.0000 -0.5660692646
O   O46       1.0  0.63907  0.46457  0.70037  1.0000 -0.5660692646
O   O47       1.0  0.46457  0.70037  0.63907  1.0000 -0.5660692646
O   O48       1.0  0.20037  0.96457  0.13907  1.0000 -0.5660692646
O   O49       1.0  0.13907  0.20037  0.96457  1.0000 -0.5660692646
O   O50       1.0  0.96457  0.13907  0.20037  1.0000 -0.5660692646
O   O51       1.0  0.07841  0.07841  0.07841  1.0000 -1.02815475
O   O52       1.0  0.57841  0.57841  0.57841  1.0000 -1.02815475
