# DDEC6 charges by PACMAN v1.1 (https://github.com/mtap-research/PACMAN-charge/)
data_2012[Cu][nts]3[ASR]4
_chemical_formula_sum              "Cu24 H96 C216 N48 O96"
_cell_length_a       26.785
_cell_length_b       26.785
_cell_length_c       26.785
_cell_angle_alpha    120.284
_cell_angle_beta     120.284
_cell_angle_gamma    89.5091

_symmetry_space_group_name_H-M    "P 1"
_symmetry_Int_Tables_number       1

loop_
  _symmetry_equiv_pos_as_xyz
  'x, y, z'

loop_
  _atom_site_type_symbol
  _atom_site_label
  _atom_site_symmetry_multiplicity
  _atom_site_fract_x
  _atom_site_fract_y
  _atom_site_fract_z
  _atom_site_occupancy
  _atom_site_charge
Cu  Cu1       1.0  0.42868  0.35637  0.39049  1.0000 0.8447705336
Cu  Cu2       1.0  0.96588  0.03819  0.60951  1.0000 0.8497067944
Cu  Cu3       1.0  0.35637  0.96588  0.92769  1.0000 0.8447705336
Cu  Cu4       1.0  0.03819  0.42868  0.07231  1.0000 0.8447705336
Cu  Cu5       1.0  0.57132  0.64363  0.60951  1.0000 0.8497067944
Cu  Cu6       1.0  0.03412  0.96181  0.39049  1.0000 0.8447705336
Cu  Cu7       1.0  0.64363  0.03412  0.07231  1.0000 0.8447705336
Cu  Cu8       1.0  0.96181  0.57132  0.92769  1.0000 0.8497067944
Cu  Cu9       1.0  0.32228  0.26719  0.29343  1.0000 0.8683918692
Cu  Cu10      1.0  0.97376  0.02885  0.70657  1.0000 0.8683918692
Cu  Cu11      1.0  0.26719  0.97376  0.94491  1.0000 0.8683918692
Cu  Cu12      1.0  0.02885  0.32228  0.05509  1.0000 0.8683918692
Cu  Cu13      1.0  0.67772  0.73281  0.70657  1.0000 0.8683918692
Cu  Cu14      1.0  0.02624  0.97115  0.29343  1.0000 0.8683918692
Cu  Cu15      1.0  0.73281  0.02624  0.05509  1.0000 0.8683918692
Cu  Cu16      1.0  0.97115  0.67772  0.94491  1.0000 0.8683918692
Cu  Cu17      1.0  0.60817  0.06653  0.67470  1.0000 0.8326496906
Cu  Cu18      1.0  0.39183  0.93347  0.32530  1.0000 0.8326496906
Cu  Cu19      1.0  0.06653  0.39183  0.45836  1.0000 0.8326496906
Cu  Cu20      1.0  0.93347  0.60817  0.54164  1.0000 0.8326496906
Cu  Cu21      1.0  0.29457  0.95002  0.24459  1.0000 0.8497067944
Cu  Cu22      1.0  0.70543  0.04998  0.75541  1.0000 0.8497067944
Cu  Cu23      1.0  0.95002  0.70543  0.65545  1.0000 0.8497067944
Cu  Cu24      1.0  0.04998  0.29457  0.34455  1.0000 0.8497067944
H   H1        1.0  0.16640  0.76880  0.09940  1.0000 0.1407347082
H   H2        1.0  0.66940  0.06700  0.90060  1.0000 0.1407347082
H   H3        1.0  0.76880  0.66940  0.60240  1.0000 0.1407347082
H   H4        1.0  0.06700  0.16640  0.39760  1.0000 0.1407347082
H   H5        1.0  0.83360  0.23120  0.90060  1.0000 0.1407347082
H   H6        1.0  0.33060  0.93300  0.09940  1.0000 0.1407347082
H   H7        1.0  0.23120  0.33060  0.39760  1.0000 0.1407347082
H   H8        1.0  0.93300  0.83360  0.60240  1.0000 0.1407347082
H   H9        1.0  0.31060  0.74610  0.23330  1.0000 0.1314041853
H   H10       1.0  0.51280  0.07730  0.76670  1.0000 0.1314041853
H   H11       1.0  0.74610  0.51280  0.43550  1.0000 0.1314041853
H   H12       1.0  0.07730  0.31060  0.56450  1.0000 0.1314041853
H   H13       1.0  0.68940  0.25390  0.76670  1.0000 0.1314041853
H   H14       1.0  0.48720  0.92270  0.23330  1.0000 0.1314041853
H   H15       1.0  0.25390  0.48720  0.56450  1.0000 0.1314041853
H   H16       1.0  0.92270  0.68940  0.43550  1.0000 0.1314041853
H   H17       1.0  0.14650  0.61040  0.08310  1.0000 0.1314041853
H   H18       1.0  0.52730  0.06340  0.91690  1.0000 0.1314041853
H   H19       1.0  0.61040  0.52730  0.46390  1.0000 0.1314041853
H   H20       1.0  0.06340  0.14650  0.53610  1.0000 0.1314041853
H   H21       1.0  0.85350  0.38960  0.91690  1.0000 0.1314041853
H   H22       1.0  0.47270  0.93660  0.08310  1.0000 0.1314041853
H   H23       1.0  0.38960  0.47270  0.53610  1.0000 0.1314041853
H   H24       1.0  0.93660  0.85350  0.46390  1.0000 0.1314041853
H   H25       1.0  0.62630  0.86070  0.65960  1.0000 0.1407347082
H   H26       1.0  0.20110  0.96670  0.34040  1.0000 0.1407347082
H   H27       1.0  0.86070  0.20110  0.23440  1.0000 0.1407347082
H   H28       1.0  0.96670  0.62630  0.76560  1.0000 0.1407347082
H   H29       1.0  0.37370  0.13930  0.34040  1.0000 0.1407347082
H   H30       1.0  0.79890  0.03330  0.65960  1.0000 0.1407347082
H   H31       1.0  0.13930  0.79890  0.76560  1.0000 0.1407347082
H   H32       1.0  0.03330  0.37370  0.23440  1.0000 0.1407347082
H   H33       1.0  0.49620  0.87490  0.50710  1.0000 0.1314041853
H   H34       1.0  0.36780  0.98910  0.49290  1.0000 0.1314041853
H   H35       1.0  0.87490  0.36780  0.37870  1.0000 0.1314041853
H   H36       1.0  0.98910  0.49620  0.62130  1.0000 0.1314041853
H   H37       1.0  0.50380  0.12510  0.49290  1.0000 0.1314041853
H   H38       1.0  0.63220  0.01090  0.50710  1.0000 0.1314041853
H   H39       1.0  0.12510  0.63220  0.62130  1.0000 0.1314041853
H   H40       1.0  0.01090  0.50380  0.37870  1.0000 0.1314041853
H   H41       1.0  0.48100  0.71380  0.48360  1.0000 0.1314041853
H   H42       1.0  0.23020  0.99740  0.51640  1.0000 0.1314041853
H   H43       1.0  0.71380  0.23020  0.23280  1.0000 0.1314041853
H   H44       1.0  0.99740  0.48100  0.76720  1.0000 0.1314041853
H   H45       1.0  0.51900  0.28620  0.51640  1.0000 0.1314041853
H   H46       1.0  0.76980  0.00260  0.48360  1.0000 0.1314041853
H   H47       1.0  0.28620  0.76980  0.76720  1.0000 0.1314041853
H   H48       1.0  0.00260  0.51900  0.23280  1.0000 0.1314041853
H   H49       1.0  0.23640  0.51390  0.21950  1.0000 0.1314041853
H   H50       1.0  0.29440  0.01690  0.78050  1.0000 0.1314041853
H   H51       1.0  0.51390  0.29440  0.27750  1.0000 0.1314041853
H   H52       1.0  0.01690  0.23640  0.72250  1.0000 0.1314041853
H   H53       1.0  0.76360  0.48610  0.78050  1.0000 0.1314041853
H   H54       1.0  0.70560  0.98310  0.21950  1.0000 0.1314041853
H   H55       1.0  0.48610  0.70560  0.72250  1.0000 0.1314041853
H   H56       1.0  0.98310  0.76360  0.27750  1.0000 0.1314041853
H   H57       1.0  0.38350  0.47870  0.33300  1.0000 0.1314041853
H   H58       1.0  0.14570  0.05050  0.66700  1.0000 0.1314041853
H   H59       1.0  0.47870  0.14570  0.09520  1.0000 0.1314041853
H   H60       1.0  0.05050  0.38350  0.90480  1.0000 0.1314041853
H   H61       1.0  0.61650  0.52130  0.66700  1.0000 0.1314041853
H   H62       1.0  0.85430  0.94950  0.33300  1.0000 0.1314041853
H   H63       1.0  0.52130  0.85430  0.90480  1.0000 0.1314041853
H   H64       1.0  0.94950  0.61650  0.09520  1.0000 0.1314041853
H   H65       1.0  0.21530  0.35100  0.19390  1.0000 0.1407347082
H   H66       1.0  0.15710  0.02140  0.80610  1.0000 0.1407347082
H   H67       1.0  0.35100  0.15710  0.13570  1.0000 0.1407347082
H   H68       1.0  0.02140  0.21530  0.86430  1.0000 0.1407347082
H   H69       1.0  0.78470  0.64900  0.80610  1.0000 0.1407347082
H   H70       1.0  0.84290  0.97860  0.19390  1.0000 0.1407347082
H   H71       1.0  0.64900  0.84290  0.86430  1.0000 0.1407347082
H   H72       1.0  0.97860  0.78470  0.13570  1.0000 0.1407347082
H   H73       1.0  0.22950  0.59590  0.15380  1.0000 0.2918127604
H   H74       1.0  0.44210  0.07570  0.84620  1.0000 0.2918127604
H   H75       1.0  0.59590  0.44210  0.36640  1.0000 0.2918127604
H   H76       1.0  0.07570  0.22950  0.63360  1.0000 0.2918127604
H   H77       1.0  0.77050  0.40410  0.84620  1.0000 0.2918127604
H   H78       1.0  0.55790  0.92430  0.15380  1.0000 0.2918127604
H   H79       1.0  0.40410  0.55790  0.63360  1.0000 0.2918127604
H   H80       1.0  0.92430  0.77050  0.36640  1.0000 0.2918127604
H   H81       1.0  0.41650  0.79310  0.40420  1.0000 0.2918127604
H   H82       1.0  0.38890  0.01230  0.59580  1.0000 0.2918127604
H   H83       1.0  0.79310  0.38890  0.37660  1.0000 0.2918127604
H   H84       1.0  0.01230  0.41650  0.62340  1.0000 0.2918127604
H   H85       1.0  0.58350  0.20690  0.59580  1.0000 0.2918127604
H   H86       1.0  0.61110  0.98770  0.40420  1.0000 0.2918127604
H   H87       1.0  0.20690  0.61110  0.62340  1.0000 0.2918127604
H   H88       1.0  0.98770  0.58350  0.37660  1.0000 0.2918127604
H   H89       1.0  0.39670  0.56920  0.35050  1.0000 0.2918127604
H   H90       1.0  0.21870  0.04620  0.64950  1.0000 0.2918127604
H   H91       1.0  0.56920  0.21870  0.17250  1.0000 0.2918127604
H   H92       1.0  0.04620  0.39670  0.82750  1.0000 0.2918127604
H   H93       1.0  0.60330  0.43080  0.64950  1.0000 0.2918127604
H   H94       1.0  0.78130  0.95380  0.35050  1.0000 0.2918127604
H   H95       1.0  0.43080  0.78130  0.82750  1.0000 0.2918127604
H   H96       1.0  0.95380  0.60330  0.17250  1.0000 0.2918127604
C   C1        1.0  0.28351  0.83134  0.21253  1.0000 0.5776977621
C   C2        1.0  0.61881  0.07098  0.78747  1.0000 0.5776977621
C   C3        1.0  0.83134  0.61881  0.54783  1.0000 0.5776977621
C   C4        1.0  0.07098  0.28351  0.45217  1.0000 0.5776977621
C   C5        1.0  0.71649  0.16866  0.78747  1.0000 0.5776977621
C   C6        1.0  0.38119  0.92902  0.21253  1.0000 0.5776977621
C   C7        1.0  0.16866  0.38119  0.45217  1.0000 0.5776977621
C   C8        1.0  0.92902  0.71649  0.54783  1.0000 0.5776977621
C   C9        1.0  0.08083  0.66295  0.02524  1.0000 0.5776977621
C   C10       1.0  0.63771  0.05559  0.97476  1.0000 0.5776977621
C   C11       1.0  0.66295  0.63771  0.58212  1.0000 0.5776977621
C   C12       1.0  0.05559  0.08083  0.41788  1.0000 0.5776977621
C   C13       1.0  0.91917  0.33705  0.97476  1.0000 0.5776977621
C   C14       1.0  0.36229  0.94441  0.02524  1.0000 0.5776977621
C   C15       1.0  0.33705  0.36229  0.41788  1.0000 0.5776977621
C   C16       1.0  0.94441  0.91917  0.58212  1.0000 0.5776977621
C   C17       1.0  0.18322  0.74459  0.11595  1.0000 -0.1089798174
C   C18       1.0  0.62864  0.06727  0.88405  1.0000 -0.1089798174
C   C19       1.0  0.74459  0.62864  0.56137  1.0000 -0.1089798174
C   C20       1.0  0.06727  0.18322  0.43863  1.0000 -0.1089798174
C   C21       1.0  0.81678  0.25541  0.88405  1.0000 -0.1089798174
C   C22       1.0  0.37136  0.93273  0.11595  1.0000 -0.1089798174
C   C23       1.0  0.25541  0.37136  0.43863  1.0000 -0.1089798174
C   C24       1.0  0.93273  0.81678  0.56137  1.0000 -0.1089798174
C   C25       1.0  0.24428  0.76736  0.17386  1.0000 -0.0073868655
C   C26       1.0  0.59350  0.07042  0.82614  1.0000 -0.0073868655
C   C27       1.0  0.76736  0.59350  0.52308  1.0000 -0.0073868655
C   C28       1.0  0.07042  0.24428  0.47692  1.0000 -0.0073868655
C   C29       1.0  0.75572  0.23264  0.82614  1.0000 -0.0073868655
C   C30       1.0  0.40650  0.92958  0.17386  1.0000 -0.0073868655
C   C31       1.0  0.23264  0.40650  0.47692  1.0000 -0.0073868655
C   C32       1.0  0.92958  0.75572  0.52308  1.0000 -0.0073868655
C   C33       1.0  0.14737  0.68584  0.08293  1.0000 -0.0073868655
C   C34       1.0  0.60291  0.06444  0.91707  1.0000 -0.0073868655
C   C35       1.0  0.68584  0.60291  0.53847  1.0000 -0.0073868655
C   C36       1.0  0.06444  0.14737  0.46153  1.0000 -0.0073868655
C   C37       1.0  0.85263  0.31416  0.91707  1.0000 -0.0073868655
C   C38       1.0  0.39709  0.93556  0.08293  1.0000 -0.0073868655
C   C39       1.0  0.31416  0.39709  0.46153  1.0000 -0.0073868655
C   C40       1.0  0.93556  0.85263  0.53847  1.0000 -0.0073868655
C   C41       1.0  0.26846  0.73109  0.19583  1.0000 -0.168749424
C   C42       1.0  0.53526  0.07263  0.80417  1.0000 -0.168749424
C   C43       1.0  0.73109  0.53526  0.46263  1.0000 -0.168749424
C   C44       1.0  0.07263  0.26846  0.53737  1.0000 -0.168749424
C   C45       1.0  0.73154  0.26891  0.80417  1.0000 -0.168749424
C   C46       1.0  0.46474  0.92737  0.19583  1.0000 -0.168749424
C   C47       1.0  0.26891  0.46474  0.53737  1.0000 -0.168749424
C   C48       1.0  0.92737  0.73154  0.46263  1.0000 -0.168749424
C   C49       1.0  0.23294  0.67294  0.16470  1.0000 0.2213562314
C   C50       1.0  0.50824  0.06824  0.83530  1.0000 0.2213562314
C   C51       1.0  0.67294  0.50824  0.44000  1.0000 0.2213562314
C   C52       1.0  0.06824  0.23294  0.56000  1.0000 0.2213562314
C   C53       1.0  0.76706  0.32706  0.83530  1.0000 0.2213562314
C   C54       1.0  0.49176  0.93176  0.16470  1.0000 0.2213562314
C   C55       1.0  0.32706  0.49176  0.56000  1.0000 0.2213562314
C   C56       1.0  0.93176  0.76706  0.44000  1.0000 0.2213562314
C   C57       1.0  0.17153  0.65041  0.10644  1.0000 -0.2009794893
C   C58       1.0  0.54397  0.06509  0.89356  1.0000 -0.2009794893
C   C59       1.0  0.65041  0.54397  0.47888  1.0000 -0.2009794893
C   C60       1.0  0.06509  0.17153  0.52112  1.0000 -0.2009794893
C   C61       1.0  0.82847  0.34959  0.89356  1.0000 -0.2009794893
C   C62       1.0  0.45603  0.93491  0.10644  1.0000 -0.2009794893
C   C63       1.0  0.34959  0.45603  0.52112  1.0000 -0.2009794893
C   C64       1.0  0.93491  0.82847  0.47888  1.0000 -0.2009794893
C   C65       1.0  0.30043  0.64553  0.24730  1.0000 0.5388697214
C   C66       1.0  0.39823  0.05313  0.75270  1.0000 0.5388697214
C   C67       1.0  0.64553  0.39823  0.34510  1.0000 0.5388697214
C   C68       1.0  0.05313  0.30043  0.65490  1.0000 0.5388697214
C   C69       1.0  0.69957  0.35447  0.75270  1.0000 0.5388697214
C   C70       1.0  0.60177  0.94687  0.24730  1.0000 0.5388697214
C   C71       1.0  0.35447  0.60177  0.65490  1.0000 0.5388697214
C   C72       1.0  0.94687  0.69957  0.34510  1.0000 0.5388697214
C   C73       1.0  0.38758  0.70798  0.35880  1.0000 0.5388697214
C   C74       1.0  0.34918  0.02878  0.64120  1.0000 0.5388697214
C   C75       1.0  0.70798  0.34918  0.32040  1.0000 0.5388697214
C   C76       1.0  0.02878  0.38758  0.67960  1.0000 0.5388697214
C   C77       1.0  0.61242  0.29202  0.64120  1.0000 0.5388697214
C   C78       1.0  0.65082  0.97122  0.35880  1.0000 0.5388697214
C   C79       1.0  0.29202  0.65082  0.67960  1.0000 0.5388697214
C   C80       1.0  0.97122  0.61242  0.32040  1.0000 0.5388697214
C   C81       1.0  0.35100  0.60690  0.30810  1.0000 0.5388697214
C   C82       1.0  0.29880  0.04290  0.69190  1.0000 0.5343663044
C   C83       1.0  0.60690  0.29880  0.25590  1.0000 0.5388697214
C   C84       1.0  0.04290  0.35100  0.74410  1.0000 0.5343663044
C   C85       1.0  0.64900  0.39310  0.69190  1.0000 0.5343663044
C   C86       1.0  0.70120  0.95710  0.30810  1.0000 0.5343663044
C   C87       1.0  0.39310  0.70120  0.74410  1.0000 0.5343663044
C   C88       1.0  0.95710  0.64900  0.25590  1.0000 0.5388697214
C   C89       1.0  0.55541  0.78134  0.57349  1.0000 -0.0013109732
C   C90       1.0  0.20785  0.98192  0.42651  1.0000 -0.0013109732
C   C91       1.0  0.78134  0.20785  0.22593  1.0000 -0.0013109732
C   C92       1.0  0.98192  0.55541  0.77407  1.0000 -0.0013109732
C   C93       1.0  0.44459  0.21866  0.42651  1.0000 -0.0013109732
C   C94       1.0  0.79215  0.01808  0.57349  1.0000 -0.0013109732
C   C95       1.0  0.21866  0.79215  0.77407  1.0000 -0.0013109732
C   C96       1.0  0.01808  0.44459  0.22593  1.0000 -0.0013109732
C   C97       1.0  0.56534  0.87818  0.59076  1.0000 -0.016433413
C   C98       1.0  0.28742  0.97458  0.40924  1.0000 -0.016433413
C   C99       1.0  0.87818  0.28742  0.31284  1.0000 -0.016433413
C   C100      1.0  0.97458  0.56534  0.68716  1.0000 -0.016433413
C   C101      1.0  0.43466  0.12182  0.40924  1.0000 -0.016433413
C   C102      1.0  0.71258  0.02542  0.59076  1.0000 -0.016433413
C   C103      1.0  0.12182  0.71258  0.68716  1.0000 -0.016433413
C   C104      1.0  0.02542  0.43466  0.31284  1.0000 -0.016433413
C   C105      1.0  0.59793  0.94467  0.63572  1.0000 0.5720791124
C   C106      1.0  0.30895  0.96221  0.36428  1.0000 0.5720791124
C   C107      1.0  0.94467  0.30895  0.34674  1.0000 0.5720791124
C   C108      1.0  0.96221  0.59793  0.65326  1.0000 0.5720791124
C   C109      1.0  0.40207  0.05533  0.36428  1.0000 0.5720791124
C   C110      1.0  0.69105  0.03779  0.63572  1.0000 0.5720791124
C   C111      1.0  0.05533  0.69105  0.65326  1.0000 0.5720791124
C   C112      1.0  0.03779  0.40207  0.34674  1.0000 0.5720791124
C   C113      1.0  0.58820  0.84297  0.61485  1.0000 -0.1089798174
C   C114      1.0  0.22812  0.97335  0.38515  1.0000 -0.1089798174
C   C115      1.0  0.84297  0.22812  0.25477  1.0000 -0.1089798174
C   C116      1.0  0.97335  0.58820  0.74523  1.0000 -0.1089798174
C   C117      1.0  0.41180  0.15703  0.38515  1.0000 -0.1089798174
C   C118      1.0  0.77188  0.02665  0.61485  1.0000 -0.1089798174
C   C119      1.0  0.15703  0.77188  0.74523  1.0000 -0.1089798174
C   C120      1.0  0.02665  0.41180  0.25477  1.0000 -0.1089798174
C   C121      1.0  0.51162  0.85044  0.52382  1.0000 -0.2009794893
C   C122      1.0  0.32662  0.98780  0.47618  1.0000 -0.2009794893
C   C123      1.0  0.85044  0.32662  0.33882  1.0000 -0.2009794893
C   C124      1.0  0.98780  0.51162  0.66118  1.0000 -0.2009794893
C   C125      1.0  0.48838  0.14956  0.47618  1.0000 -0.2009794893
C   C126      1.0  0.67338  0.01220  0.52382  1.0000 -0.2009794893
C   C127      1.0  0.14956  0.67338  0.66118  1.0000 -0.2009794893
C   C128      1.0  0.01220  0.48838  0.33882  1.0000 -0.2009794893
C   C129      1.0  0.50316  0.75576  0.51000  1.0000 -0.1599647425
C   C130      1.0  0.24576  0.99316  0.49000  1.0000 -0.1599647425
C   C131      1.0  0.75576  0.24576  0.25260  1.0000 -0.1599647425
C   C132      1.0  0.99316  0.50316  0.74740  1.0000 -0.1599647425
C   C133      1.0  0.49684  0.24424  0.49000  1.0000 -0.1599647425
C   C134      1.0  0.75424  0.00684  0.51000  1.0000 -0.1599647425
C   C135      1.0  0.24424  0.75424  0.74740  1.0000 -0.1599647425
C   C136      1.0  0.00684  0.49684  0.25260  1.0000 -0.1599647425
C   C137      1.0  0.47921  0.78831  0.47990  1.0000 0.2213562314
C   C138      1.0  0.30841  0.99931  0.52010  1.0000 0.2213562314
C   C139      1.0  0.78831  0.30841  0.30910  1.0000 0.2213562314
C   C140      1.0  0.99931  0.47921  0.69090  1.0000 0.2213562314
C   C141      1.0  0.52079  0.21169  0.52010  1.0000 0.2213562314
C   C142      1.0  0.69159  0.00069  0.47990  1.0000 0.2213562314
C   C143      1.0  0.21169  0.69159  0.69090  1.0000 0.2213562314
C   C144      1.0  0.00069  0.52079  0.30910  1.0000 0.2213562314
C   C145      1.0  0.30265  0.40862  0.26503  1.0000 0.0033182298
C   C146      1.0  0.14359  0.03762  0.73497  1.0000 0.0033182298
C   C147      1.0  0.40862  0.14359  0.10597  1.0000 0.0033182298
C   C148      1.0  0.03762  0.30265  0.89403  1.0000 0.0033182298
C   C149      1.0  0.69735  0.59138  0.73497  1.0000 0.0033182298
C   C150      1.0  0.85641  0.96238  0.26503  1.0000 0.0033182298
C   C151      1.0  0.59138  0.85641  0.89403  1.0000 0.0033182298
C   C152      1.0  0.96238  0.69735  0.10597  1.0000 0.0033182298
C   C153      1.0  0.25359  0.48691  0.23080  1.0000 -0.1599647425
C   C154      1.0  0.25611  0.02279  0.76920  1.0000 -0.1599647425
C   C155      1.0  0.48691  0.25611  0.23332  1.0000 -0.1599647425
C   C156      1.0  0.02279  0.25359  0.76668  1.0000 -0.1599647425
C   C157      1.0  0.74641  0.51309  0.76920  1.0000 -0.1599647425
C   C158      1.0  0.74389  0.97721  0.23080  1.0000 -0.1599647425
C   C159      1.0  0.51309  0.74389  0.76668  1.0000 -0.1599647425
C   C160      1.0  0.97721  0.74641  0.23332  1.0000 -0.1599647425
C   C161      1.0  0.31685  0.50475  0.27990  1.0000 0.2102777246
C   C162      1.0  0.22485  0.03695  0.72010  1.0000 0.2102777246
C   C163      1.0  0.50475  0.22485  0.18790  1.0000 0.2102777246
C   C164      1.0  0.03695  0.31685  0.81210  1.0000 0.2102777246
C   C165      1.0  0.68315  0.49525  0.72010  1.0000 0.2102777246
C   C166      1.0  0.77515  0.96305  0.27990  1.0000 0.2102777246
C   C167      1.0  0.49525  0.77515  0.81210  1.0000 0.2102777246
C   C168      1.0  0.96305  0.68315  0.18790  1.0000 0.2102777246
C   C169      1.0  0.34090  0.46615  0.29803  1.0000 -0.2072229799
C   C170      1.0  0.16812  0.04287  0.70197  1.0000 -0.2072229799
C   C171      1.0  0.46615  0.16812  0.12525  1.0000 -0.2072229799
C   C172      1.0  0.04287  0.34090  0.87475  1.0000 -0.2072229799
C   C173      1.0  0.65910  0.53385  0.70197  1.0000 -0.2072229799
C   C174      1.0  0.83188  0.95713  0.29803  1.0000 -0.2072229799
C   C175      1.0  0.53385  0.83188  0.87475  1.0000 -0.2072229799
C   C176      1.0  0.95713  0.65910  0.12525  1.0000 -0.2072229799
C   C177      1.0  0.24122  0.39017  0.21619  1.0000 -0.117359145
C   C178      1.0  0.17398  0.02503  0.78381  1.0000 -0.117359145
C   C179      1.0  0.39017  0.17398  0.14895  1.0000 -0.117359145
C   C180      1.0  0.02503  0.24122  0.85105  1.0000 -0.117359145
C   C181      1.0  0.75878  0.60983  0.78381  1.0000 -0.117359145
C   C182      1.0  0.82602  0.97497  0.21619  1.0000 -0.117359145
C   C183      1.0  0.60983  0.82602  0.85105  1.0000 -0.117359145
C   C184      1.0  0.97497  0.75878  0.14895  1.0000 -0.117359145
C   C185      1.0  0.33039  0.36973  0.29060  1.0000 0.5776977621
C   C186      1.0  0.07913  0.03979  0.70940  1.0000 0.5776977621
C   C187      1.0  0.36973  0.07913  0.03934  1.0000 0.5776977621
C   C188      1.0  0.03979  0.33039  0.96066  1.0000 0.5776977621
C   C189      1.0  0.66961  0.63027  0.70940  1.0000 0.5776977621
C   C190      1.0  0.92087  0.96021  0.29060  1.0000 0.5776977621
C   C191      1.0  0.63027  0.92087  0.96066  1.0000 0.5776977621
C   C192      1.0  0.96021  0.66961  0.03934  1.0000 0.5776977621
C   C193      1.0  0.57946  0.74378  0.60182  1.0000 0.5776977621
C   C194      1.0  0.14196  0.97764  0.39818  1.0000 0.5776977621
C   C195      1.0  0.74378  0.14196  0.16432  1.0000 0.5776977621
C   C196      1.0  0.97764  0.57946  0.83568  1.0000 0.5776977621
C   C197      1.0  0.42054  0.25622  0.39818  1.0000 0.5776977621
C   C198      1.0  0.85804  0.02236  0.60182  1.0000 0.5776977621
C   C199      1.0  0.25622  0.85804  0.83568  1.0000 0.5776977621
C   C200      1.0  0.02236  0.42054  0.16432  1.0000 0.5776977621
C   C201      1.0  0.14848  0.41186  0.14792  1.0000 0.5776977621
C   C202      1.0  0.26394  0.00056  0.85208  1.0000 0.5776977621
C   C203      1.0  0.41186  0.26394  0.26338  1.0000 0.5776977621
C   C204      1.0  0.00056  0.14848  0.73662  1.0000 0.5776977621
C   C205      1.0  0.85152  0.58814  0.85208  1.0000 0.5776977621
C   C206      1.0  0.73606  0.99944  0.14792  1.0000 0.5776977621
C   C207      1.0  0.58814  0.73606  0.73662  1.0000 0.5776977621
C   C208      1.0  0.99944  0.85152  0.26338  1.0000 0.5776977621
C   C209      1.0  0.21687  0.43114  0.19945  1.0000 -0.0013109732
C   C210      1.0  0.23169  0.01742  0.80055  1.0000 -0.0013109732
C   C211      1.0  0.43114  0.23169  0.21427  1.0000 -0.0013109732
C   C212      1.0  0.01742  0.21687  0.78573  1.0000 -0.0013109732
C   C213      1.0  0.78313  0.56886  0.80055  1.0000 -0.0013109732
C   C214      1.0  0.76831  0.98258  0.19945  1.0000 -0.0013109732
C   C215      1.0  0.56886  0.76831  0.78573  1.0000 -0.0013109732
C   C216      1.0  0.98258  0.78313  0.21427  1.0000 -0.0013109732
N   N1        1.0  0.30364  0.59619  0.24769  1.0000 -0.5301427512
N   N2        1.0  0.34850  0.05595  0.75231  1.0000 -0.5301427512
N   N3        1.0  0.59619  0.34850  0.29255  1.0000 -0.5301427512
N   N4        1.0  0.05595  0.30364  0.70745  1.0000 -0.5301427512
N   N5        1.0  0.69636  0.40381  0.75231  1.0000 -0.5301427512
N   N6        1.0  0.65150  0.94405  0.24769  1.0000 -0.5301427512
N   N7        1.0  0.40381  0.65150  0.70745  1.0000 -0.5301427512
N   N8        1.0  0.94405  0.69636  0.29255  1.0000 -0.5301427512
N   N9        1.0  0.39539  0.66100  0.36323  1.0000 -0.5301427512
N   N10       1.0  0.29777  0.03216  0.63677  1.0000 -0.5301427512
N   N11       1.0  0.66100  0.29777  0.26561  1.0000 -0.5301427512
N   N12       1.0  0.03216  0.39539  0.73439  1.0000 -0.5301427512
N   N13       1.0  0.60461  0.33900  0.63677  1.0000 -0.5301427512
N   N14       1.0  0.70223  0.96784  0.36323  1.0000 -0.5301427512
N   N15       1.0  0.33900  0.70223  0.73439  1.0000 -0.5301427512
N   N16       1.0  0.96784  0.60461  0.26561  1.0000 -0.5301427512
N   N17       1.0  0.33999  0.70396  0.30247  1.0000 -0.5561077319
N   N18       1.0  0.40149  0.03752  0.69753  1.0000 -0.5561077319
N   N19       1.0  0.70396  0.40149  0.36397  1.0000 -0.5561077319
N   N20       1.0  0.03752  0.33999  0.63603  1.0000 -0.5561077319
N   N21       1.0  0.66001  0.29604  0.69753  1.0000 -0.5561077319
N   N22       1.0  0.59851  0.96248  0.30247  1.0000 -0.5561077319
N   N23       1.0  0.29604  0.59851  0.63603  1.0000 -0.5561077319
N   N24       1.0  0.96248  0.66001  0.36397  1.0000 -0.5561077319
N   N25       1.0  0.25265  0.63452  0.18625  1.0000 -0.3379270059
N   N26       1.0  0.44827  0.06640  0.81375  1.0000 -0.3379270059
N   N27       1.0  0.63452  0.44827  0.38187  1.0000 -0.3379270059
N   N28       1.0  0.06640  0.25265  0.61813  1.0000 -0.3379270059
N   N29       1.0  0.74735  0.36548  0.81375  1.0000 -0.3379270059
N   N30       1.0  0.55173  0.93360  0.18625  1.0000 -0.3379270059
N   N31       1.0  0.36548  0.55173  0.61813  1.0000 -0.3379270059
N   N32       1.0  0.93360  0.74735  0.38187  1.0000 -0.3379270059
N   N33       1.0  0.42607  0.76534  0.41251  1.0000 -0.3379270059
N   N34       1.0  0.35283  0.01356  0.58749  1.0000 -0.3379270059
N   N35       1.0  0.76534  0.35283  0.33927  1.0000 -0.3379270059
N   N36       1.0  0.01356  0.42607  0.66073  1.0000 -0.3379270059
N   N37       1.0  0.57393  0.23466  0.58749  1.0000 -0.3379270059
N   N38       1.0  0.64717  0.98644  0.41251  1.0000 -0.3379270059
N   N39       1.0  0.23466  0.64717  0.66073  1.0000 -0.3379270059
N   N40       1.0  0.98644  0.57393  0.33927  1.0000 -0.3379270059
N   N41       1.0  0.35931  0.56211  0.31682  1.0000 -0.3379270059
N   N42       1.0  0.24529  0.04249  0.68318  1.0000 -0.3379270059
N   N43       1.0  0.56211  0.24529  0.20280  1.0000 -0.3379270059
N   N44       1.0  0.04249  0.35931  0.79720  1.0000 -0.3379270059
N   N45       1.0  0.64069  0.43789  0.68318  1.0000 -0.3379270059
N   N46       1.0  0.75471  0.95751  0.31682  1.0000 -0.3379270059
N   N47       1.0  0.43789  0.75471  0.79720  1.0000 -0.3379270059
N   N48       1.0  0.95751  0.64069  0.20280  1.0000 -0.3379270059
O   O1        1.0  0.57010  0.97758  0.61990  1.0000 -0.5195402322
O   O2        1.0  0.35768  0.95020  0.38010  1.0000 -0.5195402322
O   O3        1.0  0.97758  0.35768  0.40748  1.0000 -0.5195402322
O   O4        1.0  0.95020  0.57010  0.59252  1.0000 -0.5195402322
O   O5        1.0  0.42990  0.02242  0.38010  1.0000 -0.5195402322
O   O6        1.0  0.64232  0.04980  0.61990  1.0000 -0.5195402322
O   O7        1.0  0.02242  0.64232  0.59252  1.0000 -0.5195402322
O   O8        1.0  0.04980  0.42990  0.40748  1.0000 -0.5195402322
O   O9        1.0  0.33803  0.84870  0.26103  1.0000 -0.5092540268
O   O10       1.0  0.58767  0.07700  0.73897  1.0000 -0.5092540268
O   O11       1.0  0.84870  0.58767  0.51067  1.0000 -0.5092540268
O   O12       1.0  0.07700  0.33803  0.48933  1.0000 -0.5092540268
O   O13       1.0  0.66197  0.15130  0.73897  1.0000 -0.5092540268
O   O14       1.0  0.41233  0.92300  0.26103  1.0000 -0.5092540268
O   O15       1.0  0.15130  0.41233  0.48933  1.0000 -0.5092540268
O   O16       1.0  0.92300  0.66197  0.51067  1.0000 -0.5092540268
O   O17       1.0  0.25605  0.86222  0.19143  1.0000 -0.5092540268
O   O18       1.0  0.67079  0.06462  0.80857  1.0000 -0.5092540268
O   O19       1.0  0.86222  0.67079  0.60617  1.0000 -0.5092540268
O   O20       1.0  0.06462  0.25605  0.39383  1.0000 -0.5092540268
O   O21       1.0  0.74395  0.13778  0.80857  1.0000 -0.5092540268
O   O22       1.0  0.32921  0.93538  0.19143  1.0000 -0.5092540268
O   O23       1.0  0.13778  0.32921  0.39383  1.0000 -0.5092540268
O   O24       1.0  0.93538  0.74395  0.60617  1.0000 -0.5092540268
O   O25       1.0  0.29241  0.31930  0.26203  1.0000 -0.5301427512
O   O26       1.0  0.05727  0.03038  0.73797  1.0000 -0.5301427512
O   O27       1.0  0.31930  0.05727  0.02689  1.0000 -0.5301427512
O   O28       1.0  0.03038  0.29241  0.97311  1.0000 -0.5301427512
O   O29       1.0  0.70759  0.68070  0.73797  1.0000 -0.5301427512
O   O30       1.0  0.94273  0.96962  0.26203  1.0000 -0.5301427512
O   O31       1.0  0.68070  0.94273  0.97311  1.0000 -0.5301427512
O   O32       1.0  0.96962  0.70759  0.02689  1.0000 -0.5301427512
O   O33       1.0  0.38667  0.39028  0.33719  1.0000 -0.5301427512
O   O34       1.0  0.05309  0.04948  0.66281  1.0000 -0.5301427512
O   O35       1.0  0.39028  0.05309  0.00361  1.0000 -0.5301427512
O   O36       1.0  0.04948  0.38667  0.99639  1.0000 -0.5301427512
O   O37       1.0  0.61333  0.60972  0.66281  1.0000 -0.5301427512
O   O38       1.0  0.94691  0.95052  0.33719  1.0000 -0.5301427512
O   O39       1.0  0.60972  0.94691  0.99639  1.0000 -0.5301427512
O   O40       1.0  0.95052  0.61333  0.00361  1.0000 -0.5301427512
O   O41       1.0  0.12680  0.45107  0.14131  1.0000 -0.5092540268
O   O42       1.0  0.30976  0.98549  0.85869  1.0000 -0.5092540268
O   O43       1.0  0.45107  0.30976  0.32427  1.0000 -0.5092540268
O   O44       1.0  0.98549  0.12680  0.67573  1.0000 -0.5092540268
O   O45       1.0  0.87320  0.54893  0.85869  1.0000 -0.5092540268
O   O46       1.0  0.69024  0.01451  0.14131  1.0000 -0.5092540268
O   O47       1.0  0.54893  0.69024  0.67573  1.0000 -0.5092540268
O   O48       1.0  0.01451  0.87320  0.32427  1.0000 -0.5092540268
O   O49       1.0  0.11781  0.35673  0.11616  1.0000 -0.5301427512
O   O50       1.0  0.24057  0.00165  0.88384  1.0000 -0.5301427512
O   O51       1.0  0.35673  0.24057  0.23892  1.0000 -0.5301427512
O   O52       1.0  0.00165  0.11781  0.76108  1.0000 -0.5301427512
O   O53       1.0  0.88219  0.64327  0.88384  1.0000 -0.5301427512
O   O54       1.0  0.75943  0.99835  0.11616  1.0000 -0.5301427512
O   O55       1.0  0.64327  0.75943  0.76108  1.0000 -0.5301427512
O   O56       1.0  0.99835  0.88219  0.23892  1.0000 -0.5301427512
O   O57       1.0  0.63271  0.77014  0.66029  1.0000 -0.5301427512
O   O58       1.0  0.10985  0.97242  0.33971  1.0000 -0.5301427512
O   O59       1.0  0.77014  0.10985  0.13743  1.0000 -0.5301427512
O   O60       1.0  0.97242  0.63271  0.86257  1.0000 -0.5301427512
O   O61       1.0  0.36729  0.22986  0.33971  1.0000 -0.5301427512
O   O62       1.0  0.89015  0.02758  0.66029  1.0000 -0.5301427512
O   O63       1.0  0.22986  0.89015  0.86257  1.0000 -0.5301427512
O   O64       1.0  0.02758  0.36729  0.13743  1.0000 -0.5301427512
O   O65       1.0  0.54524  0.69076  0.56926  1.0000 -0.5195402322
O   O66       1.0  0.12150  0.97598  0.43074  1.0000 -0.5195402322
O   O67       1.0  0.69076  0.12150  0.14552  1.0000 -0.5195402322
O   O68       1.0  0.97598  0.54524  0.85448  1.0000 -0.5195402322
O   O69       1.0  0.45476  0.30924  0.43074  1.0000 -0.5195402322
O   O70       1.0  0.87850  0.02402  0.56926  1.0000 -0.5195402322
O   O71       1.0  0.30924  0.87850  0.85448  1.0000 -0.5195402322
O   O72       1.0  0.02402  0.45476  0.14552  1.0000 -0.5195402322
O   O73       1.0  0.65291  0.96387  0.68922  1.0000 -0.5301427512
O   O74       1.0  0.27465  0.96369  0.31078  1.0000 -0.5301427512
O   O75       1.0  0.96387  0.27465  0.31096  1.0000 -0.5301427512
O   O76       1.0  0.96369  0.65291  0.68904  1.0000 -0.5301427512
O   O77       1.0  0.34709  0.03613  0.31078  1.0000 -0.5301427512
O   O78       1.0  0.72535  0.03631  0.68922  1.0000 -0.5301427512
O   O79       1.0  0.03613  0.72535  0.68904  1.0000 -0.5301427512
O   O80       1.0  0.03631  0.34709  0.31096  1.0000 -0.5301427512
O   O81       1.0  0.05037  0.61055  0.99930  1.0000 -0.5412221573
O   O82       1.0  0.61125  0.05107  0.00070  1.0000 -0.5412221573
O   O83       1.0  0.61055  0.61125  0.56018  1.0000 -0.5412221573
O   O84       1.0  0.05107  0.05037  0.43982  1.0000 -0.5412221573
O   O85       1.0  0.94963  0.38945  0.00070  1.0000 -0.5412221573
O   O86       1.0  0.38875  0.94893  0.99930  1.0000 -0.5412221573
O   O87       1.0  0.38945  0.38875  0.43982  1.0000 -0.5412221573
O   O88       1.0  0.94893  0.94963  0.56018  1.0000 -0.5412221573
O   O89       1.0  0.05951  0.69722  0.00667  1.0000 -0.5092540268
O   O90       1.0  0.69055  0.05284  0.99333  1.0000 -0.5195402322
O   O91       1.0  0.69722  0.69055  0.63771  1.0000 -0.5195402322
O   O92       1.0  0.05284  0.05951  0.36229  1.0000 -0.5195402322
O   O93       1.0  0.94049  0.30278  0.99333  1.0000 -0.5195402322
O   O94       1.0  0.30945  0.94716  0.00667  1.0000 -0.5092540268
O   O95       1.0  0.30278  0.30945  0.36229  1.0000 -0.5195402322
O   O96       1.0  0.94716  0.94049  0.63771  1.0000 -0.5195402322
