# DDEC6 charges by PACMAN v1.1 (https://github.com/mtap-research/PACMAN-charge/)
data_2012[Tb][nan]3[ASR]5
_chemical_formula_sum              "Tb8 H24 C72 S12 O48"
_cell_length_a       10.152
_cell_length_b       17.44
_cell_length_c       17.715
_cell_angle_alpha    90
_cell_angle_beta     90
_cell_angle_gamma    90

_symmetry_space_group_name_H-M    "P 1"
_symmetry_Int_Tables_number       1

loop_
  _symmetry_equiv_pos_as_xyz
  'x, y, z'

loop_
  _atom_site_type_symbol
  _atom_site_label
  _atom_site_symmetry_multiplicity
  _atom_site_fract_x
  _atom_site_fract_y
  _atom_site_fract_z
  _atom_site_occupancy
  _atom_site_charge
Tb  Tb1       1.0  0.66124  0.52088  0.75904  1.0000 2.1115376521
Tb  Tb2       1.0  0.33876  0.47912  0.25904  1.0000 2.1115376521
Tb  Tb3       1.0  0.16124  0.97912  0.25904  1.0000 2.1115376521
Tb  Tb4       1.0  0.83876  0.02088  0.75904  1.0000 2.1115376521
Tb  Tb5       1.0  0.88231  0.32110  0.77287  1.0000 2.0934862662
Tb  Tb6       1.0  0.11769  0.67890  0.27287  1.0000 2.0934862662
Tb  Tb7       1.0  0.38231  0.17890  0.27287  1.0000 2.0934862662
Tb  Tb8       1.0  0.61769  0.82110  0.77287  1.0000 2.0934862662
H   H1        1.0  0.11530  0.37580  0.45410  1.0000 0.12942666
H   H2        1.0  0.88470  0.62420  0.95410  1.0000 0.12942666
H   H3        1.0  0.61530  0.12420  0.95410  1.0000 0.12942666
H   H4        1.0  0.38470  0.87580  0.45410  1.0000 0.12942666
H   H5        1.0  0.02250  0.35940  0.57860  1.0000 0.12942666
H   H6        1.0  0.97750  0.64060  0.07860  1.0000 0.12942666
H   H7        1.0  0.52250  0.14060  0.07860  1.0000 0.12942666
H   H8        1.0  0.47750  0.85940  0.57860  1.0000 0.12942666
H   H9        1.0  0.36170  0.78650  0.07690  1.0000 0.12942666
H   H10       1.0  0.63830  0.21350  0.57690  1.0000 0.12942666
H   H11       1.0  0.86170  0.71350  0.57690  1.0000 0.12942666
H   H12       1.0  0.13830  0.28650  0.07690  1.0000 0.12942666
H   H13       1.0  0.45640  0.79270  0.95020  1.0000 0.1191158611
H   H14       1.0  0.54360  0.20730  0.45020  1.0000 0.1191158611
H   H15       1.0  0.95640  0.70730  0.45020  1.0000 0.1191158611
H   H16       1.0  0.04360  0.29270  0.95020  1.0000 0.1191158611
H   H17       1.0  0.38600  0.45120  0.06370  1.0000 0.12942666
H   H18       1.0  0.61400  0.54880  0.56370  1.0000 0.12942666
H   H19       1.0  0.88600  0.04880  0.56370  1.0000 0.12942666
H   H20       1.0  0.11400  0.95120  0.06370  1.0000 0.12942666
H   H21       1.0  0.48190  0.46700  0.93840  1.0000 0.12942666
H   H22       1.0  0.51810  0.53300  0.43840  1.0000 0.12942666
H   H23       1.0  0.98190  0.03300  0.43840  1.0000 0.12942666
H   H24       1.0  0.01810  0.96700  0.93840  1.0000 0.12942666
C   C1        1.0  0.04920  0.48390  0.45020  1.0000 -0.1090321789
C   C2        1.0  0.95080  0.51610  0.95020  1.0000 -0.1090321789
C   C3        1.0  0.54920  0.01610  0.95020  1.0000 -0.1090321789
C   C4        1.0  0.45080  0.98390  0.45020  1.0000 -0.1090321789
C   C5        1.0  0.06980  0.41430  0.47940  1.0000 -0.1181047664
C   C6        1.0  0.93020  0.58570  0.97940  1.0000 -0.1181047664
C   C7        1.0  0.56980  0.08570  0.97940  1.0000 -0.1090321789
C   C8        1.0  0.43020  0.91430  0.47940  1.0000 -0.1181047664
C   C9        1.0  0.01650  0.40480  0.55120  1.0000 -0.1090321789
C   C10       1.0  0.98350  0.59520  0.05120  1.0000 -0.1090321789
C   C11       1.0  0.51650  0.09520  0.05120  1.0000 -0.1090321789
C   C12       1.0  0.48350  0.90480  0.55120  1.0000 -0.1090321789
C   C13       1.0  0.95540  0.46830  0.57680  1.0000 -0.1291320906
C   C14       1.0  0.04460  0.53170  0.07680  1.0000 -0.1291320906
C   C15       1.0  0.45540  0.03170  0.07680  1.0000 -0.1291320906
C   C16       1.0  0.54460  0.96830  0.57680  1.0000 -0.1291320906
C   C17       1.0  0.88930  0.47900  0.64960  1.0000 0.6489021946
C   C18       1.0  0.11070  0.52100  0.14960  1.0000 0.6489021946
C   C19       1.0  0.38930  0.02100  0.14960  1.0000 0.6489021946
C   C20       1.0  0.61070  0.97900  0.64960  1.0000 0.6489021946
C   C21       1.0  0.09440  0.51640  0.37690  1.0000 0.6592446435
C   C22       1.0  0.90560  0.48360  0.87690  1.0000 0.6592446435
C   C23       1.0  0.59440  0.98360  0.87690  1.0000 0.6592446435
C   C24       1.0  0.40560  0.01640  0.37690  1.0000 0.6592446435
C   C25       1.0  0.40890  0.67280  0.08230  1.0000 -0.1291320906
C   C26       1.0  0.59110  0.32720  0.58230  1.0000 -0.1291320906
C   C27       1.0  0.90890  0.82720  0.58230  1.0000 -0.1291320906
C   C28       1.0  0.09110  0.17280  0.08230  1.0000 -0.1291320906
C   C29       1.0  0.39910  0.74480  0.05210  1.0000 -0.1090321789
C   C30       1.0  0.60090  0.25520  0.55210  1.0000 -0.1090321789
C   C31       1.0  0.89910  0.75520  0.55210  1.0000 -0.1090321789
C   C32       1.0  0.10090  0.24480  0.05210  1.0000 -0.1090321789
C   C33       1.0  0.45270  0.74810  0.97890  1.0000 -0.1181047664
C   C34       1.0  0.54730  0.25190  0.47890  1.0000 -0.1181047664
C   C35       1.0  0.95270  0.75190  0.47890  1.0000 -0.1181047664
C   C36       1.0  0.04730  0.24810  0.97890  1.0000 -0.1181047664
C   C37       1.0  0.49860  0.67870  0.95440  1.0000 -0.1291320906
C   C38       1.0  0.50140  0.32130  0.45440  1.0000 -0.1291320906
C   C39       1.0  0.99860  0.82130  0.45440  1.0000 -0.1291320906
C   C40       1.0  0.00140  0.17870  0.95440  1.0000 -0.1291320906
C   C41       1.0  0.55570  0.66160  0.87910  1.0000 0.6781617571
C   C42       1.0  0.44430  0.33840  0.37910  1.0000 0.6781617571
C   C43       1.0  0.05570  0.83840  0.37910  1.0000 0.6781617571
C   C44       1.0  0.94430  0.16160  0.87910  1.0000 0.6781617571
C   C45       1.0  0.36440  0.64390  0.15670  1.0000 0.6489021946
C   C46       1.0  0.63560  0.35610  0.65670  1.0000 0.6489021946
C   C47       1.0  0.86440  0.85610  0.65670  1.0000 0.6489021946
C   C48       1.0  0.13560  0.14390  0.15670  1.0000 0.6489021946
C   C49       1.0  0.47770  0.34810  0.07450  1.0000 -0.1181047664
C   C50       1.0  0.52230  0.65190  0.57450  1.0000 -0.1181047664
C   C51       1.0  0.97770  0.15190  0.57450  1.0000 -0.1181047664
C   C52       1.0  0.02230  0.84810  0.07450  1.0000 -0.1181047664
C   C53       1.0  0.44160  0.41550  0.04120  1.0000 -0.1291320906
C   C54       1.0  0.55840  0.58450  0.54120  1.0000 -0.1291320906
C   C55       1.0  0.94160  0.08450  0.54120  1.0000 -0.1291320906
C   C56       1.0  0.05840  0.91550  0.04120  1.0000 -0.1291320906
C   C57       1.0  0.49770  0.42490  0.96940  1.0000 -0.1181047664
C   C58       1.0  0.50230  0.57510  0.46940  1.0000 -0.1181047664
C   C59       1.0  0.99770  0.07510  0.46940  1.0000 -0.1181047664
C   C60       1.0  0.00230  0.92490  0.96940  1.0000 -0.1181047664
C   C61       1.0  0.57810  0.36540  0.95000  1.0000 -0.1090321789
C   C62       1.0  0.42190  0.63460  0.45000  1.0000 -0.1090321789
C   C63       1.0  0.07810  0.13460  0.45000  1.0000 -0.1090321789
C   C64       1.0  0.92190  0.86540  0.95000  1.0000 -0.1090321789
C   C65       1.0  0.65550  0.35750  0.87990  1.0000 0.6375431586
C   C66       1.0  0.34450  0.64250  0.37990  1.0000 0.6375431586
C   C67       1.0  0.15550  0.14250  0.37990  1.0000 0.6375431586
C   C68       1.0  0.84450  0.85750  0.87990  1.0000 0.6375431586
C   C69       1.0  0.43740  0.32110  0.15010  1.0000 0.6664768476
C   C70       1.0  0.56260  0.67890  0.65010  1.0000 0.6664768476
C   C71       1.0  0.93740  0.17890  0.65010  1.0000 0.6664768476
C   C72       1.0  0.06260  0.82110  0.15010  1.0000 0.6664768476
S   S1        1.0  0.96180  0.54115  0.51198  1.0000 0.2017113722
S   S2        1.0  0.03820  0.45885  0.01198  1.0000 0.2017113722
S   S3        1.0  0.46180  0.95885  0.01198  1.0000 0.2017113722
S   S4        1.0  0.53820  0.04115  0.51198  1.0000 0.2017113722
S   S5        1.0  0.48170  0.61001  0.02154  1.0000 0.2017113722
S   S6        1.0  0.51830  0.38999  0.52154  1.0000 0.2017113722
S   S7        1.0  0.98170  0.88999  0.52154  1.0000 0.2017113722
S   S8        1.0  0.01830  0.11001  0.02154  1.0000 0.2017113722
S   S9        1.0  0.58170  0.29672  0.01870  1.0000 0.2017113722
S   S10       1.0  0.41830  0.70328  0.51870  1.0000 0.2017113722
S   S11       1.0  0.08170  0.20328  0.51870  1.0000 0.2017113722
S   S12       1.0  0.91830  0.79672  0.01870  1.0000 0.2017113722
O   O1        1.0  0.82470  0.53880  0.66210  1.0000 -0.6075447928
O   O2        1.0  0.17530  0.46120  0.16210  1.0000 -0.6075447928
O   O3        1.0  0.32470  0.96120  0.16210  1.0000 -0.6075447928
O   O4        1.0  0.67530  0.03880  0.66210  1.0000 -0.6075447928
O   O5        1.0  0.89290  0.42380  0.69550  1.0000 -0.7335878145
O   O6        1.0  0.10710  0.57620  0.19550  1.0000 -0.7350951266
O   O7        1.0  0.39290  0.07620  0.19550  1.0000 -0.7335878145
O   O8        1.0  0.60710  0.92380  0.69550  1.0000 -0.7350951266
O   O9        1.0  0.06800  0.58600  0.36480  1.0000 -0.686356031
O   O10       1.0  0.93200  0.41400  0.86480  1.0000 -0.686356031
O   O11       1.0  0.56800  0.91400  0.86480  1.0000 -0.686356031
O   O12       1.0  0.43200  0.08600  0.36480  1.0000 -0.686356031
O   O13       1.0  0.15140  0.47000  0.33250  1.0000 -0.6620026262
O   O14       1.0  0.84860  0.53000  0.83250  1.0000 -0.6620026262
O   O15       1.0  0.65140  0.03000  0.83250  1.0000 -0.6620026262
O   O16       1.0  0.34860  0.97000  0.33250  1.0000 -0.6620026262
O   O17       1.0  0.58920  0.59250  0.86540  1.0000 -0.686356031
O   O18       1.0  0.41080  0.40750  0.36540  1.0000 -0.686356031
O   O19       1.0  0.08920  0.90750  0.36540  1.0000 -0.686356031
O   O20       1.0  0.91080  0.09250  0.86540  1.0000 -0.686356031
O   O21       1.0  0.55390  0.71410  0.83270  1.0000 -0.6620026262
O   O22       1.0  0.44610  0.28590  0.33270  1.0000 -0.6620026262
O   O23       1.0  0.05390  0.78590  0.33270  1.0000 -0.6620026262
O   O24       1.0  0.94610  0.21410  0.83270  1.0000 -0.6620026262
O   O25       1.0  0.38430  0.57480  0.17060  1.0000 -0.686356031
O   O26       1.0  0.61570  0.42520  0.67060  1.0000 -0.686356031
O   O27       1.0  0.88430  0.92520  0.67060  1.0000 -0.686356031
O   O28       1.0  0.11570  0.07480  0.17060  1.0000 -0.686356031
O   O29       1.0  0.30880  0.69250  0.20030  1.0000 -0.6620026262
O   O30       1.0  0.69120  0.30750  0.70030  1.0000 -0.6620026262
O   O31       1.0  0.80880  0.80750  0.70030  1.0000 -0.6620026262
O   O32       1.0  0.19120  0.19250  0.20030  1.0000 -0.6620026262
O   O33       1.0  0.72270  0.29950  0.86810  1.0000 -0.6003431659
O   O34       1.0  0.27730  0.70050  0.36810  1.0000 -0.6003431659
O   O35       1.0  0.22270  0.20050  0.36810  1.0000 -0.6003431659
O   O36       1.0  0.77730  0.79950  0.86810  1.0000 -0.6003431659
O   O37       1.0  0.65200  0.41440  0.83450  1.0000 -0.7512363624
O   O38       1.0  0.34800  0.58560  0.33450  1.0000 -0.7512363624
O   O39       1.0  0.15200  0.08560  0.33450  1.0000 -0.7512363624
O   O40       1.0  0.84800  0.91440  0.83450  1.0000 -0.7512363624
O   O41       1.0  0.45460  0.25210  0.16780  1.0000 -0.652151091
O   O42       1.0  0.54540  0.74790  0.66780  1.0000 -0.652151091
O   O43       1.0  0.95460  0.24790  0.66780  1.0000 -0.652151091
O   O44       1.0  0.04540  0.75210  0.16780  1.0000 -0.652151091
O   O45       1.0  0.38450  0.36970  0.19370  1.0000 -0.7021371406
O   O46       1.0  0.61550  0.63030  0.69370  1.0000 -0.7021371406
O   O47       1.0  0.88450  0.13030  0.69370  1.0000 -0.7021371406
O   O48       1.0  0.11550  0.86970  0.19370  1.0000 -0.7021371406
