# DDEC6 charges by PACMAN v1.1 (https://github.com/mtap-research/PACMAN-charge/)
data_2012[Mn][sra]3[ASR]1
_chemical_formula_sum              "Mn12 H160 C208 O76"
_cell_length_a       24.2334
_cell_length_b       11.3031
_cell_length_c       36.079
_cell_angle_alpha    90
_cell_angle_beta     98.213
_cell_angle_gamma    90

_symmetry_space_group_name_H-M    "P 1"
_symmetry_Int_Tables_number       1

loop_
  _symmetry_equiv_pos_as_xyz
  'x, y, z'

loop_
  _atom_site_type_symbol
  _atom_site_label
  _atom_site_symmetry_multiplicity
  _atom_site_fract_x
  _atom_site_fract_y
  _atom_site_fract_z
  _atom_site_occupancy
  _atom_site_charge
Mn  Mn1       1.0  0.28415  0.12099  0.62105  1.0000 1.0724955737
Mn  Mn2       1.0  0.71585  0.62099  0.87895  1.0000 1.0724955737
Mn  Mn3       1.0  0.71585  0.87901  0.37895  1.0000 1.0724955737
Mn  Mn4       1.0  0.28415  0.37901  0.12105  1.0000 1.0724955737
Mn  Mn5       1.0  0.32564  0.84453  0.65858  1.0000 0.9932332127
Mn  Mn6       1.0  0.67436  0.34453  0.84142  1.0000 0.9932332127
Mn  Mn7       1.0  0.67436  0.15547  0.34142  1.0000 0.9932332127
Mn  Mn8       1.0  0.32564  0.65547  0.15858  1.0000 0.9932332127
Mn  Mn9       1.0  0.69660  0.60115  0.40289  1.0000 0.9681236832
Mn  Mn10      1.0  0.30340  0.10115  0.09711  1.0000 0.9681236832
Mn  Mn11      1.0  0.30340  0.39885  0.59711  1.0000 0.9681236832
Mn  Mn12      1.0  0.69660  0.89885  0.90289  1.0000 0.9681236832
H   H1        1.0  0.27740  0.09990  0.41320  1.0000 0.0988957113
H   H2        1.0  0.72260  0.59990  0.08680  1.0000 0.0988957113
H   H3        1.0  0.72260  0.90010  0.58680  1.0000 0.0988957113
H   H4        1.0  0.27740  0.40010  0.91320  1.0000 0.0988957113
H   H5        1.0  0.34190  0.07440  0.42190  1.0000 0.0924074589
H   H6        1.0  0.65810  0.57440  0.07810  1.0000 0.0924074589
H   H7        1.0  0.65810  0.92560  0.57810  1.0000 0.0924074589
H   H8        1.0  0.34190  0.42560  0.92190  1.0000 0.0924074589
H   H9        1.0  0.35320  0.90350  0.33910  1.0000 0.0988957113
H   H10       1.0  0.64680  0.40350  0.16090  1.0000 0.0988957113
H   H11       1.0  0.64680  0.09650  0.66090  1.0000 0.0988957113
H   H12       1.0  0.35320  0.59650  0.83910  1.0000 0.0988957113
H   H13       1.0  0.34900  0.85430  0.37930  1.0000 0.0988957113
H   H14       1.0  0.65100  0.35430  0.12070  1.0000 0.0988957113
H   H15       1.0  0.65100  0.14570  0.62070  1.0000 0.0988957113
H   H16       1.0  0.34900  0.64570  0.87930  1.0000 0.0988957113
H   H17       1.0  0.35000  0.16760  0.36230  1.0000 0.0988957113
H   H18       1.0  0.65000  0.66760  0.13770  1.0000 0.0988957113
H   H19       1.0  0.65000  0.83240  0.63770  1.0000 0.0988957113
H   H20       1.0  0.35000  0.33240  0.86230  1.0000 0.0988957113
H   H21       1.0  0.28530  0.18100  0.35020  1.0000 0.0988957113
H   H22       1.0  0.71470  0.68100  0.14980  1.0000 0.0988957113
H   H23       1.0  0.71470  0.81900  0.64980  1.0000 0.0988957113
H   H24       1.0  0.28530  0.31900  0.85020  1.0000 0.0988957113
H   H25       1.0  0.24540  0.88620  0.36540  1.0000 0.0924074589
H   H26       1.0  0.75460  0.38620  0.13460  1.0000 0.0924074589
H   H27       1.0  0.75460  0.11380  0.63460  1.0000 0.0924074589
H   H28       1.0  0.24540  0.61380  0.86540  1.0000 0.0924074589
H   H29       1.0  0.25510  0.93430  0.32600  1.0000 0.0988957113
H   H30       1.0  0.74490  0.43430  0.17400  1.0000 0.0988957113
H   H31       1.0  0.74490  0.06570  0.67400  1.0000 0.0988957113
H   H32       1.0  0.25510  0.56570  0.82600  1.0000 0.0988957113
H   H33       1.0  0.27530  0.75560  0.46330  1.0000 0.1368795935
H   H34       1.0  0.72470  0.25560  0.03670  1.0000 0.1368795935
H   H35       1.0  0.72470  0.24440  0.53670  1.0000 0.1368795935
H   H36       1.0  0.27530  0.74440  0.96330  1.0000 0.1368795935
H   H37       1.0  0.28390  0.72430  0.52600  1.0000 0.1284825476
H   H38       1.0  0.71610  0.22430  0.97400  1.0000 0.1284825476
H   H39       1.0  0.71610  0.27570  0.47400  1.0000 0.1284825476
H   H40       1.0  0.28390  0.77570  0.02600  1.0000 0.1284825476
H   H41       1.0  0.33333  0.05800  0.54480  1.0000 0.1284825476
H   H42       1.0  0.66667  0.55800  0.95520  1.0000 0.1284825476
H   H43       1.0  0.66667  0.94200  0.45520  1.0000 0.1284825476
H   H44       1.0  0.33333  0.44200  0.04480  1.0000 0.1284825476
H   H45       1.0  0.32590  0.08810  0.48070  1.0000 0.1284825476
H   H46       1.0  0.67410  0.58810  0.01930  1.0000 0.1284825476
H   H47       1.0  0.67410  0.91190  0.51930  1.0000 0.1284825476
H   H48       1.0  0.32590  0.41190  0.98070  1.0000 0.1284825476
H   H49       1.0  0.50260  0.04870  0.39630  1.0000 0.1284825476
H   H50       1.0  0.49740  0.54870  0.10370  1.0000 0.1284825476
H   H51       1.0  0.49740  0.95130  0.60370  1.0000 0.1284825476
H   H52       1.0  0.50260  0.45130  0.89630  1.0000 0.1284825476
H   H53       1.0  0.58500  0.95090  0.39700  1.0000 0.1284825476
H   H54       1.0  0.41500  0.45090  0.10300  1.0000 0.1284825476
H   H55       1.0  0.41500  0.04910  0.60300  1.0000 0.1284825476
H   H56       1.0  0.58500  0.54910  0.89700  1.0000 0.1284825476
H   H57       1.0  0.50250  0.65830  0.36040  1.0000 0.1199021255
H   H58       1.0  0.49750  0.15830  0.13960  1.0000 0.1199021255
H   H59       1.0  0.49750  0.34170  0.63960  1.0000 0.1199021255
H   H60       1.0  0.50250  0.84170  0.86040  1.0000 0.1199021255
H   H61       1.0  0.41830  0.75850  0.35890  1.0000 0.1199021255
H   H62       1.0  0.58170  0.25850  0.14110  1.0000 0.1199021255
H   H63       1.0  0.58170  0.24150  0.64110  1.0000 0.1199021255
H   H64       1.0  0.41830  0.74150  0.85890  1.0000 0.1199021255
H   H65       1.0  0.31330  0.33350  0.31760  1.0000 0.1199021255
H   H66       1.0  0.68670  0.83350  0.18240  1.0000 0.1199021255
H   H67       1.0  0.68670  0.66650  0.68240  1.0000 0.1199021255
H   H68       1.0  0.31330  0.16650  0.81760  1.0000 0.1199021255
H   H69       1.0  0.32260  0.46870  0.27130  1.0000 0.1199021255
H   H70       1.0  0.67740  0.96870  0.22870  1.0000 0.1199021255
H   H71       1.0  0.67740  0.53130  0.72870  1.0000 0.1199021255
H   H72       1.0  0.32260  0.03130  0.77130  1.0000 0.1199021255
H   H73       1.0  0.35420  0.20880  0.20250  1.0000 0.1368795935
H   H74       1.0  0.64580  0.70880  0.29750  1.0000 0.1368795935
H   H75       1.0  0.64580  0.79120  0.79750  1.0000 0.1368795935
H   H76       1.0  0.35420  0.29120  0.70250  1.0000 0.1368795935
H   H77       1.0  0.34570  0.07290  0.24810  1.0000 0.1368795935
H   H78       1.0  0.65430  0.57290  0.25190  1.0000 0.1368795935
H   H79       1.0  0.65430  0.92710  0.75190  1.0000 0.1368795935
H   H80       1.0  0.34570  0.42710  0.74810  1.0000 0.1368795935
H   H81       1.0  0.15100  0.93080  0.36140  1.0000 0.0988957113
H   H82       1.0  0.84900  0.43080  0.13860  1.0000 0.0988957113
H   H83       1.0  0.84900  0.06920  0.63860  1.0000 0.0988957113
H   H84       1.0  0.15100  0.56920  0.86140  1.0000 0.0988957113
H   H85       1.0  0.15190  0.95850  0.31890  1.0000 0.0924074589
H   H86       1.0  0.84810  0.45850  0.18110  1.0000 0.0924074589
H   H87       1.0  0.84810  0.04150  0.68110  1.0000 0.0924074589
H   H88       1.0  0.15190  0.54150  0.81890  1.0000 0.0924074589
H   H89       1.0  0.16030  0.21580  0.37170  1.0000 0.0988957113
H   H90       1.0  0.83970  0.71580  0.12830  1.0000 0.0988957113
H   H91       1.0  0.83970  0.78420  0.62830  1.0000 0.0988957113
H   H92       1.0  0.16030  0.28420  0.87170  1.0000 0.0988957113
H   H93       1.0  0.09590  0.24330  0.36620  1.0000 0.0988957113
H   H94       1.0  0.90410  0.74330  0.13380  1.0000 0.0988957113
H   H95       1.0  0.90410  0.75670  0.63380  1.0000 0.0988957113
H   H96       1.0  0.09590  0.25670  0.86620  1.0000 0.0988957113
H   H97       1.0  0.05230  0.98610  0.31230  1.0000 0.0988957113
H   H98       1.0  0.94770  0.48610  0.18770  1.0000 0.0988957113
H   H99       1.0  0.94770  0.01390  0.68770  1.0000 0.0988957113
H   H100      1.0  0.05230  0.51390  0.81230  1.0000 0.0988957113
H   H101      1.0  0.05100  0.00120  0.35550  1.0000 0.0988957113
H   H102      1.0  0.94900  0.50120  0.14450  1.0000 0.0988957113
H   H103      1.0  0.94900  0.99880  0.64450  1.0000 0.0988957113
H   H104      1.0  0.05100  0.49880  0.85550  1.0000 0.0988957113
H   H105      1.0  0.09760  0.22670  0.29710  1.0000 0.0988957113
H   H106      1.0  0.90240  0.72670  0.20290  1.0000 0.0988957113
H   H107      1.0  0.90240  0.77330  0.70290  1.0000 0.0988957113
H   H108      1.0  0.09760  0.27330  0.79710  1.0000 0.0988957113
H   H109      1.0  0.16170  0.19650  0.30510  1.0000 0.0988957113
H   H110      1.0  0.83830  0.69650  0.19490  1.0000 0.0988957113
H   H111      1.0  0.83830  0.80350  0.69490  1.0000 0.0988957113
H   H112      1.0  0.16170  0.30350  0.80510  1.0000 0.0988957113
H   H113      1.0  0.16300  0.31780  0.42420  1.0000 0.1199021255
H   H114      1.0  0.83700  0.81780  0.07580  1.0000 0.1199021255
H   H115      1.0  0.83700  0.68220  0.57580  1.0000 0.1199021255
H   H116      1.0  0.16300  0.18220  0.92420  1.0000 0.1199021255
H   H117      1.0  0.20540  0.36650  0.48550  1.0000 0.1199021255
H   H118      1.0  0.79460  0.86650  0.01450  1.0000 0.1199021255
H   H119      1.0  0.79460  0.63350  0.51450  1.0000 0.1199021255
H   H120      1.0  0.20540  0.13350  0.98550  1.0000 0.1199021255
H   H121      1.0  0.18560  0.03480  0.51760  1.0000 0.1199021255
H   H122      1.0  0.81440  0.53480  0.98240  1.0000 0.1199021255
H   H123      1.0  0.81440  0.96520  0.48240  1.0000 0.1199021255
H   H124      1.0  0.18560  0.46520  0.01760  1.0000 0.1199021255
H   H125      1.0  0.14050  0.98620  0.45900  1.0000 0.1368795935
H   H126      1.0  0.85950  0.48620  0.04100  1.0000 0.1368795935
H   H127      1.0  0.85950  0.01380  0.54100  1.0000 0.1368795935
H   H128      1.0  0.14050  0.51380  0.95900  1.0000 0.1368795935
H   H129      1.0  0.94070  0.28250  0.32450  1.0000 0.1284825476
H   H130      1.0  0.05930  0.78250  0.17550  1.0000 0.1284825476
H   H131      1.0  0.05930  0.71750  0.67550  1.0000 0.1284825476
H   H132      1.0  0.94070  0.21750  0.82450  1.0000 0.1284825476
H   H133      1.0  0.84890  0.25440  0.33140  1.0000 0.1199021255
H   H134      1.0  0.15110  0.75440  0.16860  1.0000 0.1199021255
H   H135      1.0  0.15110  0.74560  0.66860  1.0000 0.1199021255
H   H136      1.0  0.84890  0.24560  0.83140  1.0000 0.1199021255
H   H137      1.0  0.87450  0.90810  0.34220  1.0000 0.1284825476
H   H138      1.0  0.12550  0.40810  0.15780  1.0000 0.1284825476
H   H139      1.0  0.12550  0.09190  0.65780  1.0000 0.1284825476
H   H140      1.0  0.87450  0.59190  0.84220  1.0000 0.1284825476
H   H141      1.0  0.96520  0.93360  0.33300  1.0000 0.1199021255
H   H142      1.0  0.03480  0.43360  0.16700  1.0000 0.1199021255
H   H143      1.0  0.03480  0.06640  0.66700  1.0000 0.1199021255
H   H144      1.0  0.96520  0.56640  0.83300  1.0000 0.1199021255
H   H145      1.0  0.14950  0.92020  0.23260  1.0000 0.1284825476
H   H146      1.0  0.85050  0.42020  0.26740  1.0000 0.1284825476
H   H147      1.0  0.85050  0.07980  0.76740  1.0000 0.1284825476
H   H148      1.0  0.14950  0.57980  0.73260  1.0000 0.1284825476
H   H149      1.0  0.20480  0.92690  0.18610  1.0000 0.1199021255
H   H150      1.0  0.79520  0.42690  0.31390  1.0000 0.1199021255
H   H151      1.0  0.79520  0.07310  0.81390  1.0000 0.1199021255
H   H152      1.0  0.20480  0.57310  0.68610  1.0000 0.1199021255
H   H153      1.0  0.21180  0.27980  0.19450  1.0000 0.1199021255
H   H154      1.0  0.78820  0.77980  0.30550  1.0000 0.1199021255
H   H155      1.0  0.78820  0.72020  0.80550  1.0000 0.1199021255
H   H156      1.0  0.21180  0.22020  0.69450  1.0000 0.1199021255
H   H157      1.0  0.16100  0.27150  0.24470  1.0000 0.1284825476
H   H158      1.0  0.83900  0.77150  0.25530  1.0000 0.1284825476
H   H159      1.0  0.83900  0.72850  0.75530  1.0000 0.1284825476
H   H160      1.0  0.16100  0.22850  0.74470  1.0000 0.1284825476
C   C1        1.0  0.30750  0.01330  0.36888  1.0000 0.0766843646
C   C2        1.0  0.69250  0.51330  0.13112  1.0000 0.0766843646
C   C3        1.0  0.69250  0.98670  0.63112  1.0000 0.0766843646
C   C4        1.0  0.30750  0.48670  0.86888  1.0000 0.0766843646
C   C5        1.0  0.30630  0.04240  0.41064  1.0000 -0.0793801621
C   C6        1.0  0.69370  0.54240  0.08936  1.0000 -0.0793801621
C   C7        1.0  0.69370  0.95760  0.58936  1.0000 -0.091239704
C   C8        1.0  0.30630  0.45760  0.91064  1.0000 -0.091239704
C   C9        1.0  0.35400  0.92540  0.36512  1.0000 -0.0793801621
C   C10       1.0  0.64600  0.42540  0.13488  1.0000 -0.0793801621
C   C11       1.0  0.64600  0.07460  0.63488  1.0000 -0.0793801621
C   C12       1.0  0.35400  0.57460  0.86512  1.0000 -0.0793801621
C   C13       1.0  0.31690  0.12860  0.34981  1.0000 -0.091239704
C   C14       1.0  0.68310  0.62860  0.15019  1.0000 -0.091239704
C   C15       1.0  0.68310  0.87140  0.65019  1.0000 -0.091239704
C   C16       1.0  0.31690  0.37140  0.84981  1.0000 -0.091239704
C   C17       1.0  0.25290  0.95670  0.35166  1.0000 -0.091239704
C   C18       1.0  0.74710  0.45670  0.14834  1.0000 -0.091239704
C   C19       1.0  0.74710  0.04330  0.64834  1.0000 -0.091239704
C   C20       1.0  0.25290  0.54330  0.85166  1.0000 -0.091239704
C   C21       1.0  0.30080  0.92470  0.46613  1.0000 0.24247756
C   C22       1.0  0.69920  0.42470  0.03387  1.0000 0.24247756
C   C23       1.0  0.69920  0.07530  0.53387  1.0000 0.24247756
C   C24       1.0  0.30080  0.57530  0.96613  1.0000 0.24247756
C   C25       1.0  0.28760  0.81640  0.47981  1.0000 -0.201321593
C   C26       1.0  0.71240  0.31640  0.02019  1.0000 -0.201321593
C   C27       1.0  0.71240  0.18360  0.52019  1.0000 -0.201321593
C   C28       1.0  0.28760  0.68360  0.97981  1.0000 -0.201321593
C   C29       1.0  0.29260  0.79820  0.51710  1.0000 -0.0793801621
C   C30       1.0  0.70740  0.29820  0.98290  1.0000 -0.0793801621
C   C31       1.0  0.70740  0.20180  0.48290  1.0000 -0.0793801621
C   C32       1.0  0.29260  0.70180  0.01710  1.0000 -0.0793801621
C   C33       1.0  0.31030  0.88780  0.54235  1.0000 -0.0614004978
C   C34       1.0  0.68970  0.38780  0.95765  1.0000 -0.0614004978
C   C35       1.0  0.68970  0.11220  0.45765  1.0000 -0.0614004978
C   C36       1.0  0.31030  0.61220  0.04235  1.0000 -0.0614004978
C   C37       1.0  0.32210  0.99620  0.52843  1.0000 -0.070833989
C   C38       1.0  0.67790  0.49620  0.97157  1.0000 -0.070833989
C   C39       1.0  0.67790  0.00380  0.47157  1.0000 -0.070833989
C   C40       1.0  0.32210  0.50380  0.02843  1.0000 -0.070833989
C   C41       1.0  0.31750  0.01450  0.49001  1.0000 -0.2294872109
C   C42       1.0  0.68250  0.51450  0.00999  1.0000 -0.2294872109
C   C43       1.0  0.68250  0.98550  0.50999  1.0000 -0.2294872109
C   C44       1.0  0.31750  0.48550  0.99001  1.0000 -0.2294872109
C   C45       1.0  0.31520  0.86540  0.58280  1.0000 0.5696427538
C   C46       1.0  0.68480  0.36540  0.91720  1.0000 0.5696427538
C   C47       1.0  0.68480  0.13460  0.41720  1.0000 0.5696427538
C   C48       1.0  0.31520  0.63460  0.08280  1.0000 0.5696427538
C   C49       1.0  0.45240  0.91250  0.37756  1.0000 0.2505750409
C   C50       1.0  0.54760  0.41250  0.12244  1.0000 0.2505750409
C   C51       1.0  0.54760  0.08750  0.62244  1.0000 0.2505750409
C   C52       1.0  0.45240  0.58750  0.87756  1.0000 0.2505750409
C   C53       1.0  0.50260  0.96970  0.38910  1.0000 -0.201321593
C   C54       1.0  0.49740  0.46970  0.11090  1.0000 -0.201321593
C   C55       1.0  0.49740  0.03030  0.61090  1.0000 -0.201321593
C   C56       1.0  0.50260  0.53030  0.88910  1.0000 -0.201321593
C   C57       1.0  0.55160  0.91110  0.38984  1.0000 -0.0793801621
C   C58       1.0  0.44840  0.41110  0.11016  1.0000 -0.0793801621
C   C59       1.0  0.44840  0.08890  0.61016  1.0000 -0.0793801621
C   C60       1.0  0.55160  0.58890  0.88984  1.0000 -0.0793801621
C   C61       1.0  0.55230  0.79390  0.38015  1.0000 -0.051727464
C   C62       1.0  0.44770  0.29390  0.11985  1.0000 -0.051727464
C   C63       1.0  0.44770  0.20610  0.61985  1.0000 -0.051727464
C   C64       1.0  0.55230  0.70610  0.88015  1.0000 -0.051727464
C   C65       1.0  0.50230  0.73700  0.36792  1.0000 -0.070833989
C   C66       1.0  0.49770  0.23700  0.13208  1.0000 -0.070833989
C   C67       1.0  0.49770  0.26300  0.63208  1.0000 -0.070833989
C   C68       1.0  0.50230  0.76300  0.86792  1.0000 -0.070833989
C   C69       1.0  0.45190  0.79690  0.36683  1.0000 -0.2462993213
C   C70       1.0  0.54810  0.29690  0.13317  1.0000 -0.2462993213
C   C71       1.0  0.54810  0.20310  0.63317  1.0000 -0.2462993213
C   C72       1.0  0.45190  0.70310  0.86683  1.0000 -0.2462993213
C   C73       1.0  0.60520  0.72630  0.38367  1.0000 0.5696427538
C   C74       1.0  0.39480  0.22630  0.11633  1.0000 0.5696427538
C   C75       1.0  0.39480  0.27370  0.61633  1.0000 0.5696427538
C   C76       1.0  0.60520  0.77370  0.88367  1.0000 0.5696427538
C   C77       1.0  0.32830  0.18850  0.28757  1.0000 0.2589589818
C   C78       1.0  0.67170  0.68850  0.21243  1.0000 0.2589589818
C   C79       1.0  0.67170  0.81150  0.71243  1.0000 0.2589589818
C   C80       1.0  0.32830  0.31150  0.78757  1.0000 0.2589589818
C   C81       1.0  0.32140  0.30820  0.29446  1.0000 -0.2462993213
C   C82       1.0  0.67860  0.80820  0.20554  1.0000 -0.2462993213
C   C83       1.0  0.67860  0.69180  0.70554  1.0000 -0.2462993213
C   C84       1.0  0.32140  0.19180  0.79446  1.0000 -0.2462993213
C   C85       1.0  0.32670  0.38850  0.26663  1.0000 -0.070833989
C   C86       1.0  0.67330  0.88850  0.23337  1.0000 -0.070833989
C   C87       1.0  0.67330  0.61150  0.73337  1.0000 -0.070833989
C   C88       1.0  0.32670  0.11150  0.76663  1.0000 -0.070833989
C   C89       1.0  0.33820  0.35270  0.23153  1.0000 -0.051727464
C   C90       1.0  0.66180  0.85270  0.26847  1.0000 -0.051727464
C   C91       1.0  0.66180  0.64730  0.76847  1.0000 -0.051727464
C   C92       1.0  0.33820  0.14730  0.73153  1.0000 -0.051727464
C   C93       1.0  0.34560  0.23410  0.22556  1.0000 -0.070833989
C   C94       1.0  0.65440  0.73410  0.27444  1.0000 -0.070833989
C   C95       1.0  0.65440  0.76590  0.77444  1.0000 -0.070833989
C   C96       1.0  0.34560  0.26590  0.72556  1.0000 -0.070833989
C   C97       1.0  0.34050  0.15280  0.25278  1.0000 -0.2181083566
C   C98       1.0  0.65950  0.65280  0.24722  1.0000 -0.2181083566
C   C99       1.0  0.65950  0.84720  0.74722  1.0000 -0.2181083566
C   C100      1.0  0.34050  0.34720  0.75278  1.0000 -0.2181083566
C   C101      1.0  0.34010  0.44030  0.20096  1.0000 0.5897602974
C   C102      1.0  0.65990  0.94030  0.29904  1.0000 0.5897602974
C   C103      1.0  0.65990  0.55970  0.79904  1.0000 0.5897602974
C   C104      1.0  0.34010  0.05970  0.70096  1.0000 0.5897602974
C   C105      1.0  0.15580  0.99180  0.34360  1.0000 -0.0978099885
C   C106      1.0  0.84420  0.49180  0.15640  1.0000 -0.0978099885
C   C107      1.0  0.84420  0.00820  0.65640  1.0000 -0.0978099885
C   C108      1.0  0.15580  0.50820  0.84360  1.0000 -0.0978099885
C   C109      1.0  0.11500  0.09410  0.33732  1.0000 0.0625664382
C   C110      1.0  0.88500  0.59410  0.16268  1.0000 0.0625664382
C   C111      1.0  0.88500  0.90590  0.66268  1.0000 0.0625664382
C   C112      1.0  0.11500  0.40590  0.83732  1.0000 0.0625664382
C   C113      1.0  0.12340  0.18060  0.36970  1.0000 -0.0978099885
C   C114      1.0  0.87660  0.68060  0.13030  1.0000 -0.0978099885
C   C115      1.0  0.87660  0.81940  0.63030  1.0000 -0.0978099885
C   C116      1.0  0.12340  0.31940  0.86970  1.0000 -0.0978099885
C   C117      1.0  0.05680  0.04250  0.33276  1.0000 -0.091239704
C   C118      1.0  0.94320  0.54250  0.16724  1.0000 -0.091239704
C   C119      1.0  0.94320  0.95750  0.66724  1.0000 -0.091239704
C   C120      1.0  0.05680  0.45750  0.83276  1.0000 -0.091239704
C   C121      1.0  0.12450  0.16280  0.30178  1.0000 -0.091239704
C   C122      1.0  0.87550  0.66280  0.19822  1.0000 -0.091239704
C   C123      1.0  0.87550  0.83720  0.69822  1.0000 -0.091239704
C   C124      1.0  0.12450  0.33720  0.80178  1.0000 -0.091239704
C   C125      1.0  0.14600  0.14850  0.43650  1.0000 0.2505750409
C   C126      1.0  0.85400  0.64850  0.06350  1.0000 0.2505750409
C   C127      1.0  0.85400  0.85150  0.56350  1.0000 0.2505750409
C   C128      1.0  0.14600  0.35150  0.93650  1.0000 0.2505750409
C   C129      1.0  0.16650  0.26140  0.44314  1.0000 -0.2586909593
C   C130      1.0  0.83350  0.76140  0.05686  1.0000 -0.2586909593
C   C131      1.0  0.83350  0.73860  0.55686  1.0000 -0.2586909593
C   C132      1.0  0.16650  0.23860  0.94314  1.0000 -0.2586909593
C   C133      1.0  0.19330  0.28960  0.48006  1.0000 -0.0793801621
C   C134      1.0  0.80670  0.78960  0.01994  1.0000 -0.0793801621
C   C135      1.0  0.80670  0.71040  0.51994  1.0000 -0.0793801621
C   C136      1.0  0.19330  0.21040  0.98006  1.0000 -0.0793801621
C   C137      1.0  0.20120  0.20590  0.50721  1.0000 -0.070833989
C   C138      1.0  0.79880  0.70590  0.99279  1.0000 -0.070833989
C   C139      1.0  0.79880  0.79410  0.49279  1.0000 -0.070833989
C   C140      1.0  0.20120  0.29410  0.00721  1.0000 -0.070833989
C   C141      1.0  0.18080  0.09230  0.49901  1.0000 -0.070833989
C   C142      1.0  0.81920  0.59230  0.00099  1.0000 -0.070833989
C   C143      1.0  0.81920  0.90770  0.50099  1.0000 -0.070833989
C   C144      1.0  0.18080  0.40770  0.99901  1.0000 -0.070833989
C   C145      1.0  0.15360  0.06280  0.46399  1.0000 -0.2294872109
C   C146      1.0  0.84640  0.56280  0.03601  1.0000 -0.2294872109
C   C147      1.0  0.84640  0.93720  0.53601  1.0000 -0.2294872109
C   C148      1.0  0.15360  0.43720  0.96399  1.0000 -0.2294872109
C   C149      1.0  0.23160  0.23300  0.54496  1.0000 0.5959920822
C   C150      1.0  0.76840  0.73300  0.95504  1.0000 0.5959920822
C   C151      1.0  0.76840  0.76700  0.45504  1.0000 0.5959920822
C   C152      1.0  0.23160  0.26700  0.04496  1.0000 0.5959920822
C   C153      1.0  0.96290  0.10880  0.32871  1.0000 0.2505750409
C   C154      1.0  0.03710  0.60880  0.17129  1.0000 0.2505750409
C   C155      1.0  0.03710  0.89120  0.67129  1.0000 0.2505750409
C   C156      1.0  0.96290  0.39120  0.82871  1.0000 0.2505750409
C   C157      1.0  0.92740  0.20670  0.32790  1.0000 -0.2181083566
C   C158      1.0  0.07260  0.70670  0.17210  1.0000 -0.2181083566
C   C159      1.0  0.07260  0.79330  0.67210  1.0000 -0.2181083566
C   C160      1.0  0.92740  0.29330  0.82790  1.0000 -0.2181083566
C   C161      1.0  0.87250  0.18930  0.33230  1.0000 -0.091239704
C   C162      1.0  0.12750  0.68930  0.16770  1.0000 -0.091239704
C   C163      1.0  0.12750  0.81070  0.66770  1.0000 -0.091239704
C   C164      1.0  0.87250  0.31070  0.83230  1.0000 -0.091239704
C   C165      1.0  0.85160  0.07990  0.33798  1.0000 -0.0614004978
C   C166      1.0  0.14840  0.57990  0.16202  1.0000 -0.0614004978
C   C167      1.0  0.14840  0.92010  0.66202  1.0000 -0.0614004978
C   C168      1.0  0.85160  0.42010  0.83798  1.0000 -0.0614004978
C   C169      1.0  0.88760  0.98380  0.33841  1.0000 -0.0793801621
C   C170      1.0  0.11240  0.48380  0.16159  1.0000 -0.0793801621
C   C171      1.0  0.11240  0.01620  0.66159  1.0000 -0.0793801621
C   C172      1.0  0.88760  0.51620  0.83841  1.0000 -0.0793801621
C   C173      1.0  0.94210  0.99920  0.33333  1.0000 -0.2294872109
C   C174      1.0  0.05790  0.49920  0.16667  1.0000 -0.2294872109
C   C175      1.0  0.05790  0.00080  0.66667  1.0000 -0.2294872109
C   C176      1.0  0.94210  0.50080  0.83333  1.0000 -0.2294872109
C   C177      1.0  0.79350  0.06390  0.34570  1.0000 0.5897602974
C   C178      1.0  0.20650  0.56390  0.15430  1.0000 0.5897602974
C   C179      1.0  0.20650  0.93610  0.65430  1.0000 0.5897602974
C   C180      1.0  0.79350  0.43610  0.84570  1.0000 0.5897602974
C   C181      1.0  0.15030  0.09510  0.24355  1.0000 0.2505750409
C   C182      1.0  0.84970  0.59510  0.25645  1.0000 0.2505750409
C   C183      1.0  0.84970  0.90490  0.75645  1.0000 0.2505750409
C   C184      1.0  0.15030  0.40490  0.74355  1.0000 0.2505750409
C   C185      1.0  0.16300  0.99250  0.22551  1.0000 -0.2294872109
C   C186      1.0  0.83700  0.49250  0.27449  1.0000 -0.2181083566
C   C187      1.0  0.83700  0.00750  0.77449  1.0000 -0.2181083566
C   C188      1.0  0.16300  0.50750  0.72551  1.0000 -0.2181083566
C   C189      1.0  0.19520  0.99660  0.19727  1.0000 -0.0793801621
C   C190      1.0  0.80480  0.49660  0.30273  1.0000 -0.0793801621
C   C191      1.0  0.80480  0.00340  0.80273  1.0000 -0.0793801621
C   C192      1.0  0.19520  0.50340  0.69727  1.0000 -0.0793801621
C   C193      1.0  0.21360  0.10530  0.18520  1.0000 -0.070833989
C   C194      1.0  0.78640  0.60530  0.31480  1.0000 -0.070833989
C   C195      1.0  0.78640  0.89470  0.81480  1.0000 -0.070833989
C   C196      1.0  0.21360  0.39470  0.68520  1.0000 -0.070833989
C   C197      1.0  0.20010  0.20700  0.20261  1.0000 -0.070833989
C   C198      1.0  0.79990  0.70700  0.29739  1.0000 -0.070833989
C   C199      1.0  0.79990  0.79300  0.79739  1.0000 -0.070833989
C   C200      1.0  0.20010  0.29300  0.70261  1.0000 -0.070833989
C   C201      1.0  0.16900  0.20240  0.23247  1.0000 -0.2462993213
C   C202      1.0  0.83100  0.70240  0.26753  1.0000 -0.2462993213
C   C203      1.0  0.83100  0.79760  0.76753  1.0000 -0.2462993213
C   C204      1.0  0.16900  0.29760  0.73247  1.0000 -0.2462993213
C   C205      1.0  0.24760  0.10970  0.15456  1.0000 0.5642452627
C   C206      1.0  0.75240  0.60970  0.34544  1.0000 0.5642452627
C   C207      1.0  0.75240  0.89030  0.84544  1.0000 0.5642452627
C   C208      1.0  0.24760  0.39030  0.65456  1.0000 0.5642452627
O   O1        1.0  0.20996  0.04050  0.35247  1.0000 -0.201321593
O   O2        1.0  0.79004  0.54050  0.14753  1.0000 -0.201321593
O   O3        1.0  0.79004  0.95950  0.64753  1.0000 -0.201321593
O   O4        1.0  0.20996  0.45950  0.85247  1.0000 -0.201321593
O   O5        1.0  0.29500  0.93220  0.42789  1.0000 -0.1920114282
O   O6        1.0  0.70500  0.43220  0.07211  1.0000 -0.1920114282
O   O7        1.0  0.70500  0.06780  0.57211  1.0000 -0.1920114282
O   O8        1.0  0.29500  0.56780  0.92789  1.0000 -0.1920114282
O   O9        1.0  0.40543  0.97890  0.37870  1.0000 -0.1920114282
O   O10       1.0  0.59457  0.47890  0.12130  1.0000 -0.1920114282
O   O11       1.0  0.59457  0.02110  0.62130  1.0000 -0.1920114282
O   O12       1.0  0.40543  0.52110  0.87870  1.0000 -0.1920114282
O   O13       1.0  0.32373  0.10010  0.31209  1.0000 -0.1801002769
O   O14       1.0  0.67627  0.60010  0.18791  1.0000 -0.1801002769
O   O15       1.0  0.67627  0.89990  0.68791  1.0000 -0.1801002769
O   O16       1.0  0.32373  0.39990  0.81209  1.0000 -0.1801002769
O   O17       1.0  0.31951  0.95380  0.60558  1.0000 -0.5963176102
O   O18       1.0  0.68049  0.45380  0.89442  1.0000 -0.5963176102
O   O19       1.0  0.68049  0.04620  0.39442  1.0000 -0.5963176102
O   O20       1.0  0.31951  0.54620  0.10558  1.0000 -0.5963176102
O   O21       1.0  0.31613  0.76370  0.59583  1.0000 -0.5147012533
O   O22       1.0  0.68387  0.26370  0.90417  1.0000 -0.5147012533
O   O23       1.0  0.68387  0.23630  0.40417  1.0000 -0.5147012533
O   O24       1.0  0.31613  0.73630  0.09583  1.0000 -0.5147012533
O   O25       1.0  0.60661  0.62300  0.37135  1.0000 -0.525735742
O   O26       1.0  0.39339  0.12300  0.12865  1.0000 -0.525735742
O   O27       1.0  0.39339  0.37700  0.62865  1.0000 -0.525735742
O   O28       1.0  0.60661  0.87700  0.87135  1.0000 -0.525735742
O   O29       1.0  0.64973  0.77280  0.40185  1.0000 -0.5947544039
O   O30       1.0  0.35027  0.27280  0.09815  1.0000 -0.5947544039
O   O31       1.0  0.35027  0.22720  0.59815  1.0000 -0.5947544039
O   O32       1.0  0.64973  0.72720  0.90185  1.0000 -0.5947544039
O   O33       1.0  0.33666  0.54980  0.20802  1.0000 -0.558846594
O   O34       1.0  0.66334  0.04980  0.29198  1.0000 -0.558846594
O   O35       1.0  0.66334  0.45020  0.79198  1.0000 -0.558846594
O   O36       1.0  0.33666  0.95020  0.70802  1.0000 -0.558846594
O   O37       1.0  0.34514  0.40110  0.16885  1.0000 -0.5765620978
O   O38       1.0  0.65486  0.90110  0.33115  1.0000 -0.5765620978
O   O39       1.0  0.65486  0.59890  0.83115  1.0000 -0.5765620978
O   O40       1.0  0.34514  0.09890  0.66885  1.0000 -0.5765620978
O   O41       1.0  0.11826  0.11280  0.40278  1.0000 -0.1801002769
O   O42       1.0  0.88174  0.61280  0.09722  1.0000 -0.1801002769
O   O43       1.0  0.88174  0.88720  0.59722  1.0000 -0.1801002769
O   O44       1.0  0.11826  0.38720  0.90278  1.0000 -0.1801002769
O   O45       1.0  0.01713  0.13500  0.32528  1.0000 -0.1920114282
O   O46       1.0  0.98287  0.63500  0.17472  1.0000 -0.1920114282
O   O47       1.0  0.98287  0.86500  0.67472  1.0000 -0.1920114282
O   O48       1.0  0.01713  0.36500  0.82528  1.0000 -0.1920114282
O   O49       1.0  0.11819  0.08190  0.27117  1.0000 -0.1801002769
O   O50       1.0  0.88181  0.58190  0.22883  1.0000 -0.1801002769
O   O51       1.0  0.88181  0.91810  0.72883  1.0000 -0.1801002769
O   O52       1.0  0.11819  0.41810  0.77117  1.0000 -0.1801002769
O   O53       1.0  0.23524  0.15150  0.56908  1.0000 -0.558846594
O   O54       1.0  0.76476  0.65150  0.93092  1.0000 -0.558846594
O   O55       1.0  0.76476  0.84850  0.43092  1.0000 -0.558846594
O   O56       1.0  0.23524  0.34850  0.06908  1.0000 -0.558846594
O   O57       1.0  0.25120  0.33400  0.55082  1.0000 -0.547821811
O   O58       1.0  0.74880  0.83400  0.94918  1.0000 -0.547821811
O   O59       1.0  0.74880  0.66600  0.44918  1.0000 -0.547821811
O   O60       1.0  0.25120  0.16600  0.05082  1.0000 -0.547821811
O   O61       1.0  0.76221  0.15340  0.34324  1.0000 -0.547821811
O   O62       1.0  0.23779  0.65340  0.15676  1.0000 -0.547821811
O   O63       1.0  0.23779  0.84660  0.65676  1.0000 -0.547821811
O   O64       1.0  0.76221  0.34660  0.84324  1.0000 -0.547821811
O   O65       1.0  0.77857  0.96110  0.35319  1.0000 -0.5660665096
O   O66       1.0  0.22143  0.46110  0.14681  1.0000 -0.5660665096
O   O67       1.0  0.22143  0.03890  0.64681  1.0000 -0.5660665096
O   O68       1.0  0.77857  0.53890  0.85319  1.0000 -0.5660665096
O   O69       1.0  0.25730  0.20620  0.14018  1.0000 -0.558846594
O   O70       1.0  0.74270  0.70620  0.35982  1.0000 -0.558846594
O   O71       1.0  0.74270  0.79380  0.85982  1.0000 -0.558846594
O   O72       1.0  0.25730  0.29380  0.64018  1.0000 -0.558846594
O   O73       1.0  0.26612  0.01540  0.14151  1.0000 -0.5249767364
O   O74       1.0  0.73388  0.51540  0.35849  1.0000 -0.525735742
O   O75       1.0  0.73388  0.98460  0.85849  1.0000 -0.525735742
O   O76       1.0  0.26612  0.48460  0.64151  1.0000 -0.5249767364
