# DDEC6 charges by PACMAN v1.1 (https://github.com/mtap-research/PACMAN-charge/)
data_2012[Fe][acs]3[ASR]1
_chemical_formula_sum              "Fe24 H192 C336 O104"
_cell_length_a       21.8
_cell_length_b       21.8
_cell_length_c       35.407
_cell_angle_alpha    90
_cell_angle_beta     90
_cell_angle_gamma    90

_symmetry_space_group_name_H-M    "P 1"
_symmetry_Int_Tables_number       1

loop_
  _symmetry_equiv_pos_as_xyz
  'x, y, z'

loop_
  _atom_site_type_symbol
  _atom_site_label
  _atom_site_symmetry_multiplicity
  _atom_site_fract_x
  _atom_site_fract_y
  _atom_site_fract_z
  _atom_site_occupancy
  _atom_site_charge
Fe  Fe1       1.0  0.49980  0.78091  0.84865  1.0000 1.218295206
Fe  Fe2       1.0  0.50020  0.21909  0.34865  1.0000 1.218295206
Fe  Fe3       1.0  0.00020  0.28091  0.90135  1.0000 1.218295206
Fe  Fe4       1.0  0.99980  0.71909  0.40135  1.0000 1.218295206
Fe  Fe5       1.0  0.50270  0.84289  0.76349  1.0000 1.2104885701
Fe  Fe6       1.0  0.49730  0.15711  0.26349  1.0000 1.2104885701
Fe  Fe7       1.0  0.99730  0.34289  0.98651  1.0000 1.2104885701
Fe  Fe8       1.0  0.00270  0.65711  0.48651  1.0000 1.2104885701
Fe  Fe9       1.0  0.49276  0.69267  0.77319  1.0000 1.2104885701
Fe  Fe10      1.0  0.50724  0.30733  0.27319  1.0000 1.2104885701
Fe  Fe11      1.0  0.00724  0.19267  0.97681  1.0000 1.2104885701
Fe  Fe12      1.0  0.99276  0.80733  0.47681  1.0000 1.1964809939
Fe  Fe13      1.0  0.28091  0.00020  0.09865  1.0000 1.218295206
Fe  Fe14      1.0  0.71909  0.99980  0.59865  1.0000 1.218295206
Fe  Fe15      1.0  0.21909  0.50020  0.65135  1.0000 1.218295206
Fe  Fe16      1.0  0.78091  0.49980  0.15135  1.0000 1.218295206
Fe  Fe17      1.0  0.34289  0.99730  0.01349  1.0000 1.2104885701
Fe  Fe18      1.0  0.65711  0.00270  0.51349  1.0000 1.2104885701
Fe  Fe19      1.0  0.15711  0.49730  0.73651  1.0000 1.2104885701
Fe  Fe20      1.0  0.84289  0.50270  0.23651  1.0000 1.2104885701
Fe  Fe21      1.0  0.19267  0.00724  0.02319  1.0000 1.2104885701
Fe  Fe22      1.0  0.80733  0.99276  0.52319  1.0000 1.2104885701
Fe  Fe23      1.0  0.30733  0.50724  0.72681  1.0000 1.2104885701
Fe  Fe24      1.0  0.69267  0.49276  0.22681  1.0000 1.2104885701
H   H1        1.0  0.38530  0.93370  0.88860  1.0000 0.119997048
H   H2        1.0  0.61470  0.06630  0.38860  1.0000 0.119997048
H   H3        1.0  0.11470  0.43370  0.86140  1.0000 0.119997048
H   H4        1.0  0.88530  0.56630  0.36140  1.0000 0.119997048
H   H5        1.0  0.30520  0.99670  0.90490  1.0000 0.119997048
H   H6        1.0  0.69480  0.00330  0.40490  1.0000 0.119997048
H   H7        1.0  0.19480  0.49670  0.84510  1.0000 0.119997048
H   H8        1.0  0.80520  0.50330  0.34510  1.0000 0.119997048
H   H9        1.0  0.25430  0.00840  0.79630  1.0000 0.119997048
H   H10       1.0  0.74570  0.99160  0.29630  1.0000 0.119997048
H   H11       1.0  0.24570  0.50840  0.95370  1.0000 0.1130002049
H   H12       1.0  0.75430  0.49160  0.45370  1.0000 0.1130002049
H   H13       1.0  0.33590  0.94210  0.77920  1.0000 0.1296156256
H   H14       1.0  0.66410  0.05790  0.27920  1.0000 0.1296156256
H   H15       1.0  0.16410  0.44210  0.97080  1.0000 0.1296156256
H   H16       1.0  0.83590  0.55790  0.47080  1.0000 0.1296156256
H   H17       1.0  0.19320  0.99640  0.90800  1.0000 0.119997048
H   H18       1.0  0.80680  0.00360  0.40800  1.0000 0.119997048
H   H19       1.0  0.30680  0.49640  0.84200  1.0000 0.119997048
H   H20       1.0  0.69320  0.50360  0.34200  1.0000 0.119997048
H   H21       1.0  0.12150  0.06580  0.93130  1.0000 0.1296156256
H   H22       1.0  0.87850  0.93420  0.43130  1.0000 0.1296156256
H   H23       1.0  0.37850  0.56580  0.81870  1.0000 0.1296156256
H   H24       1.0  0.62150  0.43420  0.31870  1.0000 0.1296156256
H   H25       1.0  0.14530  0.17350  0.84240  1.0000 0.119997048
H   H26       1.0  0.85470  0.82650  0.34240  1.0000 0.119997048
H   H27       1.0  0.35470  0.67350  0.90760  1.0000 0.119997048
H   H28       1.0  0.64530  0.32650  0.40760  1.0000 0.119997048
H   H29       1.0  0.21920  0.10740  0.81960  1.0000 0.119997048
H   H30       1.0  0.78080  0.89260  0.31960  1.0000 0.119997048
H   H31       1.0  0.28080  0.60740  0.93040  1.0000 0.119997048
H   H32       1.0  0.71920  0.39260  0.43040  1.0000 0.119997048
H   H33       1.0  0.64340  0.57890  0.80260  1.0000 0.1352609738
H   H34       1.0  0.35660  0.42110  0.30260  1.0000 0.1296156256
H   H35       1.0  0.85660  0.07890  0.94740  1.0000 0.1352609738
H   H36       1.0  0.14340  0.92110  0.44740  1.0000 0.1296156256
H   H37       1.0  0.72790  0.52670  0.81950  1.0000 0.119997048
H   H38       1.0  0.27210  0.47330  0.31950  1.0000 0.119997048
H   H39       1.0  0.77210  0.02670  0.93050  1.0000 0.119997048
H   H40       1.0  0.22790  0.97330  0.43050  1.0000 0.119997048
H   H41       1.0  0.72660  0.60840  0.91760  1.0000 0.1130002049
H   H42       1.0  0.27340  0.39160  0.41760  1.0000 0.1130002049
H   H43       1.0  0.77340  0.10840  0.83240  1.0000 0.1130002049
H   H44       1.0  0.22660  0.89160  0.33240  1.0000 0.1130002049
H   H45       1.0  0.63800  0.66650  0.89980  1.0000 0.1296156256
H   H46       1.0  0.36200  0.33350  0.39980  1.0000 0.1296156256
H   H47       1.0  0.86200  0.16650  0.85020  1.0000 0.1296156256
H   H48       1.0  0.13800  0.83350  0.35020  1.0000 0.1296156256
H   H49       1.0  0.77070  0.45470  0.84260  1.0000 0.1130002049
H   H50       1.0  0.22930  0.54530  0.34260  1.0000 0.1130002049
H   H51       1.0  0.72930  0.95470  0.90740  1.0000 0.1130002049
H   H52       1.0  0.27070  0.04530  0.40740  1.0000 0.1130002049
H   H53       1.0  0.84920  0.38370  0.86010  1.0000 0.1296156256
H   H54       1.0  0.15080  0.61630  0.36010  1.0000 0.1296156256
H   H55       1.0  0.65080  0.88370  0.88990  1.0000 0.1296156256
H   H56       1.0  0.34920  0.11630  0.38990  1.0000 0.1296156256
H   H57       1.0  0.88070  0.49310  0.94940  1.0000 0.1296156256
H   H58       1.0  0.11930  0.50690  0.44940  1.0000 0.1296156256
H   H59       1.0  0.61930  0.99310  0.80060  1.0000 0.1296156256
H   H60       1.0  0.38070  0.00690  0.30060  1.0000 0.1296156256
H   H61       1.0  0.80280  0.55690  0.93050  1.0000 0.1130002049
H   H62       1.0  0.19720  0.44310  0.43050  1.0000 0.1130002049
H   H63       1.0  0.69720  0.05690  0.81950  1.0000 0.1130002049
H   H64       1.0  0.30280  0.94310  0.31950  1.0000 0.1130002049
H   H65       1.0  0.64900  0.83930  0.68710  1.0000 0.1296156256
H   H66       1.0  0.35100  0.16070  0.18710  1.0000 0.1296156256
H   H67       1.0  0.85100  0.33930  0.06290  1.0000 0.1296156256
H   H68       1.0  0.14900  0.66070  0.56290  1.0000 0.1296156256
H   H69       1.0  0.71490  0.83050  0.63670  1.0000 0.1296156256
H   H70       1.0  0.28510  0.16950  0.13670  1.0000 0.1296156256
H   H71       1.0  0.78510  0.33050  0.11330  1.0000 0.1296156256
H   H72       1.0  0.21490  0.66950  0.61330  1.0000 0.1296156256
H   H73       1.0  0.68840  0.64920  0.63430  1.0000 0.119997048
H   H74       1.0  0.31160  0.35080  0.13430  1.0000 0.119997048
H   H75       1.0  0.81160  0.14920  0.11570  1.0000 0.119997048
H   H76       1.0  0.18840  0.85080  0.61570  1.0000 0.119997048
H   H77       1.0  0.61630  0.65750  0.68170  1.0000 0.1296156256
H   H78       1.0  0.38370  0.34250  0.18170  1.0000 0.1296156256
H   H79       1.0  0.88370  0.15750  0.06830  1.0000 0.1296156256
H   H80       1.0  0.11630  0.84250  0.56830  1.0000 0.1296156256
H   H81       1.0  0.72880  0.81230  0.57330  1.0000 0.1296156256
H   H82       1.0  0.27120  0.18770  0.07330  1.0000 0.1296156256
H   H83       1.0  0.77120  0.31230  0.17670  1.0000 0.1296156256
H   H84       1.0  0.22880  0.68770  0.67670  1.0000 0.1296156256
H   H85       1.0  0.81560  0.81500  0.53250  1.0000 0.119997048
H   H86       1.0  0.18440  0.18500  0.03250  1.0000 0.119997048
H   H87       1.0  0.68440  0.31500  0.21750  1.0000 0.119997048
H   H88       1.0  0.31560  0.68500  0.71750  1.0000 0.119997048
H   H89       1.0  0.87330  0.65350  0.57420  1.0000 0.119997048
H   H90       1.0  0.12670  0.34650  0.07420  1.0000 0.119997048
H   H91       1.0  0.62670  0.15350  0.17580  1.0000 0.119997048
H   H92       1.0  0.37330  0.84650  0.67580  1.0000 0.119997048
H   H93       1.0  0.79010  0.65060  0.61460  1.0000 0.1130002049
H   H94       1.0  0.20990  0.34940  0.11460  1.0000 0.1130002049
H   H95       1.0  0.70990  0.15060  0.13540  1.0000 0.1130002049
H   H96       1.0  0.29010  0.84940  0.63540  1.0000 0.1130002049
H   H97       1.0  0.43370  0.11470  0.13860  1.0000 0.119997048
H   H98       1.0  0.56630  0.88530  0.63860  1.0000 0.119997048
H   H99       1.0  0.06630  0.61470  0.61140  1.0000 0.119997048
H   H100      1.0  0.93370  0.38530  0.11140  1.0000 0.119997048
H   H101      1.0  0.49670  0.19480  0.15490  1.0000 0.119997048
H   H102      1.0  0.50330  0.80520  0.65490  1.0000 0.119997048
H   H103      1.0  0.00330  0.69480  0.59510  1.0000 0.119997048
H   H104      1.0  0.99670  0.30520  0.09510  1.0000 0.119997048
H   H105      1.0  0.50840  0.24570  0.04630  1.0000 0.119997048
H   H106      1.0  0.49160  0.75430  0.54630  1.0000 0.1130002049
H   H107      1.0  0.99160  0.74570  0.70370  1.0000 0.119997048
H   H108      1.0  0.00840  0.25430  0.20370  1.0000 0.119997048
H   H109      1.0  0.44210  0.16410  0.02920  1.0000 0.1296156256
H   H110      1.0  0.55790  0.83590  0.52920  1.0000 0.1296156256
H   H111      1.0  0.05790  0.66410  0.72080  1.0000 0.1296156256
H   H112      1.0  0.94210  0.33590  0.22080  1.0000 0.1296156256
H   H113      1.0  0.49640  0.30680  0.15800  1.0000 0.119997048
H   H114      1.0  0.50360  0.69320  0.65800  1.0000 0.119997048
H   H115      1.0  0.00360  0.80680  0.59200  1.0000 0.119997048
H   H116      1.0  0.99640  0.19320  0.09200  1.0000 0.119997048
H   H117      1.0  0.56580  0.37850  0.18130  1.0000 0.1296156256
H   H118      1.0  0.43420  0.62150  0.68130  1.0000 0.1296156256
H   H119      1.0  0.93420  0.87850  0.56870  1.0000 0.1296156256
H   H120      1.0  0.06580  0.12150  0.06870  1.0000 0.1296156256
H   H121      1.0  0.67350  0.35470  0.09240  1.0000 0.119997048
H   H122      1.0  0.32650  0.64530  0.59240  1.0000 0.119997048
H   H123      1.0  0.82650  0.85470  0.65760  1.0000 0.119997048
H   H124      1.0  0.17350  0.14530  0.15760  1.0000 0.119997048
H   H125      1.0  0.60740  0.28080  0.06960  1.0000 0.119997048
H   H126      1.0  0.39260  0.71920  0.56960  1.0000 0.119997048
H   H127      1.0  0.89260  0.78080  0.68040  1.0000 0.119997048
H   H128      1.0  0.10740  0.21920  0.18040  1.0000 0.119997048
H   H129      1.0  0.07890  0.85660  0.05260  1.0000 0.1296156256
H   H130      1.0  0.92110  0.14340  0.55260  1.0000 0.1352609738
H   H131      1.0  0.42110  0.35660  0.69740  1.0000 0.1296156256
H   H132      1.0  0.57890  0.64340  0.19740  1.0000 0.1296156256
H   H133      1.0  0.02670  0.77210  0.06950  1.0000 0.119997048
H   H134      1.0  0.97330  0.22790  0.56950  1.0000 0.119997048
H   H135      1.0  0.47330  0.27210  0.68050  1.0000 0.119997048
H   H136      1.0  0.52670  0.72790  0.18050  1.0000 0.119997048
H   H137      1.0  0.10840  0.77340  0.16760  1.0000 0.1130002049
H   H138      1.0  0.89160  0.22660  0.66760  1.0000 0.1130002049
H   H139      1.0  0.39160  0.27340  0.58240  1.0000 0.1130002049
H   H140      1.0  0.60840  0.72660  0.08240  1.0000 0.1130002049
H   H141      1.0  0.16650  0.86200  0.14980  1.0000 0.1296156256
H   H142      1.0  0.83350  0.13800  0.64980  1.0000 0.1296156256
H   H143      1.0  0.33350  0.36200  0.60020  1.0000 0.1296156256
H   H144      1.0  0.66650  0.63800  0.10020  1.0000 0.1296156256
H   H145      1.0  0.95470  0.72930  0.09260  1.0000 0.1130002049
H   H146      1.0  0.04530  0.27070  0.59260  1.0000 0.1130002049
H   H147      1.0  0.54530  0.22930  0.65740  1.0000 0.1130002049
H   H148      1.0  0.45470  0.77070  0.15740  1.0000 0.1130002049
H   H149      1.0  0.88370  0.65080  0.11010  1.0000 0.1296156256
H   H150      1.0  0.11630  0.34920  0.61010  1.0000 0.1296156256
H   H151      1.0  0.61630  0.15080  0.63990  1.0000 0.1296156256
H   H152      1.0  0.38370  0.84920  0.13990  1.0000 0.1296156256
H   H153      1.0  0.99310  0.61930  0.19940  1.0000 0.1296156256
H   H154      1.0  0.00690  0.38070  0.69940  1.0000 0.1296156256
H   H155      1.0  0.50690  0.11930  0.55060  1.0000 0.1296156256
H   H156      1.0  0.49310  0.88070  0.05060  1.0000 0.1296156256
H   H157      1.0  0.05690  0.69720  0.18050  1.0000 0.1130002049
H   H158      1.0  0.94310  0.30280  0.68050  1.0000 0.1130002049
H   H159      1.0  0.44310  0.19720  0.56950  1.0000 0.1130002049
H   H160      1.0  0.55690  0.80280  0.06950  1.0000 0.1130002049
H   H161      1.0  0.33930  0.85100  0.93710  1.0000 0.1296156256
H   H162      1.0  0.66070  0.14900  0.43710  1.0000 0.1296156256
H   H163      1.0  0.16070  0.35100  0.81290  1.0000 0.1296156256
H   H164      1.0  0.83930  0.64900  0.31290  1.0000 0.1296156256
H   H165      1.0  0.33050  0.78510  0.88670  1.0000 0.1296156256
H   H166      1.0  0.66950  0.21490  0.38670  1.0000 0.1296156256
H   H167      1.0  0.16950  0.28510  0.86330  1.0000 0.1296156256
H   H168      1.0  0.83050  0.71490  0.36330  1.0000 0.1296156256
H   H169      1.0  0.14920  0.81160  0.88430  1.0000 0.119997048
H   H170      1.0  0.85080  0.18840  0.38430  1.0000 0.119997048
H   H171      1.0  0.35080  0.31160  0.86570  1.0000 0.119997048
H   H172      1.0  0.64920  0.68840  0.36570  1.0000 0.119997048
H   H173      1.0  0.15750  0.88370  0.93170  1.0000 0.1296156256
H   H174      1.0  0.84250  0.11630  0.43170  1.0000 0.1296156256
H   H175      1.0  0.34250  0.38370  0.81830  1.0000 0.1296156256
H   H176      1.0  0.65750  0.61630  0.31830  1.0000 0.1296156256
H   H177      1.0  0.31230  0.77120  0.82330  1.0000 0.1296156256
H   H178      1.0  0.68770  0.22880  0.32330  1.0000 0.1296156256
H   H179      1.0  0.18770  0.27120  0.92670  1.0000 0.1296156256
H   H180      1.0  0.81230  0.72880  0.42670  1.0000 0.1296156256
H   H181      1.0  0.31500  0.68440  0.78250  1.0000 0.119997048
H   H182      1.0  0.68500  0.31560  0.28250  1.0000 0.119997048
H   H183      1.0  0.18500  0.18440  0.96750  1.0000 0.119997048
H   H184      1.0  0.81500  0.81560  0.46750  1.0000 0.119997048
H   H185      1.0  0.15350  0.62670  0.82420  1.0000 0.119997048
H   H186      1.0  0.84650  0.37330  0.32420  1.0000 0.119997048
H   H187      1.0  0.34650  0.12670  0.92580  1.0000 0.119997048
H   H188      1.0  0.65350  0.87330  0.42580  1.0000 0.119997048
H   H189      1.0  0.15060  0.70990  0.86460  1.0000 0.1130002049
H   H190      1.0  0.84940  0.29010  0.36460  1.0000 0.1130002049
H   H191      1.0  0.34940  0.20990  0.88540  1.0000 0.1130002049
H   H192      1.0  0.65060  0.79010  0.38540  1.0000 0.1130002049
C   C1        1.0  0.41530  0.88480  0.82170  1.0000 0.6013232271
C   C2        1.0  0.58470  0.11520  0.32170  1.0000 0.6013232271
C   C3        1.0  0.08470  0.38480  0.92830  1.0000 0.6013232271
C   C4        1.0  0.91530  0.61520  0.42830  1.0000 0.6013232271
C   C5        1.0  0.36510  0.92790  0.83170  1.0000 -0.0388495697
C   C6        1.0  0.63490  0.07210  0.33170  1.0000 -0.0388495697
C   C7        1.0  0.13490  0.42790  0.91830  1.0000 -0.0388495697
C   C8        1.0  0.86510  0.57210  0.41830  1.0000 -0.0388495697
C   C9        1.0  0.35750  0.94750  0.86970  1.0000 -0.0903665541
C   C10       1.0  0.64250  0.05250  0.36970  1.0000 -0.0903665541
C   C11       1.0  0.14250  0.44750  0.88030  1.0000 -0.0903665541
C   C12       1.0  0.85750  0.55250  0.38030  1.0000 -0.0903665541
C   C13       1.0  0.31080  0.98560  0.87920  1.0000 -0.1393679161
C   C14       1.0  0.68920  0.01440  0.37920  1.0000 -0.1393679161
C   C15       1.0  0.18920  0.48560  0.87080  1.0000 -0.1393679161
C   C16       1.0  0.81080  0.51440  0.37080  1.0000 -0.1393679161
C   C17       1.0  0.27030  0.00920  0.85160  1.0000 0.0780870398
C   C18       1.0  0.72970  0.99080  0.35160  1.0000 0.0780870398
C   C19       1.0  0.22970  0.50920  0.89840  1.0000 0.0780870398
C   C20       1.0  0.77030  0.49080  0.39840  1.0000 0.0780870398
C   C21       1.0  0.28040  0.99260  0.81540  1.0000 -0.1501245117
C   C22       1.0  0.71960  0.00740  0.31540  1.0000 -0.1501245117
C   C23       1.0  0.21960  0.49260  0.93460  1.0000 -0.1501245117
C   C24       1.0  0.78040  0.50740  0.43460  1.0000 -0.1501245117
C   C25       1.0  0.32920  0.95190  0.80500  1.0000 -0.0903665541
C   C26       1.0  0.67080  0.04810  0.30500  1.0000 -0.0903665541
C   C27       1.0  0.17080  0.45190  0.94500  1.0000 -0.0903665541
C   C28       1.0  0.82920  0.54810  0.44500  1.0000 -0.0903665541
C   C29       1.0  0.21760  0.04800  0.86290  1.0000 0.0780870398
C   C30       1.0  0.78240  0.95200  0.36290  1.0000 0.0718034362
C   C31       1.0  0.28240  0.54800  0.88710  1.0000 0.0780870398
C   C32       1.0  0.71760  0.45200  0.38710  1.0000 0.0780870398
C   C33       1.0  0.18540  0.03360  0.89500  1.0000 -0.1393679161
C   C34       1.0  0.81460  0.96640  0.39500  1.0000 -0.1393679161
C   C35       1.0  0.31460  0.53360  0.85500  1.0000 -0.1393679161
C   C36       1.0  0.68540  0.46640  0.35500  1.0000 -0.1393679161
C   C37       1.0  0.14140  0.07440  0.90800  1.0000 -0.0903665541
C   C38       1.0  0.85860  0.92560  0.40800  1.0000 -0.0903665541
C   C39       1.0  0.35860  0.57440  0.84200  1.0000 -0.0903665541
C   C40       1.0  0.64140  0.42560  0.34200  1.0000 -0.0903665541
C   C41       1.0  0.12540  0.12630  0.88880  1.0000 -0.0388495697
C   C42       1.0  0.87460  0.87370  0.38880  1.0000 -0.0388495697
C   C43       1.0  0.37460  0.62630  0.86120  1.0000 -0.0388495697
C   C44       1.0  0.62540  0.37370  0.36120  1.0000 -0.0388495697
C   C45       1.0  0.15520  0.13770  0.85640  1.0000 -0.101219308
C   C46       1.0  0.84480  0.86230  0.35640  1.0000 -0.101219308
C   C47       1.0  0.34480  0.63770  0.89360  1.0000 -0.101219308
C   C48       1.0  0.65520  0.36230  0.39360  1.0000 -0.101219308
C   C49       1.0  0.20010  0.09870  0.84310  1.0000 -0.1501245117
C   C50       1.0  0.79990  0.90130  0.34310  1.0000 -0.1501245117
C   C51       1.0  0.29990  0.59870  0.90690  1.0000 -0.1501245117
C   C52       1.0  0.70010  0.40130  0.40690  1.0000 -0.1501245117
C   C53       1.0  0.08130  0.16990  0.90620  1.0000 0.6013232271
C   C54       1.0  0.91870  0.83010  0.40620  1.0000 0.6013232271
C   C55       1.0  0.41870  0.66990  0.84380  1.0000 0.6013232271
C   C56       1.0  0.58130  0.33010  0.34380  1.0000 0.6013232271
C   C57       1.0  0.58450  0.67200  0.83310  1.0000 0.612657015
C   C58       1.0  0.41550  0.32800  0.33310  1.0000 0.612657015
C   C59       1.0  0.91550  0.17200  0.91690  1.0000 0.612657015
C   C60       1.0  0.08450  0.82800  0.41690  1.0000 0.612657015
C   C61       1.0  0.63590  0.63320  0.84820  1.0000 -0.0228505742
C   C62       1.0  0.36410  0.36680  0.34820  1.0000 -0.0228505742
C   C63       1.0  0.86410  0.13320  0.90180  1.0000 -0.0228505742
C   C64       1.0  0.13590  0.86680  0.40180  1.0000 -0.0228505742
C   C65       1.0  0.66080  0.58670  0.82670  1.0000 -0.101219308
C   C66       1.0  0.33920  0.41330  0.32670  1.0000 -0.101219308
C   C67       1.0  0.83920  0.08670  0.92330  1.0000 -0.101219308
C   C68       1.0  0.16080  0.91330  0.42330  1.0000 -0.101219308
C   C69       1.0  0.70800  0.55170  0.83770  1.0000 -0.1595293994
C   C70       1.0  0.29200  0.44830  0.33770  1.0000 -0.1595293994
C   C71       1.0  0.79200  0.05170  0.91230  1.0000 -0.1595293994
C   C72       1.0  0.20800  0.94830  0.41230  1.0000 -0.1595293994
C   C73       1.0  0.72820  0.55060  0.87350  1.0000 0.0780870398
C   C74       1.0  0.27180  0.44940  0.37350  1.0000 0.0780870398
C   C75       1.0  0.77180  0.05060  0.87650  1.0000 0.0780870398
C   C76       1.0  0.22820  0.94940  0.37650  1.0000 0.0780870398
C   C77       1.0  0.70700  0.59940  0.89430  1.0000 -0.1803379845
C   C78       1.0  0.29300  0.40060  0.39430  1.0000 -0.1852076159
C   C79       1.0  0.79300  0.09940  0.85570  1.0000 -0.1803379845
C   C80       1.0  0.20700  0.90060  0.35570  1.0000 -0.1803379845
C   C81       1.0  0.65610  0.63820  0.88270  1.0000 -0.0903665541
C   C82       1.0  0.34390  0.36180  0.38270  1.0000 -0.0903665541
C   C83       1.0  0.84390  0.13820  0.86730  1.0000 -0.0903665541
C   C84       1.0  0.15610  0.86180  0.36730  1.0000 -0.0903665541
C   C85       1.0  0.77540  0.50880  0.88710  1.0000 0.0718034362
C   C86       1.0  0.22460  0.49120  0.38710  1.0000 0.0718034362
C   C87       1.0  0.72460  0.00880  0.86290  1.0000 0.0718034362
C   C88       1.0  0.27540  0.99120  0.36290  1.0000 0.0718034362
C   C89       1.0  0.79160  0.46060  0.86590  1.0000 -0.1803379845
C   C90       1.0  0.20840  0.53940  0.36590  1.0000 -0.1803379845
C   C91       1.0  0.70840  0.96060  0.88410  1.0000 -0.1803379845
C   C92       1.0  0.29160  0.03940  0.38410  1.0000 -0.1803379845
C   C93       1.0  0.83840  0.41700  0.87600  1.0000 -0.0903665541
C   C94       1.0  0.16160  0.58300  0.37600  1.0000 -0.0903665541
C   C95       1.0  0.66160  0.91700  0.87400  1.0000 -0.0903665541
C   C96       1.0  0.33840  0.08300  0.37400  1.0000 -0.0903665541
C   C97       1.0  0.86650  0.42690  0.91040  1.0000 -0.0292527614
C   C98       1.0  0.13350  0.57310  0.41040  1.0000 -0.0292527614
C   C99       1.0  0.63350  0.92690  0.83960  1.0000 -0.0292527614
C   C100      1.0  0.36650  0.07310  0.33960  1.0000 -0.0292527614
C   C101      1.0  0.85590  0.48170  0.92840  1.0000 -0.0903665541
C   C102      1.0  0.14410  0.51830  0.42840  1.0000 -0.0903665541
C   C103      1.0  0.64410  0.98170  0.82160  1.0000 -0.0903665541
C   C104      1.0  0.35590  0.01830  0.32160  1.0000 -0.0903665541
C   C105      1.0  0.80990  0.52020  0.91670  1.0000 -0.1595293994
C   C106      1.0  0.19010  0.47980  0.41670  1.0000 -0.1595293994
C   C107      1.0  0.69010  0.02020  0.83330  1.0000 -0.1595293994
C   C108      1.0  0.30990  0.97980  0.33333  1.0000 -0.1595293994
C   C109      1.0  0.91510  0.38240  0.92330  1.0000 0.6013232271
C   C110      1.0  0.08490  0.61760  0.42330  1.0000 0.6013232271
C   C111      1.0  0.58490  0.88240  0.82670  1.0000 0.6013232271
C   C112      1.0  0.41510  0.11760  0.32670  1.0000 0.6013232271
C   C113      1.0  0.57880  0.75740  0.71990  1.0000 0.6013232271
C   C114      1.0  0.42120  0.24260  0.21990  1.0000 0.6013232271
C   C115      1.0  0.92120  0.25740  0.03010  1.0000 0.6013232271
C   C116      1.0  0.07880  0.74260  0.53010  1.0000 0.6013232271
C   C117      1.0  0.62630  0.74840  0.68920  1.0000 -0.0292527614
C   C118      1.0  0.37370  0.25160  0.18920  1.0000 -0.0292527614
C   C119      1.0  0.87370  0.24840  0.06080  1.0000 -0.0292527614
C   C120      1.0  0.12630  0.75160  0.56080  1.0000 -0.0292527614
C   C121      1.0  0.65610  0.80040  0.67590  1.0000 -0.0903665541
C   C122      1.0  0.34390  0.19960  0.17590  1.0000 -0.0903665541
C   C123      1.0  0.84390  0.30040  0.07410  1.0000 -0.0903665541
C   C124      1.0  0.15610  0.69960  0.57410  1.0000 -0.0903665541
C   C125      1.0  0.69590  0.79460  0.64640  1.0000 -0.1393679161
C   C126      1.0  0.30410  0.20540  0.14640  1.0000 -0.1393679161
C   C127      1.0  0.80410  0.29460  0.10360  1.0000 -0.1393679161
C   C128      1.0  0.19590  0.70540  0.60360  1.0000 -0.1393679161
C   C129      1.0  0.70930  0.74070  0.63040  1.0000 0.0718034362
C   C130      1.0  0.29070  0.25930  0.13040  1.0000 0.0718034362
C   C131      1.0  0.79070  0.24070  0.11960  1.0000 0.0718034362
C   C132      1.0  0.20930  0.75930  0.61960  1.0000 0.0718034362
C   C133      1.0  0.67930  0.68830  0.64470  1.0000 -0.1501245117
C   C134      1.0  0.32070  0.31170  0.14470  1.0000 -0.1501245117
C   C135      1.0  0.82070  0.18830  0.10530  1.0000 -0.1501245117
C   C136      1.0  0.17930  0.81170  0.60530  1.0000 -0.1501245117
C   C137      1.0  0.63750  0.69290  0.67320  1.0000 -0.0903665541
C   C138      1.0  0.36250  0.30710  0.17320  1.0000 -0.0903665541
C   C139      1.0  0.86250  0.19290  0.07680  1.0000 -0.0903665541
C   C140      1.0  0.13750  0.80710  0.57680  1.0000 -0.0903665541
C   C141      1.0  0.75460  0.73550  0.60130  1.0000 0.0718034362
C   C142      1.0  0.24540  0.26450  0.10130  1.0000 0.0718034362
C   C143      1.0  0.74540  0.23550  0.14870  1.0000 0.0718034362
C   C144      1.0  0.25460  0.76450  0.64870  1.0000 0.0718034362
C   C145      1.0  0.75920  0.78120  0.57480  1.0000 -0.1393679161
C   C146      1.0  0.24080  0.21880  0.07480  1.0000 -0.1393679161
C   C147      1.0  0.74080  0.28120  0.17520  1.0000 -0.1393679161
C   C148      1.0  0.25920  0.71880  0.67520  1.0000 -0.1393679161
C   C149      1.0  0.81040  0.78150  0.54940  1.0000 -0.0903665541
C   C150      1.0  0.18960  0.21850  0.04940  1.0000 -0.0903665541
C   C151      1.0  0.68960  0.28150  0.20060  1.0000 -0.0903665541
C   C152      1.0  0.31040  0.71850  0.70060  1.0000 -0.0903665541
C   C153      1.0  0.85280  0.73340  0.54900  1.0000 -0.0483578437
C   C154      1.0  0.14720  0.26660  0.04900  1.0000 -0.0483578437
C   C155      1.0  0.64720  0.23340  0.20100  1.0000 -0.0483578437
C   C156      1.0  0.35280  0.76660  0.70100  1.0000 -0.0483578437
C   C157      1.0  0.84470  0.68640  0.57390  1.0000 -0.0903665541
C   C158      1.0  0.15530  0.31360  0.07390  1.0000 -0.0903665541
C   C159      1.0  0.65530  0.18640  0.17610  1.0000 -0.0903665541
C   C160      1.0  0.34470  0.81360  0.67610  1.0000 -0.0903665541
C   C161      1.0  0.79600  0.68540  0.59880  1.0000 -0.1501245117
C   C162      1.0  0.20400  0.31460  0.09880  1.0000 -0.1501245117
C   C163      1.0  0.70400  0.18540  0.15120  1.0000 -0.1501245117
C   C164      1.0  0.29600  0.81460  0.65120  1.0000 -0.1393679161
C   C165      1.0  0.90730  0.73560  0.52460  1.0000 0.5890430256
C   C166      1.0  0.09270  0.26440  0.02460  1.0000 0.5890430256
C   C167      1.0  0.59270  0.23560  0.22540  1.0000 0.5890430256
C   C168      1.0  0.40730  0.76440  0.72540  1.0000 0.5890430256
C   C169      1.0  0.38480  0.08470  0.07170  1.0000 0.6013232271
C   C170      1.0  0.61520  0.91530  0.57170  1.0000 0.6013232271
C   C171      1.0  0.11520  0.58470  0.67830  1.0000 0.6013232271
C   C172      1.0  0.88480  0.41530  0.17830  1.0000 0.6013232271
C   C173      1.0  0.42790  0.13490  0.08170  1.0000 -0.0388495697
C   C174      1.0  0.57210  0.86510  0.58170  1.0000 -0.0388495697
C   C175      1.0  0.07210  0.63490  0.66830  1.0000 -0.0388495697
C   C176      1.0  0.92790  0.36510  0.16830  1.0000 -0.0388495697
C   C177      1.0  0.44750  0.14250  0.11970  1.0000 -0.0903665541
C   C178      1.0  0.55250  0.85750  0.61970  1.0000 -0.0903665541
C   C179      1.0  0.05250  0.64250  0.63030  1.0000 -0.0903665541
C   C180      1.0  0.94750  0.35750  0.13030  1.0000 -0.0903665541
C   C181      1.0  0.48560  0.18920  0.12920  1.0000 -0.1393679161
C   C182      1.0  0.51440  0.81080  0.62920  1.0000 -0.1393679161
C   C183      1.0  0.01440  0.68920  0.62080  1.0000 -0.1393679161
C   C184      1.0  0.98560  0.31080  0.12080  1.0000 -0.1393679161
C   C185      1.0  0.50920  0.22970  0.10160  1.0000 0.0780870398
C   C186      1.0  0.49080  0.77030  0.60160  1.0000 0.0780870398
C   C187      1.0  0.99080  0.72970  0.64840  1.0000 0.0780870398
C   C188      1.0  0.00920  0.27030  0.14840  1.0000 0.0780870398
C   C189      1.0  0.49260  0.21960  0.06540  1.0000 -0.1501245117
C   C190      1.0  0.50740  0.78040  0.56540  1.0000 -0.1501245117
C   C191      1.0  0.00740  0.71960  0.68460  1.0000 -0.1501245117
C   C192      1.0  0.99260  0.28040  0.18460  1.0000 -0.1501245117
C   C193      1.0  0.45190  0.17080  0.05500  1.0000 -0.0903665541
C   C194      1.0  0.54810  0.82920  0.55500  1.0000 -0.0903665541
C   C195      1.0  0.04810  0.67080  0.69500  1.0000 -0.0903665541
C   C196      1.0  0.95190  0.32920  0.19500  1.0000 -0.0903665541
C   C197      1.0  0.54800  0.28240  0.11290  1.0000 0.0780870398
C   C198      1.0  0.45200  0.71760  0.61290  1.0000 0.0780870398
C   C199      1.0  0.95200  0.78240  0.63710  1.0000 0.0718034362
C   C200      1.0  0.04800  0.21760  0.13710  1.0000 0.0780870398
C   C201      1.0  0.53360  0.31460  0.14500  1.0000 -0.1393679161
C   C202      1.0  0.46640  0.68540  0.64500  1.0000 -0.1393679161
C   C203      1.0  0.96640  0.81460  0.60500  1.0000 -0.1393679161
C   C204      1.0  0.03360  0.18540  0.10500  1.0000 -0.1393679161
C   C205      1.0  0.57440  0.35860  0.15800  1.0000 -0.0903665541
C   C206      1.0  0.42560  0.64140  0.65800  1.0000 -0.0903665541
C   C207      1.0  0.92560  0.85860  0.59200  1.0000 -0.0903665541
C   C208      1.0  0.07440  0.14140  0.09200  1.0000 -0.0903665541
C   C209      1.0  0.62630  0.37460  0.13880  1.0000 -0.0388495697
C   C210      1.0  0.37370  0.62540  0.63880  1.0000 -0.0388495697
C   C211      1.0  0.87370  0.87460  0.61120  1.0000 -0.0388495697
C   C212      1.0  0.12630  0.12540  0.11120  1.0000 -0.0388495697
C   C213      1.0  0.63770  0.34480  0.10640  1.0000 -0.101219308
C   C214      1.0  0.36230  0.65520  0.60640  1.0000 -0.101219308
C   C215      1.0  0.86230  0.84480  0.64360  1.0000 -0.101219308
C   C216      1.0  0.13770  0.15520  0.14360  1.0000 -0.101219308
C   C217      1.0  0.59870  0.29990  0.09310  1.0000 -0.1501245117
C   C218      1.0  0.40130  0.70010  0.59310  1.0000 -0.1501245117
C   C219      1.0  0.90130  0.79990  0.65690  1.0000 -0.1501245117
C   C220      1.0  0.09870  0.20010  0.15690  1.0000 -0.1501245117
C   C221      1.0  0.66990  0.41870  0.15620  1.0000 0.6013232271
C   C222      1.0  0.33010  0.58130  0.65620  1.0000 0.6013232271
C   C223      1.0  0.83010  0.91870  0.59380  1.0000 0.6013232271
C   C224      1.0  0.16990  0.08130  0.09380  1.0000 0.6013232271
C   C225      1.0  0.17200  0.91550  0.08310  1.0000 0.612657015
C   C226      1.0  0.82800  0.08450  0.58310  1.0000 0.612657015
C   C227      1.0  0.32800  0.41550  0.66690  1.0000 0.612657015
C   C228      1.0  0.67200  0.58450  0.16690  1.0000 0.612657015
C   C229      1.0  0.13320  0.86410  0.09820  1.0000 -0.0228505742
C   C230      1.0  0.86680  0.13590  0.59820  1.0000 -0.0228505742
C   C231      1.0  0.36680  0.36410  0.65180  1.0000 -0.0228505742
C   C232      1.0  0.63320  0.63590  0.15180  1.0000 -0.0228505742
C   C233      1.0  0.08670  0.83920  0.07670  1.0000 -0.1051514775
C   C234      1.0  0.91330  0.16080  0.57670  1.0000 -0.101219308
C   C235      1.0  0.41330  0.33920  0.67330  1.0000 -0.101219308
C   C236      1.0  0.58670  0.66080  0.17330  1.0000 -0.101219308
C   C237      1.0  0.05170  0.79200  0.08770  1.0000 -0.1595293994
C   C238      1.0  0.94830  0.20800  0.58770  1.0000 -0.1595293994
C   C239      1.0  0.44830  0.29200  0.66230  1.0000 -0.1595293994
C   C240      1.0  0.55170  0.70800  0.16230  1.0000 -0.1595293994
C   C241      1.0  0.05060  0.77180  0.12350  1.0000 0.0780870398
C   C242      1.0  0.94940  0.22820  0.62350  1.0000 0.0780870398
C   C243      1.0  0.44940  0.27180  0.62650  1.0000 0.0780870398
C   C244      1.0  0.55060  0.72820  0.12650  1.0000 0.0780870398
C   C245      1.0  0.09940  0.79300  0.14430  1.0000 -0.1852076159
C   C246      1.0  0.90060  0.20700  0.64430  1.0000 -0.1803379845
C   C247      1.0  0.40060  0.29300  0.60570  1.0000 -0.1803379845
C   C248      1.0  0.59940  0.70700  0.10570  1.0000 -0.1803379845
C   C249      1.0  0.13820  0.84390  0.13270  1.0000 -0.0903665541
C   C250      1.0  0.86180  0.15610  0.63270  1.0000 -0.0903665541
C   C251      1.0  0.36180  0.34390  0.61730  1.0000 -0.0903665541
C   C252      1.0  0.63820  0.65610  0.11730  1.0000 -0.0903665541
C   C253      1.0  0.00880  0.72460  0.13710  1.0000 0.0718034362
C   C254      1.0  0.99120  0.27540  0.63710  1.0000 0.0780870398
C   C255      1.0  0.49120  0.22460  0.61290  1.0000 0.0718034362
C   C256      1.0  0.50880  0.77540  0.11290  1.0000 0.0718034362
C   C257      1.0  0.96060  0.70840  0.11590  1.0000 -0.1803379845
C   C258      1.0  0.03940  0.29160  0.61590  1.0000 -0.1803379845
C   C259      1.0  0.53940  0.20840  0.63410  1.0000 -0.1803379845
C   C260      1.0  0.46060  0.79160  0.13410  1.0000 -0.1803379845
C   C261      1.0  0.91700  0.66160  0.12600  1.0000 -0.0903665541
C   C262      1.0  0.08300  0.33840  0.62600  1.0000 -0.0903665541
C   C263      1.0  0.58300  0.16160  0.62400  1.0000 -0.0903665541
C   C264      1.0  0.41700  0.83840  0.12400  1.0000 -0.0903665541
C   C265      1.0  0.92690  0.63350  0.16040  1.0000 -0.0292527614
C   C266      1.0  0.07310  0.36650  0.66040  1.0000 -0.0292527614
C   C267      1.0  0.57310  0.13350  0.58960  1.0000 -0.0292527614
C   C268      1.0  0.42690  0.86650  0.08960  1.0000 -0.0292527614
C   C269      1.0  0.98170  0.64410  0.17840  1.0000 -0.0903665541
C   C270      1.0  0.01830  0.35590  0.67840  1.0000 -0.0903665541
C   C271      1.0  0.51830  0.14410  0.57160  1.0000 -0.0903665541
C   C272      1.0  0.48170  0.85590  0.07160  1.0000 -0.0903665541
C   C273      1.0  0.02020  0.69010  0.16670  1.0000 -0.1595293994
C   C274      1.0  0.97980  0.30990  0.66667  1.0000 -0.1595293994
C   C275      1.0  0.47980  0.19010  0.58330  1.0000 -0.1595293994
C   C276      1.0  0.52020  0.80990  0.08330  1.0000 -0.1595293994
C   C277      1.0  0.88240  0.58490  0.17330  1.0000 0.6013232271
C   C278      1.0  0.11760  0.41510  0.67330  1.0000 0.6013232271
C   C279      1.0  0.61760  0.08490  0.57670  1.0000 0.6013232271
C   C280      1.0  0.38240  0.91510  0.07670  1.0000 0.6013232271
C   C281      1.0  0.25740  0.92120  0.96990  1.0000 0.6013232271
C   C282      1.0  0.74260  0.07880  0.46990  1.0000 0.6013232271
C   C283      1.0  0.24260  0.42120  0.78010  1.0000 0.6013232271
C   C284      1.0  0.75740  0.57880  0.28010  1.0000 0.6013232271
C   C285      1.0  0.24840  0.87370  0.93920  1.0000 -0.0292527614
C   C286      1.0  0.75160  0.12630  0.43920  1.0000 -0.0292527614
C   C287      1.0  0.25160  0.37370  0.81080  1.0000 -0.0292527614
C   C288      1.0  0.74840  0.62630  0.31080  1.0000 -0.0292527614
C   C289      1.0  0.30040  0.84390  0.92590  1.0000 -0.0903665541
C   C290      1.0  0.69960  0.15610  0.42590  1.0000 -0.0903665541
C   C291      1.0  0.19960  0.34390  0.82410  1.0000 -0.0903665541
C   C292      1.0  0.80040  0.65610  0.32410  1.0000 -0.0903665541
C   C293      1.0  0.29460  0.80410  0.89640  1.0000 -0.1393679161
C   C294      1.0  0.70540  0.19590  0.39640  1.0000 -0.1393679161
C   C295      1.0  0.20540  0.30410  0.85360  1.0000 -0.1393679161
C   C296      1.0  0.79460  0.69590  0.35360  1.0000 -0.1393679161
C   C297      1.0  0.24070  0.79070  0.88040  1.0000 0.0718034362
C   C298      1.0  0.75930  0.20930  0.38040  1.0000 0.0718034362
C   C299      1.0  0.25930  0.29070  0.86960  1.0000 0.0718034362
C   C300      1.0  0.74070  0.70930  0.36960  1.0000 0.0718034362
C   C301      1.0  0.18830  0.82070  0.89470  1.0000 -0.1501245117
C   C302      1.0  0.81170  0.17930  0.39470  1.0000 -0.1501245117
C   C303      1.0  0.31170  0.32070  0.85530  1.0000 -0.1501245117
C   C304      1.0  0.68830  0.67930  0.35530  1.0000 -0.1501245117
C   C305      1.0  0.19290  0.86250  0.92320  1.0000 -0.0903665541
C   C306      1.0  0.80710  0.13750  0.42320  1.0000 -0.0903665541
C   C307      1.0  0.30710  0.36250  0.82680  1.0000 -0.0903665541
C   C308      1.0  0.69290  0.63750  0.32680  1.0000 -0.0903665541
C   C309      1.0  0.23550  0.74540  0.85130  1.0000 0.0718034362
C   C310      1.0  0.76450  0.25460  0.35130  1.0000 0.0718034362
C   C311      1.0  0.26450  0.24540  0.89870  1.0000 0.0718034362
C   C312      1.0  0.73550  0.75460  0.39870  1.0000 0.0718034362
C   C313      1.0  0.28120  0.74080  0.82480  1.0000 -0.1393679161
C   C314      1.0  0.71880  0.25920  0.32480  1.0000 -0.1393679161
C   C315      1.0  0.21880  0.24080  0.92520  1.0000 -0.1393679161
C   C316      1.0  0.78120  0.75920  0.42520  1.0000 -0.1393679161
C   C317      1.0  0.28150  0.68960  0.79940  1.0000 -0.0903665541
C   C318      1.0  0.71850  0.31040  0.29940  1.0000 -0.0903665541
C   C319      1.0  0.21850  0.18960  0.95060  1.0000 -0.0903665541
C   C320      1.0  0.78150  0.81040  0.45060  1.0000 -0.0903665541
C   C321      1.0  0.23340  0.64720  0.79900  1.0000 -0.0483578437
C   C322      1.0  0.76660  0.35280  0.29900  1.0000 -0.0483578437
C   C323      1.0  0.26660  0.14720  0.95100  1.0000 -0.0483578437
C   C324      1.0  0.73340  0.85280  0.45100  1.0000 -0.0483578437
C   C325      1.0  0.18640  0.65530  0.82390  1.0000 -0.0903665541
C   C326      1.0  0.81360  0.34470  0.32390  1.0000 -0.0903665541
C   C327      1.0  0.31360  0.15530  0.92610  1.0000 -0.0903665541
C   C328      1.0  0.68640  0.84470  0.42610  1.0000 -0.0903665541
C   C329      1.0  0.18540  0.70400  0.84880  1.0000 -0.1501245117
C   C330      1.0  0.81460  0.29600  0.34880  1.0000 -0.1393679161
C   C331      1.0  0.31460  0.20400  0.90120  1.0000 -0.1501245117
C   C332      1.0  0.68540  0.79600  0.40120  1.0000 -0.1501245117
C   C333      1.0  0.23560  0.59270  0.77460  1.0000 0.5890430256
C   C334      1.0  0.76440  0.40730  0.27460  1.0000 0.5890430256
C   C335      1.0  0.26440  0.09270  0.97540  1.0000 0.5890430256
C   C336      1.0  0.73560  0.90730  0.47540  1.0000 0.5890430256
O   O1        1.0  0.43910  0.85240  0.84760  1.0000 -0.5695594654
O   O2        1.0  0.56090  0.14760  0.34760  1.0000 -0.5695594654
O   O3        1.0  0.06090  0.35240  0.90240  1.0000 -0.5695594654
O   O4        1.0  0.93910  0.64760  0.40240  1.0000 -0.5695594654
O   O5        1.0  0.43140  0.88530  0.78730  1.0000 -0.5388169841
O   O6        1.0  0.56860  0.11470  0.28730  1.0000 -0.5388169841
O   O7        1.0  0.06860  0.38530  0.96270  1.0000 -0.5388169841
O   O8        1.0  0.93140  0.61470  0.46270  1.0000 -0.5388169841
O   O9        1.0  0.05910  0.15580  0.93720  1.0000 -0.5314691713
O   O10       1.0  0.94090  0.84420  0.43720  1.0000 -0.5314691713
O   O11       1.0  0.44090  0.65580  0.81280  1.0000 -0.5314691713
O   O12       1.0  0.55910  0.34420  0.31280  1.0000 -0.5314691713
O   O13       1.0  0.06880  0.22100  0.88900  1.0000 -0.5872023136
O   O14       1.0  0.93120  0.77900  0.38900  1.0000 -0.5872023136
O   O15       1.0  0.43120  0.72100  0.86100  1.0000 -0.5872023136
O   O16       1.0  0.56880  0.27900  0.36100  1.0000 -0.5872023136
O   O17       1.0  0.56780  0.66160  0.80020  1.0000 -0.5388169841
O   O18       1.0  0.43220  0.33840  0.30020  1.0000 -0.5388169841
O   O19       1.0  0.93220  0.16160  0.94980  1.0000 -0.5388169841
O   O20       1.0  0.06780  0.83840  0.44980  1.0000 -0.5314691713
O   O21       1.0  0.56250  0.71110  0.85550  1.0000 -0.5615670339
O   O22       1.0  0.43750  0.28890  0.35550  1.0000 -0.5615670339
O   O23       1.0  0.93750  0.21110  0.89450  1.0000 -0.5615670339
O   O24       1.0  0.06250  0.78890  0.39450  1.0000 -0.5615670339
O   O25       1.0  0.93670  0.39220  0.95470  1.0000 -0.5314691713
O   O26       1.0  0.06330  0.60780  0.45470  1.0000 -0.5314691713
O   O27       1.0  0.56330  0.89220  0.79530  1.0000 -0.5314691713
O   O28       1.0  0.43670  0.10780  0.29530  1.0000 -0.5314691713
O   O29       1.0  0.93010  0.34280  0.90120  1.0000 -0.5191859112
O   O30       1.0  0.06990  0.65720  0.40120  1.0000 -0.5191859112
O   O31       1.0  0.56990  0.84280  0.84880  1.0000 -0.5191859112
O   O32       1.0  0.43010  0.15720  0.34880  1.0000 -0.5191859112
O   O33       1.0  0.54870  0.70960  0.72960  1.0000 -0.5695594654
O   O34       1.0  0.45130  0.29040  0.22960  1.0000 -0.5695594654
O   O35       1.0  0.95130  0.20960  0.02040  1.0000 -0.5695594654
O   O36       1.0  0.04870  0.79040  0.52040  1.0000 -0.5695594654
O   O37       1.0  0.57280  0.81010  0.73340  1.0000 -0.5388169841
O   O38       1.0  0.42720  0.18990  0.23340  1.0000 -0.5388169841
O   O39       1.0  0.92720  0.31010  0.01660  1.0000 -0.5388169841
O   O40       1.0  0.07280  0.68990  0.51660  1.0000 -0.5388169841
O   O41       1.0  0.94200  0.68970  0.52490  1.0000 -0.5535390854
O   O42       1.0  0.05800  0.31030  0.02490  1.0000 -0.5535390854
O   O43       1.0  0.55800  0.18970  0.22510  1.0000 -0.5535390854
O   O44       1.0  0.44200  0.81030  0.72510  1.0000 -0.5535390854
O   O45       1.0  0.91590  0.78400  0.50610  1.0000 -0.5388169841
O   O46       1.0  0.08410  0.21600  0.00610  1.0000 -0.5314691713
O   O47       1.0  0.58410  0.28400  0.24390  1.0000 -0.5388169841
O   O48       1.0  0.41590  0.71600  0.74390  1.0000 -0.5314691713
O   O49       1.0  0.49770  0.77320  0.79486  1.0000 -0.9144522981
O   O50       1.0  0.50230  0.22680  0.29486  1.0000 -0.9151540355
O   O51       1.0  0.00230  0.27320  0.95514  1.0000 -0.9144522981
O   O52       1.0  0.99770  0.72680  0.45514  1.0000 -0.9144522981
O   O53       1.0  0.35240  0.06090  0.09760  1.0000 -0.5695594654
O   O54       1.0  0.64760  0.93910  0.59760  1.0000 -0.5695594654
O   O55       1.0  0.14760  0.56090  0.65240  1.0000 -0.5695594654
O   O56       1.0  0.85240  0.43910  0.15240  1.0000 -0.5695594654
O   O57       1.0  0.38530  0.06860  0.03730  1.0000 -0.5388169841
O   O58       1.0  0.61470  0.93140  0.53730  1.0000 -0.5388169841
O   O59       1.0  0.11470  0.56860  0.71270  1.0000 -0.5388169841
O   O60       1.0  0.88530  0.43140  0.21270  1.0000 -0.5388169841
O   O61       1.0  0.65580  0.44090  0.18720  1.0000 -0.5314691713
O   O62       1.0  0.34420  0.55910  0.68720  1.0000 -0.5314691713
O   O63       1.0  0.84420  0.94090  0.56280  1.0000 -0.5314691713
O   O64       1.0  0.15580  0.05910  0.06280  1.0000 -0.5314691713
O   O65       1.0  0.72100  0.43120  0.13900  1.0000 -0.5872023136
O   O66       1.0  0.27900  0.56880  0.63900  1.0000 -0.5872023136
O   O67       1.0  0.77900  0.93120  0.61100  1.0000 -0.5872023136
O   O68       1.0  0.22100  0.06880  0.11100  1.0000 -0.5872023136
O   O69       1.0  0.16160  0.93220  0.05020  1.0000 -0.5388169841
O   O70       1.0  0.83840  0.06780  0.55020  1.0000 -0.5388169841
O   O71       1.0  0.33840  0.43220  0.69980  1.0000 -0.5388169841
O   O72       1.0  0.66160  0.56780  0.19980  1.0000 -0.5388169841
O   O73       1.0  0.21110  0.93750  0.10550  1.0000 -0.5615670339
O   O74       1.0  0.78890  0.06250  0.60550  1.0000 -0.5615670339
O   O75       1.0  0.28890  0.43750  0.64450  1.0000 -0.5615670339
O   O76       1.0  0.71110  0.56250  0.14450  1.0000 -0.5615670339
O   O77       1.0  0.89220  0.56330  0.20470  1.0000 -0.5314691713
O   O78       1.0  0.10780  0.43670  0.70470  1.0000 -0.5314691713
O   O79       1.0  0.60780  0.06330  0.54530  1.0000 -0.5314691713
O   O80       1.0  0.39220  0.93670  0.04530  1.0000 -0.5314691713
O   O81       1.0  0.84280  0.56990  0.15120  1.0000 -0.5191859112
O   O82       1.0  0.15720  0.43010  0.65120  1.0000 -0.5191859112
O   O83       1.0  0.65720  0.06990  0.59880  1.0000 -0.5191859112
O   O84       1.0  0.34280  0.93010  0.09880  1.0000 -0.5191859112
O   O85       1.0  0.20960  0.95130  0.97960  1.0000 -0.5695594654
O   O86       1.0  0.79040  0.04870  0.47960  1.0000 -0.5695594654
O   O87       1.0  0.29040  0.45130  0.77040  1.0000 -0.5695594654
O   O88       1.0  0.70960  0.54870  0.27040  1.0000 -0.5695594654
O   O89       1.0  0.31010  0.92720  0.98340  1.0000 -0.5388169841
O   O90       1.0  0.68990  0.07280  0.48340  1.0000 -0.5388169841
O   O91       1.0  0.18990  0.42720  0.76660  1.0000 -0.5388169841
O   O92       1.0  0.81010  0.57280  0.26660  1.0000 -0.5388169841
O   O93       1.0  0.18970  0.55800  0.77490  1.0000 -0.5535390854
O   O94       1.0  0.81030  0.44200  0.27490  1.0000 -0.5535390854
O   O95       1.0  0.31030  0.05800  0.97510  1.0000 -0.5535390854
O   O96       1.0  0.68970  0.94200  0.47510  1.0000 -0.5535390854
O   O97       1.0  0.28400  0.58410  0.75610  1.0000 -0.5388169841
O   O98       1.0  0.71600  0.41590  0.25610  1.0000 -0.5388169841
O   O99       1.0  0.21600  0.08410  0.99390  1.0000 -0.5388169841
O   O100      1.0  0.78400  0.91590  0.49390  1.0000 -0.5388169841
O   O101      1.0  0.27320  0.00230  0.04486  1.0000 -0.9144522981
O   O102      1.0  0.72680  0.99770  0.54486  1.0000 -0.9151540355
O   O103      1.0  0.22680  0.50230  0.70514  1.0000 -0.9151540355
O   O104      1.0  0.77320  0.49770  0.20514  1.0000 -0.9144522981
