# DDEC6 charges by PACMAN v1.1 (https://github.com/mtap-research/PACMAN-charge/)
data_2012[Co][anh]3[ASR]1
_chemical_formula_sum              "Co6 H48 C78 N6 O27"
_cell_length_a       11.05
_cell_length_b       11.05
_cell_length_c       27.772
_cell_angle_alpha    90
_cell_angle_beta     90
_cell_angle_gamma    120

_symmetry_space_group_name_H-M    "P 1"
_symmetry_Int_Tables_number       1

loop_
  _symmetry_equiv_pos_as_xyz
  'x, y, z'

loop_
  _atom_site_type_symbol
  _atom_site_label
  _atom_site_symmetry_multiplicity
  _atom_site_fract_x
  _atom_site_fract_y
  _atom_site_fract_z
  _atom_site_occupancy
  _atom_site_charge
Co  Co1       1.0  0.92301  0.75378  0.02925  1.0000 0.9363670286
Co  Co2       1.0  0.24622  0.16923  0.36258  1.0000 0.9363670286
Co  Co3       1.0  0.83077  0.07699  0.69592  1.0000 0.9363670286
Co  Co4       1.0  0.75378  0.92301  0.97075  1.0000 0.9363670286
Co  Co5       1.0  0.16923  0.24622  0.63742  1.0000 0.9363670286
Co  Co6       1.0  0.07699  0.83077  0.30408  1.0000 0.9363670286
H   H1        1.0  0.25360  0.79320  0.22310  1.0000 0.1036271117
H   H2        1.0  0.20680  0.46040  0.55643  1.0000 0.1036271117
H   H3        1.0  0.53960  0.74640  0.88977  1.0000 0.1036271117
H   H4        1.0  0.79320  0.25360  0.77690  1.0000 0.1036271117
H   H5        1.0  0.46040  0.20680  0.44357  1.0000 0.1036271117
H   H6        1.0  0.74640  0.53960  0.11023  1.0000 0.1036271117
H   H7        1.0  0.33650  0.49380  0.26020  1.0000 0.1354981772
H   H8        1.0  0.50620  0.84270  0.59353  1.0000 0.1354981772
H   H9        1.0  0.15730  0.66350  0.92687  1.0000 0.1354981772
H   H10       1.0  0.49380  0.33650  0.73980  1.0000 0.1354981772
H   H11       1.0  0.84270  0.50620  0.40647  1.0000 0.1354981772
H   H12       1.0  0.66350  0.15730  0.07313  1.0000 0.1354981772
H   H13       1.0  0.05680  0.55760  0.33260  1.0000 0.1108753271
H   H14       1.0  0.44240  0.49920  0.66593  1.0000 0.1108753271
H   H15       1.0  0.50080  0.94320  0.99927  1.0000 0.1108753271
H   H16       1.0  0.55760  0.05680  0.66740  1.0000 0.1108753271
H   H17       1.0  0.49920  0.44240  0.33407  1.0000 0.1108753271
H   H18       1.0  0.94320  0.50080  0.00073  1.0000 0.1108753271
H   H19       1.0  0.30690  0.75400  0.14930  1.0000 0.118716603
H   H20       1.0  0.24600  0.55290  0.48263  1.0000 0.118716603
H   H21       1.0  0.44710  0.69310  0.81597  1.0000 0.118716603
H   H22       1.0  0.75400  0.30690  0.85070  1.0000 0.118716603
H   H23       1.0  0.55290  0.24600  0.51737  1.0000 0.1108753271
H   H24       1.0  0.69310  0.44710  0.18403  1.0000 0.118716603
H   H25       1.0  0.45430  0.80670  0.08360  1.0000 0.118716603
H   H26       1.0  0.19330  0.64760  0.41693  1.0000 0.118716603
H   H27       1.0  0.35240  0.54570  0.75027  1.0000 0.118716603
H   H28       1.0  0.80670  0.45430  0.91640  1.0000 0.118716603
H   H29       1.0  0.64760  0.19330  0.58307  1.0000 0.118716603
H   H30       1.0  0.54570  0.35240  0.24973  1.0000 0.118716603
H   H31       1.0  0.70190  0.70470  0.16030  1.0000 0.1108753271
H   H32       1.0  0.29530  0.99720  0.49363  1.0000 0.1108753271
H   H33       1.0  0.00280  0.29810  0.82697  1.0000 0.1108753271
H   H34       1.0  0.70470  0.70190  0.83970  1.0000 0.1108753271
H   H35       1.0  0.99720  0.29530  0.50637  1.0000 0.1108753271
H   H36       1.0  0.29810  0.00280  0.17303  1.0000 0.1108753271
H   H37       1.0  0.55150  0.64790  0.22520  1.0000 0.118716603
H   H38       1.0  0.35210  0.90360  0.55853  1.0000 0.118716603
H   H39       1.0  0.09640  0.44850  0.89187  1.0000 0.118716603
H   H40       1.0  0.64790  0.55150  0.77480  1.0000 0.118716603
H   H41       1.0  0.90360  0.35210  0.44147  1.0000 0.118716603
H   H42       1.0  0.44850  0.09640  0.10813  1.0000 0.118716603
H   H43       1.0  0.01840  0.98460  0.97780  1.0000 0.3712151683
H   H44       1.0  0.01540  0.03380  0.31113  1.0000 0.3712151683
H   H45       1.0  0.96620  0.98160  0.64447  1.0000 0.3712151683
H   H46       1.0  0.98460  0.01840  0.02220  1.0000 0.3712151683
H   H47       1.0  0.03380  0.01540  0.68887  1.0000 0.3712151683
H   H48       1.0  0.98160  0.96620  0.35553  1.0000 0.3712151683
C   C1        1.0  0.24000  0.72070  0.24356  1.0000 0.0367045377
C   C2        1.0  0.27930  0.51930  0.57689  1.0000 0.0367045377
C   C3        1.0  0.48070  0.76000  0.91023  1.0000 0.0367045377
C   C4        1.0  0.72070  0.24000  0.75644  1.0000 0.0367045377
C   C5        1.0  0.51930  0.27930  0.42311  1.0000 0.0367045377
C   C6        1.0  0.76000  0.48070  0.08977  1.0000 0.0367045377
C   C7        1.0  0.31420  0.65120  0.23461  1.0000 0.0283507233
C   C8        1.0  0.34880  0.66300  0.56794  1.0000 0.0283507233
C   C9        1.0  0.33700  0.68580  0.90128  1.0000 0.0283507233
C   C10       1.0  0.65120  0.31420  0.76539  1.0000 0.0283507233
C   C11       1.0  0.66300  0.34880  0.43206  1.0000 0.0283507233
C   C12       1.0  0.68580  0.33700  0.09872  1.0000 0.0283507233
C   C13       1.0  0.29060  0.54380  0.26526  1.0000 -0.0997121217
C   C14       1.0  0.45620  0.74680  0.59859  1.0000 -0.0997121217
C   C15       1.0  0.25320  0.70940  0.93193  1.0000 -0.0997121217
C   C16       1.0  0.54380  0.29060  0.73474  1.0000 -0.0997121217
C   C17       1.0  0.74680  0.45620  0.40141  1.0000 -0.0997121217
C   C18       1.0  0.70940  0.25320  0.06807  1.0000 -0.0997121217
C   C19       1.0  0.19740  0.50900  0.30424  1.0000 -0.0464595513
C   C20       1.0  0.49100  0.68840  0.63757  1.0000 -0.0464595513
C   C21       1.0  0.31160  0.80260  0.97091  1.0000 -0.0464595513
C   C22       1.0  0.50900  0.19740  0.69576  1.0000 -0.0464595513
C   C23       1.0  0.68840  0.49100  0.36243  1.0000 -0.0464595513
C   C24       1.0  0.80260  0.31160  0.02909  1.0000 -0.0464595513
C   C25       1.0  0.12450  0.58340  0.30878  1.0000 0.0890836256
C   C26       1.0  0.41660  0.54110  0.64211  1.0000 0.0890836256
C   C27       1.0  0.45890  0.87550  0.97545  1.0000 0.0890836256
C   C28       1.0  0.58340  0.12450  0.69122  1.0000 0.0890836256
C   C29       1.0  0.54110  0.41660  0.35789  1.0000 0.0890836256
C   C30       1.0  0.87550  0.45890  0.02455  1.0000 0.0890836256
C   C31       1.0  0.16800  0.39230  0.33822  1.0000 0.5634677944
C   C32       1.0  0.60770  0.77570  0.67155  1.0000 0.5634677944
C   C33       1.0  0.22430  0.83200  0.00489  1.0000 0.5634677944
C   C34       1.0  0.39230  0.16800  0.66178  1.0000 0.5634677944
C   C35       1.0  0.77570  0.60770  0.32845  1.0000 0.5634677944
C   C36       1.0  0.83200  0.22430  0.99511  1.0000 0.5634677944
C   C37       1.0  0.41290  0.69470  0.19330  1.0000 0.0766874054
C   C38       1.0  0.30530  0.71820  0.52663  1.0000 0.0766874054
C   C39       1.0  0.28180  0.58710  0.85997  1.0000 0.0766874054
C   C40       1.0  0.69470  0.41290  0.80670  1.0000 0.0766874054
C   C41       1.0  0.71820  0.30530  0.47337  1.0000 0.0766874054
C   C42       1.0  0.58710  0.28180  0.14003  1.0000 0.0766874054
C   C43       1.0  0.38440  0.74230  0.15122  1.0000 -0.1551987939
C   C44       1.0  0.25770  0.64210  0.48455  1.0000 -0.1551987939
C   C45       1.0  0.35790  0.61560  0.81789  1.0000 -0.1551987939
C   C46       1.0  0.74230  0.38440  0.84878  1.0000 -0.1551987939
C   C47       1.0  0.64210  0.25770  0.51545  1.0000 -0.1551987939
C   C48       1.0  0.61560  0.35790  0.18211  1.0000 -0.1551987939
C   C49       1.0  0.47290  0.77260  0.11163  1.0000 -0.0940068824
C   C50       1.0  0.22740  0.70030  0.44496  1.0000 -0.0940068824
C   C51       1.0  0.29970  0.52710  0.77830  1.0000 -0.0940068824
C   C52       1.0  0.77260  0.47290  0.88837  1.0000 -0.0940068824
C   C53       1.0  0.70030  0.22740  0.55504  1.0000 -0.0940068824
C   C54       1.0  0.52710  0.29970  0.22170  1.0000 -0.0940068824
C   C55       1.0  0.58980  0.75310  0.11285  1.0000 -0.0347377621
C   C56       1.0  0.24690  0.83670  0.44618  1.0000 -0.035342414
C   C57       1.0  0.16330  0.41020  0.77952  1.0000 -0.035342414
C   C58       1.0  0.75310  0.58980  0.88715  1.0000 -0.035342414
C   C59       1.0  0.83670  0.24690  0.55382  1.0000 -0.0347377621
C   C60       1.0  0.41020  0.16330  0.22048  1.0000 -0.035342414
C   C61       1.0  0.62130  0.71100  0.15750  1.0000 -0.0997121217
C   C62       1.0  0.28900  0.91030  0.49083  1.0000 -0.0997121217
C   C63       1.0  0.08970  0.37870  0.82417  1.0000 -0.0997121217
C   C64       1.0  0.71100  0.62130  0.84250  1.0000 -0.0997121217
C   C65       1.0  0.91030  0.28900  0.50917  1.0000 -0.0997121217
C   C66       1.0  0.37870  0.08970  0.17583  1.0000 -0.0997121217
C   C67       1.0  0.53250  0.67930  0.19669  1.0000 -0.1491007569
C   C68       1.0  0.32070  0.85320  0.53002  1.0000 -0.1491007569
C   C69       1.0  0.14680  0.46750  0.86336  1.0000 -0.1491007569
C   C70       1.0  0.67930  0.53250  0.80331  1.0000 -0.1491007569
C   C71       1.0  0.85320  0.32070  0.46998  1.0000 -0.1491007569
C   C72       1.0  0.46750  0.14680  0.13664  1.0000 -0.1491007569
C   C73       1.0  0.68280  0.78010  0.07048  1.0000 0.5859341062
C   C74       1.0  0.21990  0.90270  0.40381  1.0000 0.5859341062
C   C75       1.0  0.09730  0.31720  0.73715  1.0000 0.5859341062
C   C76       1.0  0.78010  0.68280  0.92952  1.0000 0.5859341062
C   C77       1.0  0.90270  0.21990  0.59619  1.0000 0.5859341062
C   C78       1.0  0.31720  0.09730  0.26285  1.0000 0.5859341062
N   N1        1.0  0.15030  0.68780  0.28022  1.0000 -0.2335414204
N   N2        1.0  0.31220  0.46250  0.61355  1.0000 -0.2335414204
N   N3        1.0  0.53750  0.84970  0.94689  1.0000 -0.2335414204
N   N4        1.0  0.68780  0.15030  0.71978  1.0000 -0.2335414204
N   N5        1.0  0.46250  0.31220  0.38645  1.0000 -0.2335414204
N   N6        1.0  0.84970  0.53750  0.05311  1.0000 -0.2335414204
O   O1        1.0  0.77930  0.75390  0.07519  1.0000 -0.5791555606
O   O2        1.0  0.24610  0.02540  0.40852  1.0000 -0.5791555606
O   O3        1.0  0.97460  0.22070  0.74186  1.0000 -0.5791555606
O   O4        1.0  0.75390  0.77930  0.92481  1.0000 -0.5791555606
O   O5        1.0  0.02540  0.24610  0.59148  1.0000 -0.5791555606
O   O6        1.0  0.22070  0.97460  0.25814  1.0000 -0.5791555606
O   O7        1.0  0.65080  0.81870  0.03262  1.0000 -0.5483303381
O   O8        1.0  0.18130  0.83210  0.36595  1.0000 -0.5483303381
O   O9        1.0  0.16790  0.34920  0.69929  1.0000 -0.5483303381
O   O10       1.0  0.81870  0.65080  0.96738  1.0000 -0.5483303381
O   O11       1.0  0.83210  0.18130  0.63405  1.0000 -0.5483303381
O   O12       1.0  0.34920  0.16790  0.30071  1.0000 -0.5483303381
O   O13       1.0  0.22610  0.32250  0.32827  1.0000 -0.5791555606
O   O14       1.0  0.67750  0.90360  0.66160  1.0000 -0.5791555606
O   O15       1.0  0.09640  0.77390  0.99494  1.0000 -0.5791555606
O   O16       1.0  0.32250  0.22610  0.67173  1.0000 -0.5791555606
O   O17       1.0  0.90360  0.67750  0.33840  1.0000 -0.5791555606
O   O18       1.0  0.77390  0.09640  0.00506  1.0000 -0.5791555606
O   O19       1.0  0.09280  0.37460  0.37317  1.0000 -0.5483303381
O   O20       1.0  0.62540  0.71820  0.70650  1.0000 -0.5483303381
O   O21       1.0  0.28180  0.90720  0.03984  1.0000 -0.5483303381
O   O22       1.0  0.37460  0.09280  0.62683  1.0000 -0.5483303381
O   O23       1.0  0.71820  0.62540  0.29350  1.0000 -0.5483303381
O   O24       1.0  0.90720  0.28180  0.96016  1.0000 -0.5483303381
O   O25       1.0  0.95720  0.95720  0.00000  1.0000 -0.6713699065
O   O26       1.0  0.04280  0.00000  0.33333  1.0000 -0.6713699065
O   O27       1.0  0.00000  0.04280  0.66667  1.0000 -0.6713699065
