# DDEC6 charges by PACMAN v1.1 (https://github.com/mtap-research/PACMAN-charge/)
data_2012[Zn][sod]3[ASR]3
_chemical_formula_sum              "Zn6 H60 C48 N24"
_cell_length_a       14.7164
_cell_length_b       14.7164
_cell_length_c       14.7164
_cell_angle_alpha    109.471
_cell_angle_beta     109.471
_cell_angle_gamma    109.471

_symmetry_space_group_name_H-M    "P 1"
_symmetry_Int_Tables_number       1

loop_
  _symmetry_equiv_pos_as_xyz
  'x, y, z'

loop_
  _atom_site_type_symbol
  _atom_site_label
  _atom_site_symmetry_multiplicity
  _atom_site_fract_x
  _atom_site_fract_y
  _atom_site_fract_z
  _atom_site_occupancy
  _atom_site_charge
Zn  Zn1       1.0  0.50000  0.75000  0.25000  1.0000 0.6401089927
Zn  Zn2       1.0  0.50000  0.25000  0.75000  1.0000 0.6401089927
Zn  Zn3       1.0  0.25000  0.50000  0.75000  1.0000 0.6401089927
Zn  Zn4       1.0  0.75000  0.50000  0.25000  1.0000 0.6401089927
Zn  Zn5       1.0  0.75000  0.25000  0.50000  1.0000 0.6401089927
Zn  Zn6       1.0  0.25000  0.75000  0.50000  1.0000 0.6401089927
H   H1        1.0  0.76310  0.89910  0.42000  1.0000 0.1144172615
H   H2        1.0  0.47910  0.34310  0.58000  1.0000 0.1144172615
H   H3        1.0  0.52090  0.10090  0.86400  1.0000 0.1144172615
H   H4        1.0  0.23690  0.65690  0.13600  1.0000 0.1144172615
H   H5        1.0  0.42000  0.76310  0.89910  1.0000 0.1144172615
H   H6        1.0  0.58000  0.47910  0.34310  1.0000 0.1144172615
H   H7        1.0  0.86400  0.52090  0.10090  1.0000 0.1144172615
H   H8        1.0  0.13600  0.23690  0.65690  1.0000 0.1144172615
H   H9        1.0  0.89910  0.42000  0.76310  1.0000 0.120524986
H   H10       1.0  0.34310  0.58000  0.47910  1.0000 0.1144172615
H   H11       1.0  0.10090  0.86400  0.52090  1.0000 0.1144172615
H   H12       1.0  0.65690  0.13600  0.23690  1.0000 0.1144172615
H   H13       1.0  0.89910  0.76310  0.42000  1.0000 0.1144172615
H   H14       1.0  0.34310  0.47910  0.58000  1.0000 0.1144172615
H   H15       1.0  0.10090  0.52090  0.86400  1.0000 0.1144172615
H   H16       1.0  0.65690  0.23690  0.13600  1.0000 0.1144172615
H   H17       1.0  0.76310  0.42000  0.89910  1.0000 0.1144172615
H   H18       1.0  0.47910  0.58000  0.34310  1.0000 0.1144172615
H   H19       1.0  0.52090  0.86400  0.10090  1.0000 0.1144172615
H   H20       1.0  0.23690  0.13600  0.65690  1.0000 0.1144172615
H   H21       1.0  0.42000  0.89910  0.76310  1.0000 0.1144172615
H   H22       1.0  0.58000  0.34310  0.47910  1.0000 0.1144172615
H   H23       1.0  0.86400  0.10090  0.52090  1.0000 0.1144172615
H   H24       1.0  0.13600  0.65690  0.23690  1.0000 0.1144172615
H   H25       1.0  0.52805  0.08067  0.31692  1.0000 0.120524986
H   H26       1.0  0.61232  0.10738  0.65704  1.0000 0.120524986
H   H27       1.0  0.73072  0.24582  0.77545  1.0000 0.1144172615
H   H28       1.0  0.73861  0.17660  0.64916  1.0000 0.120524986
H   H29       1.0  0.31692  0.08067  0.52805  1.0000 0.120524986
H   H30       1.0  0.48491  0.75418  0.52963  1.0000 0.1144172615
H   H31       1.0  0.50493  0.89262  0.54966  1.0000 0.120524986
H   H32       1.0  0.56201  0.82340  0.47256  1.0000 0.120524986
H   H33       1.0  0.30793  0.52679  0.07592  1.0000 0.120524986
H   H34       1.0  0.37594  0.47266  0.00300  1.0000 0.120524986
H   H35       1.0  0.69865  0.77052  0.22419  1.0000 0.120524986
H   H36       1.0  0.62087  0.63106  0.09720  1.0000 0.120524986
H   H37       1.0  0.76212  0.68007  0.20842  1.0000 0.120524986
H   H38       1.0  0.48188  0.38301  0.02081  1.0000 0.120524986
H   H39       1.0  0.52314  0.29157  0.06494  1.0000 0.120524986
H   H40       1.0  0.47301  0.56240  0.82635  1.0000 0.120524986
H   H41       1.0  0.52798  0.48614  0.75276  1.0000 0.1144172615
H   H42       1.0  0.55085  0.50330  0.89110  1.0000 0.120524986
H   H43       1.0  0.02081  0.38301  0.48188  1.0000 0.120524986
H   H44       1.0  0.06494  0.29157  0.52314  1.0000 0.120524986
H   H45       1.0  0.09720  0.63106  0.62087  1.0000 0.120524986
H   H46       1.0  0.22419  0.77052  0.69865  1.0000 0.120524986
H   H47       1.0  0.20842  0.68007  0.76212  1.0000 0.120524986
H   H48       1.0  0.07592  0.52679  0.30793  1.0000 0.120524986
H   H49       1.0  0.00300  0.47266  0.37594  1.0000 0.120524986
H   H50       1.0  0.75276  0.48614  0.52798  1.0000 0.1144172615
H   H51       1.0  0.82635  0.56240  0.47301  1.0000 0.120524986
H   H52       1.0  0.89110  0.50330  0.55085  1.0000 0.120524986
H   H53       1.0  0.91426  0.24378  0.44314  1.0000 0.120524986
H   H54       1.0  0.92108  0.44870  0.23448  1.0000 0.120524986
H   H55       1.0  0.45235  0.92620  0.23059  1.0000 0.120524986
H   H56       1.0  0.46776  0.99313  0.37084  1.0000 0.120524986
H   H57       1.0  0.23059  0.92620  0.45235  1.0000 0.120524986
H   H58       1.0  0.37084  0.99313  0.46776  1.0000 0.120524986
H   H59       1.0  0.23448  0.44870  0.92108  1.0000 0.120524986
H   H60       1.0  0.44314  0.24378  0.91426  1.0000 0.120524986
C   C1        1.0  0.73180  0.94390  0.41490  1.0000 -0.0711898043
C   C2        1.0  0.52900  0.31690  0.58510  1.0000 -0.0711898043
C   C3        1.0  0.47100  0.05610  0.78790  1.0000 -0.0711898043
C   C4        1.0  0.26820  0.68310  0.21210  1.0000 -0.0711898043
C   C5        1.0  0.41490  0.73180  0.94390  1.0000 -0.0711898043
C   C6        1.0  0.58510  0.52900  0.31690  1.0000 -0.0711898043
C   C7        1.0  0.78790  0.47100  0.05610  1.0000 -0.0711898043
C   C8        1.0  0.21210  0.26820  0.68310  1.0000 -0.0711898043
C   C9        1.0  0.94390  0.41490  0.73180  1.0000 -0.0711898043
C   C10       1.0  0.31690  0.58510  0.52900  1.0000 -0.0711898043
C   C11       1.0  0.05610  0.78790  0.47100  1.0000 -0.0711898043
C   C12       1.0  0.68310  0.21210  0.26820  1.0000 -0.0711898043
C   C13       1.0  0.94390  0.73180  0.41490  1.0000 -0.0711898043
C   C14       1.0  0.31690  0.52900  0.58510  1.0000 -0.0711898043
C   C15       1.0  0.05610  0.47100  0.78790  1.0000 -0.0711898043
C   C16       1.0  0.68310  0.26820  0.21210  1.0000 -0.0711898043
C   C17       1.0  0.73180  0.41490  0.94390  1.0000 -0.0711898043
C   C18       1.0  0.52900  0.58510  0.31690  1.0000 -0.0711898043
C   C19       1.0  0.47100  0.78790  0.05610  1.0000 -0.0711898043
C   C20       1.0  0.26820  0.21210  0.68310  1.0000 -0.0711898043
C   C21       1.0  0.41490  0.94390  0.73180  1.0000 -0.0711898043
C   C22       1.0  0.58510  0.31690  0.52900  1.0000 -0.0711898043
C   C23       1.0  0.78790  0.05610  0.47100  1.0000 -0.0711898043
C   C24       1.0  0.21210  0.68310  0.26820  1.0000 -0.0711898043
C   C25       1.0  0.61660  0.00000  0.36980  1.0000 0.3429313476
C   C26       1.0  0.50980  0.00000  0.31900  1.0000 -0.4169698209
C   C27       1.0  0.63020  0.24680  0.63020  1.0000 0.3429313476
C   C28       1.0  0.68100  0.19080  0.68100  1.0000 -0.4169698209
C   C29       1.0  0.36980  0.00000  0.61660  1.0000 0.3429313476
C   C30       1.0  0.31900  0.00000  0.50980  1.0000 -0.4169698209
C   C31       1.0  0.38340  0.75320  0.38340  1.0000 0.3429313476
C   C32       1.0  0.49020  0.80920  0.49020  1.0000 -0.4169698209
C   C33       1.0  0.36980  0.61660  0.00000  1.0000 0.3429313476
C   C34       1.0  0.31900  0.50980  0.00000  1.0000 -0.4169698209
C   C35       1.0  0.63020  0.63020  0.24680  1.0000 0.3429313476
C   C36       1.0  0.68100  0.68100  0.19080  1.0000 -0.4169698209
C   C37       1.0  0.61660  0.36980  0.00000  1.0000 0.3429313476
C   C38       1.0  0.50980  0.31900  0.00000  1.0000 -0.4169698209
C   C39       1.0  0.38340  0.38340  0.75320  1.0000 0.3429313476
C   C40       1.0  0.49020  0.49020  0.80920  1.0000 -0.4169698209
C   C41       1.0  0.00000  0.36980  0.61660  1.0000 0.3429313476
C   C42       1.0  0.00000  0.31900  0.50980  1.0000 -0.4169698209
C   C43       1.0  0.24680  0.63020  0.63020  1.0000 0.3429313476
C   C44       1.0  0.19080  0.68100  0.68100  1.0000 -0.4169698209
C   C45       1.0  0.00000  0.61660  0.36980  1.0000 0.3429313476
C   C46       1.0  0.00000  0.50980  0.31900  1.0000 -0.4169698209
C   C47       1.0  0.75320  0.38340  0.38340  1.0000 0.3429313476
C   C48       1.0  0.80920  0.49020  0.49020  1.0000 -0.4169698209
N   N1        1.0  0.62220  0.90640  0.34960  1.0000 -0.3467541761
N   N2        1.0  0.55680  0.27260  0.65040  1.0000 -0.3443796456
N   N3        1.0  0.44320  0.09360  0.71580  1.0000 -0.3467541761
N   N4        1.0  0.37780  0.72740  0.28420  1.0000 -0.3467541761
N   N5        1.0  0.34960  0.62220  0.90640  1.0000 -0.3467541761
N   N6        1.0  0.65040  0.55680  0.27260  1.0000 -0.3467541761
N   N7        1.0  0.71580  0.44320  0.09360  1.0000 -0.3467541761
N   N8        1.0  0.28420  0.37780  0.72740  1.0000 -0.3467541761
N   N9        1.0  0.90640  0.34960  0.62220  1.0000 -0.3467541761
N   N10       1.0  0.27260  0.65040  0.55680  1.0000 -0.3443796456
N   N11       1.0  0.09360  0.71580  0.44320  1.0000 -0.3467541761
N   N12       1.0  0.72740  0.28420  0.37780  1.0000 -0.3467541761
N   N13       1.0  0.90640  0.62220  0.34960  1.0000 -0.3467541761
N   N14       1.0  0.27260  0.55680  0.65040  1.0000 -0.3467541761
N   N15       1.0  0.09360  0.44320  0.71580  1.0000 -0.3467541761
N   N16       1.0  0.72740  0.37780  0.28420  1.0000 -0.3443796456
N   N17       1.0  0.62220  0.34960  0.90640  1.0000 -0.3443796456
N   N18       1.0  0.55680  0.65040  0.27260  1.0000 -0.3467541761
N   N19       1.0  0.44320  0.71580  0.09360  1.0000 -0.3467541761
N   N20       1.0  0.37780  0.28420  0.72740  1.0000 -0.3467541761
N   N21       1.0  0.34960  0.90640  0.62220  1.0000 -0.3467541761
N   N22       1.0  0.65040  0.27260  0.55680  1.0000 -0.3443796456
N   N23       1.0  0.71580  0.09360  0.44320  1.0000 -0.3467541761
N   N24       1.0  0.28420  0.72740  0.37780  1.0000 -0.3467541761
