# DDEC6 charges by PACMAN v1.1 (https://github.com/mtap-research/PACMAN-charge/)
data_2012[FeZr][csq]3[ASR]1
_chemical_formula_sum              "Zr18 Fe6 H144 C288 N24 Cl6 O72"
_cell_length_a       41.968
_cell_length_b       41.968
_cell_length_c       17.143
_cell_angle_alpha    90
_cell_angle_beta     90
_cell_angle_gamma    120

_symmetry_space_group_name_H-M    "P 1"
_symmetry_Int_Tables_number       1

loop_
  _symmetry_equiv_pos_as_xyz
  'x, y, z'

loop_
  _atom_site_type_symbol
  _atom_site_label
  _atom_site_symmetry_multiplicity
  _atom_site_fract_x
  _atom_site_fract_y
  _atom_site_fract_z
  _atom_site_occupancy
  _atom_site_charge
Zr  Zr1       1.0  0.45798  0.00000  0.10266  1.0000 2.4571064859
Zr  Zr2       1.0  0.45798  0.45798  0.10266  1.0000 2.4571064859
Zr  Zr3       1.0  0.00000  0.45798  0.10266  1.0000 2.4571064859
Zr  Zr4       1.0  0.54202  0.00000  0.10266  1.0000 2.4571064859
Zr  Zr5       1.0  0.54202  0.54202  0.10266  1.0000 2.4571064859
Zr  Zr6       1.0  0.00000  0.54202  0.10266  1.0000 2.4571064859
Zr  Zr7       1.0  0.45798  0.00000  0.89734  1.0000 2.4571064859
Zr  Zr8       1.0  0.54202  0.54202  0.89734  1.0000 2.4571064859
Zr  Zr9       1.0  0.00000  0.45798  0.89734  1.0000 2.4571064859
Zr  Zr10      1.0  0.00000  0.54202  0.89734  1.0000 2.4571064859
Zr  Zr11      1.0  0.54202  0.00000  0.89734  1.0000 2.4571064859
Zr  Zr12      1.0  0.45798  0.45798  0.89734  1.0000 2.4571064859
Zr  Zr13      1.0  0.53382  0.06764  0.00000  1.0000 2.367941903
Zr  Zr14      1.0  0.46618  0.53382  0.00000  1.0000 2.3647304525
Zr  Zr15      1.0  0.93236  0.46618  0.00000  1.0000 2.367941903
Zr  Zr16      1.0  0.46618  0.93236  0.00000  1.0000 2.367941903
Zr  Zr17      1.0  0.53382  0.46618  0.00000  1.0000 2.367941903
Zr  Zr18      1.0  0.06764  0.53382  0.00000  1.0000 2.367941903
Fe  Fe1       1.0  0.51200  0.25600  0.50000  1.0000 0.6336296101
Fe  Fe2       1.0  0.25600  0.51200  0.50000  1.0000 0.6336296101
Fe  Fe3       1.0  0.74400  0.25600  0.50000  1.0000 0.6336296101
Fe  Fe4       1.0  0.48800  0.74400  0.50000  1.0000 0.6388057589
Fe  Fe5       1.0  0.74400  0.48800  0.50000  1.0000 0.6336296101
Fe  Fe6       1.0  0.25600  0.74400  0.50000  1.0000 0.6388057589
H   H1        1.0  0.54680  0.15640  0.15770  1.0000 0.1209667393
H   H2        1.0  0.39040  0.54680  0.15770  1.0000 0.1209667393
H   H3        1.0  0.84360  0.39040  0.15770  1.0000 0.1209667393
H   H4        1.0  0.45320  0.84360  0.15770  1.0000 0.1209667393
H   H5        1.0  0.60960  0.45320  0.15770  1.0000 0.1209667393
H   H6        1.0  0.15640  0.60960  0.15770  1.0000 0.1209667393
H   H7        1.0  0.39040  0.84360  0.84230  1.0000 0.1209667393
H   H8        1.0  0.45320  0.60960  0.84230  1.0000 0.1209667393
H   H9        1.0  0.15640  0.54680  0.84230  1.0000 0.1209667393
H   H10       1.0  0.84360  0.45320  0.84230  1.0000 0.1209667393
H   H11       1.0  0.60960  0.15640  0.84230  1.0000 0.1209667393
H   H12       1.0  0.54680  0.39040  0.84230  1.0000 0.1209667393
H   H13       1.0  0.45320  0.84360  0.84230  1.0000 0.1209667393
H   H14       1.0  0.60960  0.45320  0.84230  1.0000 0.1209667393
H   H15       1.0  0.15640  0.60960  0.84230  1.0000 0.1209667393
H   H16       1.0  0.54680  0.15640  0.84230  1.0000 0.1209667393
H   H17       1.0  0.39040  0.54680  0.84230  1.0000 0.1209667393
H   H18       1.0  0.84360  0.39040  0.84230  1.0000 0.1209667393
H   H19       1.0  0.60960  0.15640  0.15770  1.0000 0.1209667393
H   H20       1.0  0.54680  0.39040  0.15770  1.0000 0.1209667393
H   H21       1.0  0.84360  0.45320  0.15770  1.0000 0.1209667393
H   H22       1.0  0.15640  0.54680  0.15770  1.0000 0.1209667393
H   H23       1.0  0.39040  0.84360  0.15770  1.0000 0.1209667393
H   H24       1.0  0.45320  0.60960  0.15770  1.0000 0.1209667393
H   H25       1.0  0.49810  0.22010  0.20890  1.0000 0.1209667393
H   H26       1.0  0.27800  0.49810  0.20890  1.0000 0.1209667393
H   H27       1.0  0.77990  0.27800  0.20890  1.0000 0.1209667393
H   H28       1.0  0.50190  0.77990  0.20890  1.0000 0.1209667393
H   H29       1.0  0.72200  0.50190  0.20890  1.0000 0.1209667393
H   H30       1.0  0.22010  0.72200  0.20890  1.0000 0.1209667393
H   H31       1.0  0.27800  0.77990  0.79110  1.0000 0.1209667393
H   H32       1.0  0.50190  0.72200  0.79110  1.0000 0.1209667393
H   H33       1.0  0.22010  0.49810  0.79110  1.0000 0.1209667393
H   H34       1.0  0.77990  0.50190  0.79110  1.0000 0.1209667393
H   H35       1.0  0.72200  0.22010  0.79110  1.0000 0.1209667393
H   H36       1.0  0.49810  0.27800  0.79110  1.0000 0.1209667393
H   H37       1.0  0.50190  0.77990  0.79110  1.0000 0.1209667393
H   H38       1.0  0.72200  0.50190  0.79110  1.0000 0.1209667393
H   H39       1.0  0.22010  0.72200  0.79110  1.0000 0.1209667393
H   H40       1.0  0.49810  0.22010  0.79110  1.0000 0.1209667393
H   H41       1.0  0.27800  0.49810  0.79110  1.0000 0.1209667393
H   H42       1.0  0.77990  0.27800  0.79110  1.0000 0.1209667393
H   H43       1.0  0.72200  0.22010  0.20890  1.0000 0.1209667393
H   H44       1.0  0.49810  0.27800  0.20890  1.0000 0.1209667393
H   H45       1.0  0.77990  0.50190  0.20890  1.0000 0.1209667393
H   H46       1.0  0.22010  0.49810  0.20890  1.0000 0.1209667393
H   H47       1.0  0.27800  0.77990  0.20890  1.0000 0.1209667393
H   H48       1.0  0.50190  0.72200  0.20890  1.0000 0.1209667393
H   H49       1.0  0.44550  0.08420  0.23630  1.0000 0.106703693
H   H50       1.0  0.36130  0.44550  0.23630  1.0000 0.106703693
H   H51       1.0  0.91580  0.36130  0.23630  1.0000 0.106703693
H   H52       1.0  0.55450  0.91580  0.23630  1.0000 0.106703693
H   H53       1.0  0.63870  0.55450  0.23630  1.0000 0.106703693
H   H54       1.0  0.08420  0.63870  0.23630  1.0000 0.106703693
H   H55       1.0  0.36130  0.91580  0.76370  1.0000 0.106703693
H   H56       1.0  0.55450  0.63870  0.76370  1.0000 0.106703693
H   H57       1.0  0.08420  0.44550  0.76370  1.0000 0.106703693
H   H58       1.0  0.91580  0.55450  0.76370  1.0000 0.106703693
H   H59       1.0  0.63870  0.08420  0.76370  1.0000 0.106703693
H   H60       1.0  0.44550  0.36130  0.76370  1.0000 0.106703693
H   H61       1.0  0.55450  0.91580  0.76370  1.0000 0.106703693
H   H62       1.0  0.63870  0.55450  0.76370  1.0000 0.106703693
H   H63       1.0  0.08420  0.63870  0.76370  1.0000 0.106703693
H   H64       1.0  0.44550  0.08420  0.76370  1.0000 0.106703693
H   H65       1.0  0.36130  0.44550  0.76370  1.0000 0.106703693
H   H66       1.0  0.91580  0.36130  0.76370  1.0000 0.106703693
H   H67       1.0  0.63870  0.08420  0.23630  1.0000 0.106703693
H   H68       1.0  0.44550  0.36130  0.23630  1.0000 0.106703693
H   H69       1.0  0.91580  0.55450  0.23630  1.0000 0.106703693
H   H70       1.0  0.08420  0.44550  0.23630  1.0000 0.106703693
H   H71       1.0  0.36130  0.91580  0.23630  1.0000 0.106703693
H   H72       1.0  0.55450  0.63870  0.23630  1.0000 0.106703693
H   H73       1.0  0.44960  0.12830  0.32450  1.0000 0.1209667393
H   H74       1.0  0.32130  0.44960  0.32450  1.0000 0.1209667393
H   H75       1.0  0.87170  0.32130  0.32450  1.0000 0.1209667393
H   H76       1.0  0.55040  0.87170  0.32450  1.0000 0.1209667393
H   H77       1.0  0.67870  0.55040  0.32450  1.0000 0.1209667393
H   H78       1.0  0.12830  0.67870  0.32450  1.0000 0.1209667393
H   H79       1.0  0.32130  0.87170  0.67550  1.0000 0.1209667393
H   H80       1.0  0.55040  0.67870  0.67550  1.0000 0.1209667393
H   H81       1.0  0.12830  0.44960  0.67550  1.0000 0.1209667393
H   H82       1.0  0.87170  0.55040  0.67550  1.0000 0.1209667393
H   H83       1.0  0.67870  0.12830  0.67550  1.0000 0.1209667393
H   H84       1.0  0.44960  0.32130  0.67550  1.0000 0.1209667393
H   H85       1.0  0.55040  0.87170  0.67550  1.0000 0.1209667393
H   H86       1.0  0.67870  0.55040  0.67550  1.0000 0.1209667393
H   H87       1.0  0.12830  0.67870  0.67550  1.0000 0.1209667393
H   H88       1.0  0.44960  0.12830  0.67550  1.0000 0.1209667393
H   H89       1.0  0.32130  0.44960  0.67550  1.0000 0.1209667393
H   H90       1.0  0.87170  0.32130  0.67550  1.0000 0.1209667393
H   H91       1.0  0.67870  0.12830  0.32450  1.0000 0.1209667393
H   H92       1.0  0.44960  0.32130  0.32450  1.0000 0.1209667393
H   H93       1.0  0.87170  0.55040  0.32450  1.0000 0.1209667393
H   H94       1.0  0.12830  0.44960  0.32450  1.0000 0.1209667393
H   H95       1.0  0.32130  0.87170  0.32450  1.0000 0.1209667393
H   H96       1.0  0.55040  0.67870  0.32450  1.0000 0.1209667393
H   H97       1.0  0.54970  0.19950  0.24940  1.0000 0.1209667393
H   H98       1.0  0.35020  0.54970  0.24940  1.0000 0.1209667393
H   H99       1.0  0.80050  0.35020  0.24940  1.0000 0.1209667393
H   H100      1.0  0.45030  0.80050  0.24940  1.0000 0.1209667393
H   H101      1.0  0.64980  0.45030  0.24940  1.0000 0.1209667393
H   H102      1.0  0.19950  0.64980  0.24940  1.0000 0.1209667393
H   H103      1.0  0.35020  0.80050  0.75060  1.0000 0.1209667393
H   H104      1.0  0.45030  0.64980  0.75060  1.0000 0.1209667393
H   H105      1.0  0.19950  0.54970  0.75060  1.0000 0.1209667393
H   H106      1.0  0.80050  0.45030  0.75060  1.0000 0.1209667393
H   H107      1.0  0.64980  0.19950  0.75060  1.0000 0.1209667393
H   H108      1.0  0.54970  0.35020  0.75060  1.0000 0.1209667393
H   H109      1.0  0.45030  0.80050  0.75060  1.0000 0.1209667393
H   H110      1.0  0.64980  0.45030  0.75060  1.0000 0.1209667393
H   H111      1.0  0.19950  0.64980  0.75060  1.0000 0.1209667393
H   H112      1.0  0.54970  0.19950  0.75060  1.0000 0.1209667393
H   H113      1.0  0.35020  0.54970  0.75060  1.0000 0.1209667393
H   H114      1.0  0.80050  0.35020  0.75060  1.0000 0.1209667393
H   H115      1.0  0.64980  0.19950  0.24940  1.0000 0.1209667393
H   H116      1.0  0.54970  0.35020  0.24940  1.0000 0.1209667393
H   H117      1.0  0.80050  0.45030  0.24940  1.0000 0.1209667393
H   H118      1.0  0.19950  0.54970  0.24940  1.0000 0.1209667393
H   H119      1.0  0.35020  0.80050  0.24940  1.0000 0.1209667393
H   H120      1.0  0.45030  0.64980  0.24940  1.0000 0.1209667393
H   H121      1.0  0.50310  0.13320  0.42800  1.0000 0.1209667393
H   H122      1.0  0.36990  0.50310  0.42800  1.0000 0.1209667393
H   H123      1.0  0.86680  0.36990  0.42800  1.0000 0.1209667393
H   H124      1.0  0.49690  0.86680  0.42800  1.0000 0.1209667393
H   H125      1.0  0.63010  0.49690  0.42800  1.0000 0.1209667393
H   H126      1.0  0.13320  0.63010  0.42800  1.0000 0.1209667393
H   H127      1.0  0.36990  0.86680  0.57200  1.0000 0.1209667393
H   H128      1.0  0.49690  0.63010  0.57200  1.0000 0.1209667393
H   H129      1.0  0.13320  0.50310  0.57200  1.0000 0.1209667393
H   H130      1.0  0.86680  0.49690  0.57200  1.0000 0.1209667393
H   H131      1.0  0.63010  0.13320  0.57200  1.0000 0.1209667393
H   H132      1.0  0.50310  0.36990  0.57200  1.0000 0.1209667393
H   H133      1.0  0.49690  0.86680  0.57200  1.0000 0.1209667393
H   H134      1.0  0.63010  0.49690  0.57200  1.0000 0.1209667393
H   H135      1.0  0.13320  0.63010  0.57200  1.0000 0.1209667393
H   H136      1.0  0.50310  0.13320  0.57200  1.0000 0.1209667393
H   H137      1.0  0.36990  0.50310  0.57200  1.0000 0.1209667393
H   H138      1.0  0.86680  0.36990  0.57200  1.0000 0.1209667393
H   H139      1.0  0.63010  0.13320  0.42800  1.0000 0.1209667393
H   H140      1.0  0.50310  0.36990  0.42800  1.0000 0.1209667393
H   H141      1.0  0.86680  0.49690  0.42800  1.0000 0.1209667393
H   H142      1.0  0.13320  0.50310  0.42800  1.0000 0.1209667393
H   H143      1.0  0.36990  0.86680  0.42800  1.0000 0.1209667393
H   H144      1.0  0.49690  0.63010  0.42800  1.0000 0.1209667393
C   C1        1.0  0.50226  0.19348  0.35810  1.0000 -0.0697232631
C   C2        1.0  0.30878  0.50226  0.35810  1.0000 -0.0697232631
C   C3        1.0  0.80652  0.30878  0.35810  1.0000 -0.0697232631
C   C4        1.0  0.49774  0.80652  0.35810  1.0000 -0.0697232631
C   C5        1.0  0.69122  0.49774  0.35810  1.0000 -0.0697232631
C   C6        1.0  0.19348  0.69122  0.35810  1.0000 -0.0697232631
C   C7        1.0  0.30878  0.80652  0.64190  1.0000 -0.0697232631
C   C8        1.0  0.49774  0.69122  0.64190  1.0000 -0.0697232631
C   C9        1.0  0.19348  0.50226  0.64190  1.0000 -0.0697232631
C   C10       1.0  0.80652  0.49774  0.64190  1.0000 -0.0697232631
C   C11       1.0  0.69122  0.19348  0.64190  1.0000 -0.0697232631
C   C12       1.0  0.50226  0.30878  0.64190  1.0000 -0.0697232631
C   C13       1.0  0.49774  0.80652  0.64190  1.0000 -0.0697232631
C   C14       1.0  0.69122  0.49774  0.64190  1.0000 -0.0697232631
C   C15       1.0  0.19348  0.69122  0.64190  1.0000 -0.0697232631
C   C16       1.0  0.50226  0.19348  0.64190  1.0000 -0.0697232631
C   C17       1.0  0.30878  0.50226  0.64190  1.0000 -0.0697232631
C   C18       1.0  0.80652  0.30878  0.64190  1.0000 -0.0697232631
C   C19       1.0  0.69122  0.19348  0.35810  1.0000 -0.0697232631
C   C20       1.0  0.50226  0.30878  0.35810  1.0000 -0.0697232631
C   C21       1.0  0.80652  0.49774  0.35810  1.0000 -0.0697232631
C   C22       1.0  0.19348  0.50226  0.35810  1.0000 -0.0697232631
C   C23       1.0  0.30878  0.80652  0.35810  1.0000 -0.0697232631
C   C24       1.0  0.49774  0.69122  0.35810  1.0000 -0.0697232631
C   C25       1.0  0.50287  0.18392  0.43540  1.0000 0.1567174398
C   C26       1.0  0.31895  0.50287  0.43540  1.0000 0.1567174398
C   C27       1.0  0.81608  0.31895  0.43540  1.0000 0.1567174398
C   C28       1.0  0.49713  0.81608  0.43540  1.0000 0.1567174398
C   C29       1.0  0.68105  0.49713  0.43540  1.0000 0.1567174398
C   C30       1.0  0.18392  0.68105  0.43540  1.0000 0.1567174398
C   C31       1.0  0.31895  0.81608  0.56460  1.0000 0.1567174398
C   C32       1.0  0.49713  0.68105  0.56460  1.0000 0.1567174398
C   C33       1.0  0.18392  0.50287  0.56460  1.0000 0.1567174398
C   C34       1.0  0.81608  0.49713  0.56460  1.0000 0.1567174398
C   C35       1.0  0.68105  0.18392  0.56460  1.0000 0.1567174398
C   C36       1.0  0.50287  0.31895  0.56460  1.0000 0.1567174398
C   C37       1.0  0.49713  0.81608  0.56460  1.0000 0.1567174398
C   C38       1.0  0.68105  0.49713  0.56460  1.0000 0.1567174398
C   C39       1.0  0.18392  0.68105  0.56460  1.0000 0.1567174398
C   C40       1.0  0.50287  0.18392  0.56460  1.0000 0.1567174398
C   C41       1.0  0.31895  0.50287  0.56460  1.0000 0.1567174398
C   C42       1.0  0.81608  0.31895  0.56460  1.0000 0.1567174398
C   C43       1.0  0.68105  0.18392  0.43540  1.0000 0.1567174398
C   C44       1.0  0.50287  0.31895  0.43540  1.0000 0.1567174398
C   C45       1.0  0.81608  0.49713  0.43540  1.0000 0.1567174398
C   C46       1.0  0.18392  0.50287  0.43540  1.0000 0.1567174398
C   C47       1.0  0.31895  0.81608  0.43540  1.0000 0.1567174398
C   C48       1.0  0.49713  0.68105  0.43540  1.0000 0.1567174398
C   C49       1.0  0.52665  0.15019  0.19190  1.0000 -0.0882027534
C   C50       1.0  0.37646  0.52665  0.19190  1.0000 -0.0882027534
C   C51       1.0  0.84981  0.37646  0.19190  1.0000 -0.0882027534
C   C52       1.0  0.47335  0.84981  0.19190  1.0000 -0.0882027534
C   C53       1.0  0.62354  0.47335  0.19190  1.0000 -0.0882027534
C   C54       1.0  0.15019  0.62354  0.19190  1.0000 -0.0882027534
C   C55       1.0  0.37646  0.84981  0.80810  1.0000 -0.0882027534
C   C56       1.0  0.47335  0.62354  0.80810  1.0000 -0.0882027534
C   C57       1.0  0.15019  0.52665  0.80810  1.0000 -0.0882027534
C   C58       1.0  0.84981  0.47335  0.80810  1.0000 -0.0882027534
C   C59       1.0  0.62354  0.15019  0.80810  1.0000 -0.0882027534
C   C60       1.0  0.52665  0.37646  0.80810  1.0000 -0.0882027534
C   C61       1.0  0.47335  0.84981  0.80810  1.0000 -0.0882027534
C   C62       1.0  0.62354  0.47335  0.80810  1.0000 -0.0882027534
C   C63       1.0  0.15019  0.62354  0.80810  1.0000 -0.0882027534
C   C64       1.0  0.52665  0.15019  0.80810  1.0000 -0.0882027534
C   C65       1.0  0.37646  0.52665  0.80810  1.0000 -0.0882027534
C   C66       1.0  0.84981  0.37646  0.80810  1.0000 -0.0882027534
C   C67       1.0  0.62354  0.15019  0.19190  1.0000 -0.0882027534
C   C68       1.0  0.52665  0.37646  0.19190  1.0000 -0.0882027534
C   C69       1.0  0.84981  0.47335  0.19190  1.0000 -0.0882027534
C   C70       1.0  0.15019  0.52665  0.19190  1.0000 -0.0882027534
C   C71       1.0  0.37646  0.84981  0.19190  1.0000 -0.0882027534
C   C72       1.0  0.47335  0.62354  0.19190  1.0000 -0.0882027534
C   C73       1.0  0.49969  0.23415  0.25360  1.0000 -0.1732122991
C   C74       1.0  0.26554  0.49969  0.25360  1.0000 -0.1732122991
C   C75       1.0  0.76585  0.26554  0.25360  1.0000 -0.1732122991
C   C76       1.0  0.50031  0.76585  0.25360  1.0000 -0.1732122991
C   C77       1.0  0.73446  0.50031  0.25360  1.0000 -0.1732122991
C   C78       1.0  0.23415  0.73446  0.25360  1.0000 -0.1732122991
C   C79       1.0  0.26554  0.76585  0.74640  1.0000 -0.1732122991
C   C80       1.0  0.50031  0.73446  0.74640  1.0000 -0.1732122991
C   C81       1.0  0.23415  0.49969  0.74640  1.0000 -0.1732122991
C   C82       1.0  0.76585  0.50031  0.74640  1.0000 -0.1732122991
C   C83       1.0  0.73446  0.23415  0.74640  1.0000 -0.1732122991
C   C84       1.0  0.49969  0.26554  0.74640  1.0000 -0.1732122991
C   C85       1.0  0.50031  0.76585  0.74640  1.0000 -0.1732122991
C   C86       1.0  0.73446  0.50031  0.74640  1.0000 -0.1732122991
C   C87       1.0  0.23415  0.73446  0.74640  1.0000 -0.1732122991
C   C88       1.0  0.49969  0.23415  0.74640  1.0000 -0.1732122991
C   C89       1.0  0.26554  0.49969  0.74640  1.0000 -0.1732122991
C   C90       1.0  0.76585  0.26554  0.74640  1.0000 -0.1732122991
C   C91       1.0  0.73446  0.23415  0.25360  1.0000 -0.1732122991
C   C92       1.0  0.49969  0.26554  0.25360  1.0000 -0.1732122991
C   C93       1.0  0.76585  0.50031  0.25360  1.0000 -0.1732122991
C   C94       1.0  0.23415  0.49969  0.25360  1.0000 -0.1732122991
C   C95       1.0  0.26554  0.76585  0.25360  1.0000 -0.1732122991
C   C96       1.0  0.50031  0.73446  0.25360  1.0000 -0.1732122991
C   C97       1.0  0.49592  0.11662  0.18760  1.0000 -0.0472560581
C   C98       1.0  0.37930  0.49592  0.18760  1.0000 -0.0472560581
C   C99       1.0  0.88338  0.37930  0.18760  1.0000 -0.0472560581
C   C100      1.0  0.50408  0.88338  0.18760  1.0000 -0.0472560581
C   C101      1.0  0.62070  0.50408  0.18760  1.0000 -0.0472560581
C   C102      1.0  0.11662  0.62070  0.18760  1.0000 -0.0472560581
C   C103      1.0  0.37930  0.88338  0.81240  1.0000 -0.0472560581
C   C104      1.0  0.50408  0.62070  0.81240  1.0000 -0.0472560581
C   C105      1.0  0.11662  0.49592  0.81240  1.0000 -0.0472560581
C   C106      1.0  0.88338  0.50408  0.81240  1.0000 -0.0472560581
C   C107      1.0  0.62070  0.11662  0.81240  1.0000 -0.0472560581
C   C108      1.0  0.49592  0.37930  0.81240  1.0000 -0.0472560581
C   C109      1.0  0.50408  0.88338  0.81240  1.0000 -0.0472560581
C   C110      1.0  0.62070  0.50408  0.81240  1.0000 -0.0472560581
C   C111      1.0  0.11662  0.62070  0.81240  1.0000 -0.0472560581
C   C112      1.0  0.49592  0.11662  0.81240  1.0000 -0.0472560581
C   C113      1.0  0.37930  0.49592  0.81240  1.0000 -0.0472560581
C   C114      1.0  0.88338  0.37930  0.81240  1.0000 -0.0472560581
C   C115      1.0  0.62070  0.11662  0.18760  1.0000 -0.0472560581
C   C116      1.0  0.49592  0.37930  0.18760  1.0000 -0.0472560581
C   C117      1.0  0.88338  0.50408  0.18760  1.0000 -0.0472560581
C   C118      1.0  0.11662  0.49592  0.18760  1.0000 -0.0472560581
C   C119      1.0  0.37930  0.88338  0.18760  1.0000 -0.0472560581
C   C120      1.0  0.50408  0.62070  0.18760  1.0000 -0.0472560581
C   C121      1.0  0.49360  0.08768  0.13140  1.0000 0.6388057589
C   C122      1.0  0.40592  0.49360  0.13140  1.0000 0.6388057589
C   C123      1.0  0.91232  0.40592  0.13140  1.0000 0.6388057589
C   C124      1.0  0.50640  0.91232  0.13140  1.0000 0.6388057589
C   C125      1.0  0.59408  0.50640  0.13140  1.0000 0.6388057589
C   C126      1.0  0.08768  0.59408  0.13140  1.0000 0.6388057589
C   C127      1.0  0.40592  0.91232  0.86860  1.0000 0.6388057589
C   C128      1.0  0.50640  0.59408  0.86860  1.0000 0.6388057589
C   C129      1.0  0.08768  0.49360  0.86860  1.0000 0.6388057589
C   C130      1.0  0.91232  0.50640  0.86860  1.0000 0.6388057589
C   C131      1.0  0.59408  0.08768  0.86860  1.0000 0.6388057589
C   C132      1.0  0.49360  0.40592  0.86860  1.0000 0.6388057589
C   C133      1.0  0.50640  0.91232  0.86860  1.0000 0.6388057589
C   C134      1.0  0.59408  0.50640  0.86860  1.0000 0.6388057589
C   C135      1.0  0.08768  0.59408  0.86860  1.0000 0.6388057589
C   C136      1.0  0.49360  0.08768  0.86860  1.0000 0.6388057589
C   C137      1.0  0.40592  0.49360  0.86860  1.0000 0.6388057589
C   C138      1.0  0.91232  0.40592  0.86860  1.0000 0.6388057589
C   C139      1.0  0.59408  0.08768  0.13140  1.0000 0.6388057589
C   C140      1.0  0.49360  0.40592  0.13140  1.0000 0.6388057589
C   C141      1.0  0.91232  0.50640  0.13140  1.0000 0.6388057589
C   C142      1.0  0.08768  0.49360  0.13140  1.0000 0.6388057589
C   C143      1.0  0.40592  0.91232  0.13140  1.0000 0.6388057589
C   C144      1.0  0.50640  0.59408  0.13140  1.0000 0.6388057589
C   C145      1.0  0.46701  0.10779  0.23810  1.0000 -0.0882027534
C   C146      1.0  0.35922  0.46701  0.23810  1.0000 -0.0882027534
C   C147      1.0  0.89221  0.35922  0.23810  1.0000 -0.0882027534
C   C148      1.0  0.53299  0.89221  0.23810  1.0000 -0.0882027534
C   C149      1.0  0.64078  0.53299  0.23810  1.0000 -0.0882027534
C   C150      1.0  0.10779  0.64078  0.23810  1.0000 -0.0882027534
C   C151      1.0  0.35922  0.89221  0.76190  1.0000 -0.0882027534
C   C152      1.0  0.53299  0.64078  0.76190  1.0000 -0.0882027534
C   C153      1.0  0.10779  0.46701  0.76190  1.0000 -0.0882027534
C   C154      1.0  0.89221  0.53299  0.76190  1.0000 -0.0882027534
C   C155      1.0  0.64078  0.10779  0.76190  1.0000 -0.0882027534
C   C156      1.0  0.46701  0.35922  0.76190  1.0000 -0.0882027534
C   C157      1.0  0.53299  0.89221  0.76190  1.0000 -0.0882027534
C   C158      1.0  0.64078  0.53299  0.76190  1.0000 -0.0882027534
C   C159      1.0  0.10779  0.64078  0.76190  1.0000 -0.0882027534
C   C160      1.0  0.46701  0.10779  0.76190  1.0000 -0.0882027534
C   C161      1.0  0.35922  0.46701  0.76190  1.0000 -0.0882027534
C   C162      1.0  0.89221  0.35922  0.76190  1.0000 -0.0882027534
C   C163      1.0  0.64078  0.10779  0.23810  1.0000 -0.0882027534
C   C164      1.0  0.46701  0.35922  0.23810  1.0000 -0.0882027534
C   C165      1.0  0.89221  0.53299  0.23810  1.0000 -0.0882027534
C   C166      1.0  0.10779  0.46701  0.23810  1.0000 -0.0882027534
C   C167      1.0  0.35922  0.89221  0.23810  1.0000 -0.0882027534
C   C168      1.0  0.53299  0.64078  0.23810  1.0000 -0.0882027534
C   C169      1.0  0.50258  0.22487  0.33340  1.0000 0.1567174398
C   C170      1.0  0.27771  0.50258  0.33340  1.0000 0.1567174398
C   C171      1.0  0.77513  0.27771  0.33340  1.0000 0.1567174398
C   C172      1.0  0.49742  0.77513  0.33340  1.0000 0.1567174398
C   C173      1.0  0.72229  0.49742  0.33340  1.0000 0.1567174398
C   C174      1.0  0.22487  0.72229  0.33340  1.0000 0.1567174398
C   C175      1.0  0.27771  0.77513  0.66667  1.0000 0.1567174398
C   C176      1.0  0.49742  0.72229  0.66667  1.0000 0.1567174398
C   C177      1.0  0.22487  0.50258  0.66667  1.0000 0.1567174398
C   C178      1.0  0.77513  0.49742  0.66667  1.0000 0.1567174398
C   C179      1.0  0.72229  0.22487  0.66667  1.0000 0.1567174398
C   C180      1.0  0.50258  0.27771  0.66667  1.0000 0.1567174398
C   C181      1.0  0.49742  0.77513  0.66667  1.0000 0.1567174398
C   C182      1.0  0.72229  0.49742  0.66667  1.0000 0.1567174398
C   C183      1.0  0.22487  0.72229  0.66667  1.0000 0.1567174398
C   C184      1.0  0.50258  0.22487  0.66667  1.0000 0.1567174398
C   C185      1.0  0.27771  0.50258  0.66667  1.0000 0.1567174398
C   C186      1.0  0.77513  0.27771  0.66667  1.0000 0.1567174398
C   C187      1.0  0.72229  0.22487  0.33340  1.0000 0.1567174398
C   C188      1.0  0.50258  0.27771  0.33340  1.0000 0.1567174398
C   C189      1.0  0.77513  0.49742  0.33340  1.0000 0.1567174398
C   C190      1.0  0.22487  0.50258  0.33340  1.0000 0.1567174398
C   C191      1.0  0.27771  0.77513  0.33340  1.0000 0.1567174398
C   C192      1.0  0.49742  0.72229  0.33340  1.0000 0.1567174398
C   C193      1.0  0.46991  0.13396  0.29130  1.0000 -0.1524514209
C   C194      1.0  0.33595  0.46991  0.29130  1.0000 -0.1524514209
C   C195      1.0  0.86604  0.33595  0.29130  1.0000 -0.1524514209
C   C196      1.0  0.53009  0.86604  0.29130  1.0000 -0.1524514209
C   C197      1.0  0.66405  0.53009  0.29130  1.0000 -0.1524514209
C   C198      1.0  0.13396  0.66405  0.29130  1.0000 -0.1524514209
C   C199      1.0  0.33595  0.86604  0.70870  1.0000 -0.1524514209
C   C200      1.0  0.53009  0.66405  0.70870  1.0000 -0.1524514209
C   C201      1.0  0.13396  0.46991  0.70870  1.0000 -0.1524514209
C   C202      1.0  0.86604  0.53009  0.70870  1.0000 -0.1524514209
C   C203      1.0  0.66405  0.13396  0.70870  1.0000 -0.1524514209
C   C204      1.0  0.46991  0.33595  0.70870  1.0000 -0.1524514209
C   C205      1.0  0.53009  0.86604  0.70870  1.0000 -0.1524514209
C   C206      1.0  0.66405  0.53009  0.70870  1.0000 -0.1524514209
C   C207      1.0  0.13396  0.66405  0.70870  1.0000 -0.1524514209
C   C208      1.0  0.46991  0.13396  0.70870  1.0000 -0.1524514209
C   C209      1.0  0.33595  0.46991  0.70870  1.0000 -0.1524514209
C   C210      1.0  0.86604  0.33595  0.70870  1.0000 -0.1524514209
C   C211      1.0  0.66405  0.13396  0.29130  1.0000 -0.1524514209
C   C212      1.0  0.46991  0.33595  0.29130  1.0000 -0.1524514209
C   C213      1.0  0.86604  0.53009  0.29130  1.0000 -0.1524514209
C   C214      1.0  0.13396  0.46991  0.29130  1.0000 -0.1524514209
C   C215      1.0  0.33595  0.86604  0.29130  1.0000 -0.1524514209
C   C216      1.0  0.53009  0.66405  0.29130  1.0000 -0.1524514209
C   C217      1.0  0.50048  0.16701  0.29750  1.0000 0.0798657865
C   C218      1.0  0.33347  0.50048  0.29750  1.0000 0.0798657865
C   C219      1.0  0.83299  0.33347  0.29750  1.0000 0.0798657865
C   C220      1.0  0.49952  0.83299  0.29750  1.0000 0.0798657865
C   C221      1.0  0.66653  0.49952  0.29750  1.0000 0.0798657865
C   C222      1.0  0.16701  0.66653  0.29750  1.0000 0.0798657865
C   C223      1.0  0.33347  0.83299  0.70250  1.0000 0.0798657865
C   C224      1.0  0.49952  0.66653  0.70250  1.0000 0.0798657865
C   C225      1.0  0.16701  0.50048  0.70250  1.0000 0.0798657865
C   C226      1.0  0.83299  0.49952  0.70250  1.0000 0.0798657865
C   C227      1.0  0.66653  0.16701  0.70250  1.0000 0.0798657865
C   C228      1.0  0.50048  0.33347  0.70250  1.0000 0.0798657865
C   C229      1.0  0.49952  0.83299  0.70250  1.0000 0.0798657865
C   C230      1.0  0.66653  0.49952  0.70250  1.0000 0.0798657865
C   C231      1.0  0.16701  0.66653  0.70250  1.0000 0.0798657865
C   C232      1.0  0.50048  0.16701  0.70250  1.0000 0.0798657865
C   C233      1.0  0.33347  0.50048  0.70250  1.0000 0.0798657865
C   C234      1.0  0.83299  0.33347  0.70250  1.0000 0.0798657865
C   C235      1.0  0.66653  0.16701  0.29750  1.0000 0.0798657865
C   C236      1.0  0.50048  0.33347  0.29750  1.0000 0.0798657865
C   C237      1.0  0.83299  0.49952  0.29750  1.0000 0.0798657865
C   C238      1.0  0.16701  0.50048  0.29750  1.0000 0.0798657865
C   C239      1.0  0.33347  0.83299  0.29750  1.0000 0.0798657865
C   C240      1.0  0.49952  0.66653  0.29750  1.0000 0.0798657865
C   C241      1.0  0.52848  0.17569  0.24720  1.0000 -0.1564451357
C   C242      1.0  0.35279  0.52848  0.24720  1.0000 -0.1564451357
C   C243      1.0  0.82431  0.35279  0.24720  1.0000 -0.1564451357
C   C244      1.0  0.47152  0.82431  0.24720  1.0000 -0.1564451357
C   C245      1.0  0.64721  0.47152  0.24720  1.0000 -0.1564451357
C   C246      1.0  0.17569  0.64721  0.24720  1.0000 -0.1564451357
C   C247      1.0  0.35279  0.82431  0.75280  1.0000 -0.1564451357
C   C248      1.0  0.47152  0.64721  0.75280  1.0000 -0.1564451357
C   C249      1.0  0.17569  0.52848  0.75280  1.0000 -0.1564451357
C   C250      1.0  0.82431  0.47152  0.75280  1.0000 -0.1564451357
C   C251      1.0  0.64721  0.17569  0.75280  1.0000 -0.1564451357
C   C252      1.0  0.52848  0.35279  0.75280  1.0000 -0.1564451357
C   C253      1.0  0.47152  0.82431  0.75280  1.0000 -0.1564451357
C   C254      1.0  0.64721  0.47152  0.75280  1.0000 -0.1564451357
C   C255      1.0  0.17569  0.64721  0.75280  1.0000 -0.1564451357
C   C256      1.0  0.52848  0.17569  0.75280  1.0000 -0.1564451357
C   C257      1.0  0.35279  0.52848  0.75280  1.0000 -0.1564451357
C   C258      1.0  0.82431  0.35279  0.75280  1.0000 -0.1564451357
C   C259      1.0  0.64721  0.17569  0.24720  1.0000 -0.1564451357
C   C260      1.0  0.52848  0.35279  0.24720  1.0000 -0.1564451357
C   C261      1.0  0.82431  0.47152  0.24720  1.0000 -0.1564451357
C   C262      1.0  0.17569  0.52848  0.24720  1.0000 -0.1564451357
C   C263      1.0  0.35279  0.82431  0.24720  1.0000 -0.1564451357
C   C264      1.0  0.47152  0.64721  0.24720  1.0000 -0.1564451357
C   C265      1.0  0.50300  0.15141  0.46070  1.0000 -0.1835022097
C   C266      1.0  0.35159  0.50300  0.46070  1.0000 -0.1835022097
C   C267      1.0  0.84859  0.35159  0.46070  1.0000 -0.1835022097
C   C268      1.0  0.49700  0.84859  0.46070  1.0000 -0.1835022097
C   C269      1.0  0.64841  0.49700  0.46070  1.0000 -0.1835022097
C   C270      1.0  0.15141  0.64841  0.46070  1.0000 -0.1835022097
C   C271      1.0  0.35159  0.84859  0.53930  1.0000 -0.1835022097
C   C272      1.0  0.49700  0.64841  0.53930  1.0000 -0.1835022097
C   C273      1.0  0.15141  0.50300  0.53930  1.0000 -0.1835022097
C   C274      1.0  0.84859  0.49700  0.53930  1.0000 -0.1835022097
C   C275      1.0  0.64841  0.15141  0.53930  1.0000 -0.1835022097
C   C276      1.0  0.50300  0.35159  0.53930  1.0000 -0.1835022097
C   C277      1.0  0.49700  0.84859  0.53930  1.0000 -0.1835022097
C   C278      1.0  0.64841  0.49700  0.53930  1.0000 -0.1835022097
C   C279      1.0  0.15141  0.64841  0.53930  1.0000 -0.1835022097
C   C280      1.0  0.50300  0.15141  0.53930  1.0000 -0.1835022097
C   C281      1.0  0.35159  0.50300  0.53930  1.0000 -0.1835022097
C   C282      1.0  0.84859  0.35159  0.53930  1.0000 -0.1835022097
C   C283      1.0  0.64841  0.15141  0.46070  1.0000 -0.1835022097
C   C284      1.0  0.50300  0.35159  0.46070  1.0000 -0.1835022097
C   C285      1.0  0.84859  0.49700  0.46070  1.0000 -0.1835022097
C   C286      1.0  0.15141  0.50300  0.46070  1.0000 -0.1835022097
C   C287      1.0  0.35159  0.84859  0.46070  1.0000 -0.1835022097
C   C288      1.0  0.49700  0.64841  0.46070  1.0000 -0.1835022097
N   N1        1.0  0.50405  0.25202  0.38240  1.0000 -0.3006498727
N   N2        1.0  0.25202  0.50405  0.38240  1.0000 -0.3006498727
N   N3        1.0  0.74797  0.25202  0.38240  1.0000 -0.3006498727
N   N4        1.0  0.49595  0.74797  0.38240  1.0000 -0.3006498727
N   N5        1.0  0.74797  0.49595  0.38240  1.0000 -0.3006498727
N   N6        1.0  0.25202  0.74797  0.38240  1.0000 -0.3006498727
N   N7        1.0  0.25202  0.74797  0.61760  1.0000 -0.3006498727
N   N8        1.0  0.49595  0.74797  0.61760  1.0000 -0.3006498727
N   N9        1.0  0.25202  0.50405  0.61760  1.0000 -0.3006498727
N   N10       1.0  0.74797  0.49595  0.61760  1.0000 -0.3006498727
N   N11       1.0  0.74797  0.25202  0.61760  1.0000 -0.3006498727
N   N12       1.0  0.50405  0.25202  0.61760  1.0000 -0.3006498727
N   N13       1.0  0.50293  0.20432  0.50000  1.0000 -0.3006498727
N   N14       1.0  0.29861  0.50293  0.50000  1.0000 -0.3006498727
N   N15       1.0  0.79568  0.29861  0.50000  1.0000 -0.3006498727
N   N16       1.0  0.49707  0.79568  0.50000  1.0000 -0.3006498727
N   N17       1.0  0.70139  0.49707  0.50000  1.0000 -0.3006498727
N   N18       1.0  0.20432  0.70139  0.50000  1.0000 -0.3006498727
N   N19       1.0  0.29861  0.79568  0.50000  1.0000 -0.3006498727
N   N20       1.0  0.49707  0.70139  0.50000  1.0000 -0.3006498727
N   N21       1.0  0.20432  0.50293  0.50000  1.0000 -0.3006498727
N   N22       1.0  0.79568  0.49707  0.50000  1.0000 -0.3006498727
N   N23       1.0  0.70139  0.20432  0.50000  1.0000 -0.3006498727
N   N24       1.0  0.50293  0.29861  0.50000  1.0000 -0.3006498727
Cl  Cl1       1.0  0.57704  0.28852  0.50000  1.0000 -0.4600884765
Cl  Cl2       1.0  0.28852  0.57704  0.50000  1.0000 -0.4600884765
Cl  Cl3       1.0  0.71148  0.28852  0.50000  1.0000 -0.4600884765
Cl  Cl4       1.0  0.42296  0.71148  0.50000  1.0000 -0.4600884765
Cl  Cl5       1.0  0.71148  0.42296  0.50000  1.0000 -0.4600884765
Cl  Cl6       1.0  0.28852  0.71148  0.50000  1.0000 -0.4600884765
O   O1        1.0  0.51645  0.03289  0.10310  1.0000 -1.1747718106
O   O2        1.0  0.48356  0.51645  0.10310  1.0000 -1.1794405691
O   O3        1.0  0.96711  0.48356  0.10310  1.0000 -1.1747718106
O   O4        1.0  0.48356  0.96711  0.10310  1.0000 -1.1794405691
O   O5        1.0  0.51645  0.48356  0.10310  1.0000 -1.1747718106
O   O6        1.0  0.03289  0.51645  0.10310  1.0000 -1.1794405691
O   O7        1.0  0.48356  0.96711  0.89690  1.0000 -1.1794405691
O   O8        1.0  0.48356  0.51645  0.89690  1.0000 -1.1794405691
O   O9        1.0  0.03289  0.51645  0.89690  1.0000 -1.1794405691
O   O10       1.0  0.96711  0.48356  0.89690  1.0000 -1.1747718106
O   O11       1.0  0.51645  0.03289  0.89690  1.0000 -1.1747718106
O   O12       1.0  0.51645  0.48356  0.89690  1.0000 -1.1747718106
O   O13       1.0  0.47404  0.03385  0.00000  1.0000 -1.1863799582
O   O14       1.0  0.44019  0.47404  0.00000  1.0000 -1.1794405691
O   O15       1.0  0.96615  0.44019  0.00000  1.0000 -1.1863799582
O   O16       1.0  0.52596  0.96615  0.00000  1.0000 -1.1794405691
O   O17       1.0  0.55981  0.52596  0.00000  1.0000 -1.1794405691
O   O18       1.0  0.03385  0.55981  0.00000  1.0000 -1.1794405691
O   O19       1.0  0.44019  0.96615  0.00000  1.0000 -1.1794405691
O   O20       1.0  0.52596  0.55981  0.00000  1.0000 -1.1794405691
O   O21       1.0  0.03385  0.47404  0.00000  1.0000 -1.1794405691
O   O22       1.0  0.96615  0.52596  0.00000  1.0000 -1.1863799582
O   O23       1.0  0.55981  0.03385  0.00000  1.0000 -1.1863799582
O   O24       1.0  0.47404  0.44019  0.00000  1.0000 -1.1863799582
O   O25       1.0  0.51760  0.09873  0.07892  1.0000 -0.5670359234
O   O26       1.0  0.41887  0.51760  0.07892  1.0000 -0.5670359234
O   O27       1.0  0.90127  0.41887  0.07892  1.0000 -0.5670359234
O   O28       1.0  0.48240  0.90127  0.07892  1.0000 -0.5670359234
O   O29       1.0  0.58113  0.48240  0.07892  1.0000 -0.5670359234
O   O30       1.0  0.09873  0.58113  0.07892  1.0000 -0.5670359234
O   O31       1.0  0.41887  0.90127  0.92108  1.0000 -0.5670359234
O   O32       1.0  0.48240  0.58113  0.92108  1.0000 -0.5670359234
O   O33       1.0  0.09873  0.51760  0.92108  1.0000 -0.5670359234
O   O34       1.0  0.90127  0.48240  0.92108  1.0000 -0.5670359234
O   O35       1.0  0.58113  0.09873  0.92108  1.0000 -0.5670359234
O   O36       1.0  0.51760  0.41887  0.92108  1.0000 -0.5670359234
O   O37       1.0  0.48240  0.90127  0.92108  1.0000 -0.5670359234
O   O38       1.0  0.58113  0.48240  0.92108  1.0000 -0.5670359234
O   O39       1.0  0.09873  0.58113  0.92108  1.0000 -0.5670359234
O   O40       1.0  0.51760  0.09873  0.92108  1.0000 -0.5670359234
O   O41       1.0  0.41887  0.51760  0.92108  1.0000 -0.5670359234
O   O42       1.0  0.90127  0.41887  0.92108  1.0000 -0.5670359234
O   O43       1.0  0.58113  0.09873  0.07892  1.0000 -0.5670359234
O   O44       1.0  0.51760  0.41887  0.07892  1.0000 -0.5670359234
O   O45       1.0  0.90127  0.48240  0.07892  1.0000 -0.5670359234
O   O46       1.0  0.09873  0.51760  0.07892  1.0000 -0.5670359234
O   O47       1.0  0.41887  0.90127  0.07892  1.0000 -0.5670359234
O   O48       1.0  0.48240  0.58113  0.07892  1.0000 -0.5670359234
O   O49       1.0  0.46905  0.05532  0.14348  1.0000 -0.601464577
O   O50       1.0  0.41373  0.46905  0.14348  1.0000 -0.601464577
O   O51       1.0  0.94468  0.41373  0.14348  1.0000 -0.601464577
O   O52       1.0  0.53095  0.94468  0.14348  1.0000 -0.601464577
O   O53       1.0  0.58627  0.53095  0.14348  1.0000 -0.601464577
O   O54       1.0  0.05532  0.58627  0.14348  1.0000 -0.601464577
O   O55       1.0  0.41373  0.94468  0.85652  1.0000 -0.601464577
O   O56       1.0  0.53095  0.58627  0.85652  1.0000 -0.601464577
O   O57       1.0  0.05532  0.46905  0.85652  1.0000 -0.601464577
O   O58       1.0  0.94468  0.53095  0.85652  1.0000 -0.601464577
O   O59       1.0  0.58627  0.05532  0.85652  1.0000 -0.601464577
O   O60       1.0  0.46905  0.41373  0.85652  1.0000 -0.601464577
O   O61       1.0  0.53095  0.94468  0.85652  1.0000 -0.601464577
O   O62       1.0  0.58627  0.53095  0.85652  1.0000 -0.601464577
O   O63       1.0  0.05532  0.58627  0.85652  1.0000 -0.601464577
O   O64       1.0  0.46905  0.05532  0.85652  1.0000 -0.601464577
O   O65       1.0  0.41373  0.46905  0.85652  1.0000 -0.601464577
O   O66       1.0  0.94468  0.41373  0.85652  1.0000 -0.601464577
O   O67       1.0  0.58627  0.05532  0.14348  1.0000 -0.601464577
O   O68       1.0  0.46905  0.41373  0.14348  1.0000 -0.601464577
O   O69       1.0  0.94468  0.53095  0.14348  1.0000 -0.601464577
O   O70       1.0  0.05532  0.46905  0.14348  1.0000 -0.601464577
O   O71       1.0  0.41373  0.94468  0.14348  1.0000 -0.601464577
O   O72       1.0  0.53095  0.58627  0.14348  1.0000 -0.601464577
