# DDEC6 charges by PACMAN v1.1 (https://github.com/mtap-research/PACMAN-charge/)
data_2012[La][nan]3[ASR]3
_chemical_formula_sum              "La12 P16 C32 O96"
_cell_length_a       11.2668
_cell_length_b       13.3604
_cell_length_c       26.282
_cell_angle_alpha    90
_cell_angle_beta     90
_cell_angle_gamma    90

_symmetry_space_group_name_H-M    "P 1"
_symmetry_Int_Tables_number       1

loop_
  _symmetry_equiv_pos_as_xyz
  'x, y, z'

loop_
  _atom_site_type_symbol
  _atom_site_label
  _atom_site_symmetry_multiplicity
  _atom_site_fract_x
  _atom_site_fract_y
  _atom_site_fract_z
  _atom_site_occupancy
  _atom_site_charge
La  La1       1.0  0.02779  0.34141  0.21852  1.0000 1.9006084127
La  La2       1.0  0.52779  0.15859  0.28148  1.0000 1.9074032231
La  La3       1.0  0.47221  0.34141  0.78148  1.0000 1.9006084127
La  La4       1.0  0.97221  0.15859  0.71852  1.0000 1.9006084127
La  La5       1.0  0.97221  0.65859  0.78148  1.0000 1.9006084127
La  La6       1.0  0.47221  0.84141  0.71852  1.0000 1.9006084127
La  La7       1.0  0.52779  0.65859  0.21852  1.0000 1.9074032231
La  La8       1.0  0.02779  0.84141  0.28148  1.0000 1.9006084127
La  La9       1.0  0.75000  0.51130  0.00000  1.0000 2.0326591058
La  La10      1.0  0.25000  0.98870  0.50000  1.0000 2.0384898706
La  La11      1.0  0.25000  0.48870  0.00000  1.0000 2.0384898706
La  La12      1.0  0.75000  0.01130  0.50000  1.0000 2.0326591058
P   P1        1.0  0.86010  0.18370  0.31108  1.0000 1.2701256795
P   P2        1.0  0.36010  0.31630  0.18892  1.0000 1.2701256795
P   P3        1.0  0.63990  0.18370  0.68892  1.0000 1.2701256795
P   P4        1.0  0.13990  0.31630  0.81108  1.0000 1.2701256795
P   P5        1.0  0.13990  0.81630  0.68892  1.0000 1.2701256795
P   P6        1.0  0.63990  0.68370  0.81108  1.0000 1.2701256795
P   P7        1.0  0.36010  0.81630  0.31108  1.0000 1.2701256795
P   P8        1.0  0.86010  0.68370  0.18892  1.0000 1.2701256795
P   P9        1.0  0.70540  0.29250  0.08599  1.0000 1.230807565
P   P10       1.0  0.20540  0.20750  0.41401  1.0000 1.230807565
P   P11       1.0  0.79460  0.29250  0.91401  1.0000 1.230807565
P   P12       1.0  0.29460  0.20750  0.58599  1.0000 1.230807565
P   P13       1.0  0.29460  0.70750  0.91401  1.0000 1.230807565
P   P14       1.0  0.79460  0.79250  0.58599  1.0000 1.230807565
P   P15       1.0  0.20540  0.70750  0.08599  1.0000 1.230807565
P   P16       1.0  0.70540  0.79250  0.41401  1.0000 1.230807565
C   C1        1.0  0.93900  0.08940  0.27460  1.0000 -0.19026614
C   C2        1.0  0.43900  0.41060  0.22540  1.0000 -0.19026614
C   C3        1.0  0.56100  0.08940  0.72540  1.0000 -0.19026614
C   C4        1.0  0.06100  0.41060  0.77460  1.0000 -0.19026614
C   C5        1.0  0.06100  0.91060  0.72540  1.0000 -0.19026614
C   C6        1.0  0.56100  0.58940  0.77460  1.0000 -0.19026614
C   C7        1.0  0.43900  0.91060  0.27460  1.0000 -0.19026614
C   C8        1.0  0.93900  0.58940  0.22540  1.0000 -0.19026614
C   C9        1.0  0.07270  0.09380  0.27650  1.0000 0.611376412
C   C10       1.0  0.57270  0.40620  0.22350  1.0000 0.611376412
C   C11       1.0  0.42730  0.09380  0.72350  1.0000 0.611376412
C   C12       1.0  0.92730  0.40620  0.77650  1.0000 0.611376412
C   C13       1.0  0.92730  0.90620  0.72350  1.0000 0.611376412
C   C14       1.0  0.42730  0.59380  0.77650  1.0000 0.611376412
C   C15       1.0  0.57270  0.90620  0.27650  1.0000 0.611376412
C   C16       1.0  0.07270  0.59380  0.22350  1.0000 0.611376412
C   C17       1.0  0.79760  0.35210  0.13360  1.0000 -0.0880032034
C   C18       1.0  0.29760  0.14790  0.36640  1.0000 -0.0828160198
C   C19       1.0  0.70240  0.35210  0.86640  1.0000 -0.0828160198
C   C20       1.0  0.20240  0.14790  0.63360  1.0000 -0.0880032034
C   C21       1.0  0.20240  0.64790  0.86640  1.0000 -0.0880032034
C   C22       1.0  0.70240  0.85210  0.63360  1.0000 -0.0828160198
C   C23       1.0  0.29760  0.64790  0.13360  1.0000 -0.0828160198
C   C24       1.0  0.79760  0.85210  0.36640  1.0000 -0.0880032034
C   C25       1.0  0.90470  0.39960  0.10910  1.0000 0.6312613411
C   C26       1.0  0.40470  0.10040  0.39090  1.0000 0.6312613411
C   C27       1.0  0.59530  0.39960  0.89090  1.0000 0.6312613411
C   C28       1.0  0.09530  0.10040  0.60910  1.0000 0.6312613411
C   C29       1.0  0.09530  0.60040  0.89090  1.0000 0.6312613411
C   C30       1.0  0.59530  0.89960  0.60910  1.0000 0.6312613411
C   C31       1.0  0.40470  0.60040  0.10910  1.0000 0.6312613411
C   C32       1.0  0.90470  0.89960  0.39090  1.0000 0.6312613411
O   O1        1.0  0.86920  0.28400  0.28290  1.0000 -0.7502741096
O   O2        1.0  0.36920  0.21600  0.21710  1.0000 -0.7502741096
O   O3        1.0  0.63080  0.28400  0.71710  1.0000 -0.7439478861
O   O4        1.0  0.13080  0.21600  0.78290  1.0000 -0.7439478861
O   O5        1.0  0.13080  0.71600  0.71710  1.0000 -0.7439478861
O   O6        1.0  0.63080  0.78400  0.78290  1.0000 -0.7439478861
O   O7        1.0  0.36920  0.71600  0.28290  1.0000 -0.7502741096
O   O8        1.0  0.86920  0.78400  0.21710  1.0000 -0.7502741096
O   O9        1.0  0.91700  0.18830  0.36430  1.0000 -0.5423675852
O   O10       1.0  0.41700  0.31170  0.13570  1.0000 -0.5471706466
O   O11       1.0  0.58300  0.18830  0.63570  1.0000 -0.5423675852
O   O12       1.0  0.08300  0.31170  0.86430  1.0000 -0.5471706466
O   O13       1.0  0.08300  0.81170  0.63570  1.0000 -0.5471706466
O   O14       1.0  0.58300  0.68830  0.86430  1.0000 -0.5423675852
O   O15       1.0  0.41700  0.81170  0.36430  1.0000 -0.5471706466
O   O16       1.0  0.91700  0.68830  0.13570  1.0000 -0.5423675852
O   O17       1.0  0.73040  0.14870  0.31530  1.0000 -0.7024547087
O   O18       1.0  0.23040  0.35130  0.18470  1.0000 -0.7024547087
O   O19       1.0  0.76960  0.14870  0.68470  1.0000 -0.7024547087
O   O20       1.0  0.26960  0.35130  0.81530  1.0000 -0.7024547087
O   O21       1.0  0.26960  0.85130  0.68470  1.0000 -0.7024547087
O   O22       1.0  0.76960  0.64870  0.81530  1.0000 -0.7024547087
O   O23       1.0  0.23040  0.85130  0.31530  1.0000 -0.7024547087
O   O24       1.0  0.73040  0.64870  0.18470  1.0000 -0.7024547087
O   O25       1.0  0.86900  0.00310  0.26970  1.0000 -0.3007279748
O   O26       1.0  0.36900  0.49690  0.23030  1.0000 -0.3007279748
O   O27       1.0  0.63100  0.00310  0.73030  1.0000 -0.3007279748
O   O28       1.0  0.13100  0.49690  0.76970  1.0000 -0.3007279748
O   O29       1.0  0.13100  0.99690  0.73030  1.0000 -0.3007279748
O   O30       1.0  0.63100  0.50310  0.76970  1.0000 -0.3007279748
O   O31       1.0  0.36900  0.99690  0.26970  1.0000 -0.3007279748
O   O32       1.0  0.86900  0.50310  0.23030  1.0000 -0.3007279748
O   O33       1.0  0.12040  0.17620  0.26960  1.0000 -0.4804083158
O   O34       1.0  0.62040  0.32380  0.23040  1.0000 -0.4804083158
O   O35       1.0  0.37960  0.17620  0.73040  1.0000 -0.4804083158
O   O36       1.0  0.87960  0.32380  0.76960  1.0000 -0.4804083158
O   O37       1.0  0.87960  0.82380  0.73040  1.0000 -0.4804083158
O   O38       1.0  0.37960  0.67620  0.76960  1.0000 -0.4804083158
O   O39       1.0  0.62040  0.82380  0.26960  1.0000 -0.4804083158
O   O40       1.0  0.12040  0.67620  0.23040  1.0000 -0.4804083158
O   O41       1.0  0.12650  0.01740  0.28970  1.0000 -0.4692093695
O   O42       1.0  0.62650  0.48260  0.21030  1.0000 -0.4692093695
O   O43       1.0  0.37350  0.01740  0.71030  1.0000 -0.4692093695
O   O44       1.0  0.87350  0.48260  0.78970  1.0000 -0.4692093695
O   O45       1.0  0.87350  0.98260  0.71030  1.0000 -0.4692093695
O   O46       1.0  0.37350  0.51740  0.78970  1.0000 -0.4692093695
O   O47       1.0  0.62650  0.98260  0.28970  1.0000 -0.4692093695
O   O48       1.0  0.12650  0.51740  0.21030  1.0000 -0.4692093695
O   O49       1.0  0.65170  0.37480  0.05200  1.0000 -0.7502741096
O   O50       1.0  0.15170  0.12520  0.44800  1.0000 -0.7502741096
O   O51       1.0  0.84830  0.37480  0.94800  1.0000 -0.7502741096
O   O52       1.0  0.34830  0.12520  0.55200  1.0000 -0.7502741096
O   O53       1.0  0.34830  0.62520  0.94800  1.0000 -0.7502741096
O   O54       1.0  0.84830  0.87480  0.55200  1.0000 -0.7502741096
O   O55       1.0  0.15170  0.62520  0.05200  1.0000 -0.7502741096
O   O56       1.0  0.65170  0.87480  0.44800  1.0000 -0.7502741096
O   O57       1.0  0.78430  0.22120  0.05480  1.0000 -0.5589206466
O   O58       1.0  0.28430  0.27880  0.44520  1.0000 -0.5717289464
O   O59       1.0  0.71570  0.22120  0.94520  1.0000 -0.5589206466
O   O60       1.0  0.21570  0.27880  0.55480  1.0000 -0.5589206466
O   O61       1.0  0.21570  0.77880  0.94520  1.0000 -0.5589206466
O   O62       1.0  0.71570  0.72120  0.55480  1.0000 -0.5589206466
O   O63       1.0  0.28430  0.77880  0.05480  1.0000 -0.5717289464
O   O64       1.0  0.78430  0.72120  0.44520  1.0000 -0.5589206466
O   O65       1.0  0.60700  0.23380  0.11400  1.0000 -0.4804083158
O   O66       1.0  0.10700  0.26620  0.38600  1.0000 -0.4866009431
O   O67       1.0  0.89300  0.23380  0.88600  1.0000 -0.4804083158
O   O68       1.0  0.39300  0.26620  0.61400  1.0000 -0.4866009431
O   O69       1.0  0.39300  0.76620  0.88600  1.0000 -0.4866009431
O   O70       1.0  0.89300  0.73380  0.61400  1.0000 -0.4804083158
O   O71       1.0  0.10700  0.76620  0.11400  1.0000 -0.4866009431
O   O72       1.0  0.60700  0.73380  0.38600  1.0000 -0.4866009431
O   O73       1.0  0.79390  0.30180  0.18030  1.0000 -0.2141958701
O   O74       1.0  0.29390  0.19820  0.31970  1.0000 -0.2170568632
O   O75       1.0  0.70610  0.30180  0.81970  1.0000 -0.2170568632
O   O76       1.0  0.20610  0.19820  0.68030  1.0000 -0.2170568632
O   O77       1.0  0.20610  0.69820  0.81970  1.0000 -0.2141958701
O   O78       1.0  0.70610  0.80180  0.68030  1.0000 -0.2170568632
O   O79       1.0  0.29390  0.69820  0.18030  1.0000 -0.2170568632
O   O80       1.0  0.79390  0.80180  0.31970  1.0000 -0.2141958701
O   O81       1.0  0.88620  0.45440  0.07190  1.0000 -0.5717289464
O   O82       1.0  0.38620  0.04560  0.42810  1.0000 -0.5717289464
O   O83       1.0  0.61380  0.45440  0.92810  1.0000 -0.5717289464
O   O84       1.0  0.11380  0.04560  0.57190  1.0000 -0.5717289464
O   O85       1.0  0.11380  0.54560  0.92810  1.0000 -0.5717289464
O   O86       1.0  0.61380  0.95440  0.57190  1.0000 -0.5717289464
O   O87       1.0  0.38620  0.54560  0.07190  1.0000 -0.5717289464
O   O88       1.0  0.88620  0.95440  0.42810  1.0000 -0.5717289464
O   O89       1.0  0.00080  0.38890  0.13120  1.0000 -0.5589206466
O   O90       1.0  0.50080  0.11110  0.36880  1.0000 -0.5589206466
O   O91       1.0  0.49920  0.38890  0.86880  1.0000 -0.5589206466
O   O92       1.0  0.99920  0.11110  0.63120  1.0000 -0.5589206466
O   O93       1.0  0.99920  0.61110  0.86880  1.0000 -0.5589206466
O   O94       1.0  0.49920  0.88890  0.63120  1.0000 -0.5589206466
O   O95       1.0  0.50080  0.61110  0.13120  1.0000 -0.5589206466
O   O96       1.0  0.00080  0.88890  0.36880  1.0000 -0.5589206466
