# DDEC6 charges by PACMAN v1.1 (https://github.com/mtap-research/PACMAN-charge/)
data_2012[Pr][seh]3[ASR]2
_chemical_formula_sum              "Pr6 H90 C162 O36"
_cell_length_a       16.4393
_cell_length_b       16.4393
_cell_length_c       23.777
_cell_angle_alpha    90
_cell_angle_beta     90
_cell_angle_gamma    120

_symmetry_space_group_name_H-M    "P 1"
_symmetry_Int_Tables_number       1

loop_
  _symmetry_equiv_pos_as_xyz
  'x, y, z'

loop_
  _atom_site_type_symbol
  _atom_site_label
  _atom_site_symmetry_multiplicity
  _atom_site_fract_x
  _atom_site_fract_y
  _atom_site_fract_z
  _atom_site_occupancy
  _atom_site_charge
Pr  Pr1       1.0  0.91567  0.00000  0.00000  1.0000 2.0938426768
Pr  Pr2       1.0  0.00000  0.91567  0.33333  1.0000 2.0938426768
Pr  Pr3       1.0  0.08433  0.08433  0.66667  1.0000 2.0938426768
Pr  Pr4       1.0  0.08433  0.00000  0.50000  1.0000 2.0938426768
Pr  Pr5       1.0  0.00000  0.08433  0.83333  1.0000 2.0938426768
Pr  Pr6       1.0  0.91567  0.91567  0.16667  1.0000 2.0938426768
H   H1        1.0  0.88960  0.70230  0.09160  1.0000 0.13263031
H   H2        1.0  0.29770  0.18730  0.42493  1.0000 0.13263031
H   H3        1.0  0.81270  0.11040  0.75827  1.0000 0.13263031
H   H4        1.0  0.11040  0.29770  0.59160  1.0000 0.13263031
H   H5        1.0  0.70230  0.81270  0.92493  1.0000 0.13263031
H   H6        1.0  0.18730  0.88960  0.25827  1.0000 0.13263031
H   H7        1.0  0.70230  0.88960  0.24173  1.0000 0.13263031
H   H8        1.0  0.18730  0.29770  0.90840  1.0000 0.13263031
H   H9        1.0  0.11040  0.81270  0.57507  1.0000 0.13263031
H   H10       1.0  0.29770  0.11040  0.74173  1.0000 0.13263031
H   H11       1.0  0.81270  0.70230  0.40840  1.0000 0.13263031
H   H12       1.0  0.88960  0.18730  0.07507  1.0000 0.13263031
H   H13       1.0  0.82290  0.54390  0.10590  1.0000 0.1078229882
H   H14       1.0  0.45610  0.27900  0.43923  1.0000 0.1078229882
H   H15       1.0  0.72100  0.17710  0.77257  1.0000 0.1078229882
H   H16       1.0  0.17710  0.45610  0.60590  1.0000 0.1078229882
H   H17       1.0  0.54390  0.72100  0.93923  1.0000 0.1078229882
H   H18       1.0  0.27900  0.82290  0.27257  1.0000 0.1078229882
H   H19       1.0  0.54390  0.82290  0.22743  1.0000 0.1078229882
H   H20       1.0  0.27900  0.45610  0.89410  1.0000 0.1078229882
H   H21       1.0  0.17710  0.72100  0.56077  1.0000 0.1078229882
H   H22       1.0  0.45610  0.17710  0.72743  1.0000 0.1078229882
H   H23       1.0  0.72100  0.54390  0.39410  1.0000 0.1078229882
H   H24       1.0  0.82290  0.27900  0.06077  1.0000 0.1078229882
H   H25       1.0  0.61180  0.49710  0.00180  1.0000 0.1078229882
H   H26       1.0  0.50290  0.11470  0.33513  1.0000 0.1078229882
H   H27       1.0  0.88530  0.38820  0.66847  1.0000 0.1078229882
H   H28       1.0  0.38820  0.50290  0.50180  1.0000 0.1078229882
H   H29       1.0  0.49710  0.88530  0.83513  1.0000 0.1078229882
H   H30       1.0  0.11470  0.61180  0.16847  1.0000 0.1078229882
H   H31       1.0  0.49710  0.61180  0.33153  1.0000 0.1078229882
H   H32       1.0  0.11470  0.50290  0.99820  1.0000 0.1078229882
H   H33       1.0  0.38820  0.88530  0.66487  1.0000 0.1078229882
H   H34       1.0  0.50290  0.38820  0.83153  1.0000 0.1078229882
H   H35       1.0  0.88530  0.49710  0.49820  1.0000 0.1078229882
H   H36       1.0  0.61180  0.11470  0.16487  1.0000 0.1078229882
H   H37       1.0  0.67520  0.65810  0.99100  1.0000 0.1194594331
H   H38       1.0  0.34190  0.01710  0.32433  1.0000 0.1194594331
H   H39       1.0  0.98290  0.32480  0.65767  1.0000 0.1194594331
H   H40       1.0  0.32480  0.34190  0.49100  1.0000 0.1194594331
H   H41       1.0  0.65810  0.98290  0.82433  1.0000 0.1194594331
H   H42       1.0  0.01710  0.67520  0.15767  1.0000 0.1194594331
H   H43       1.0  0.65810  0.67520  0.34233  1.0000 0.1194594331
H   H44       1.0  0.01710  0.34190  0.00900  1.0000 0.1194594331
H   H45       1.0  0.32480  0.98290  0.67567  1.0000 0.1194594331
H   H46       1.0  0.34190  0.32480  0.84233  1.0000 0.1194594331
H   H47       1.0  0.98290  0.65810  0.50900  1.0000 0.1194594331
H   H48       1.0  0.67520  0.01710  0.17567  1.0000 0.1194594331
H   H49       1.0  0.77200  0.38600  0.08333  1.0000 0.1078229882
H   H50       1.0  0.61400  0.38600  0.41667  1.0000 0.1078229882
H   H51       1.0  0.61400  0.22800  0.75000  1.0000 0.1078229882
H   H52       1.0  0.22800  0.61400  0.58333  1.0000 0.1078229882
H   H53       1.0  0.38600  0.61400  0.91667  1.0000 0.1078229882
H   H54       1.0  0.38600  0.77200  0.25000  1.0000 0.1078229882
H   H55       1.0  0.52850  0.37950  0.05810  1.0000 0.1078229882
H   H56       1.0  0.62050  0.14900  0.39143  1.0000 0.1078229882
H   H57       1.0  0.85100  0.47150  0.72477  1.0000 0.1078229882
H   H58       1.0  0.47150  0.62050  0.55810  1.0000 0.1078229882
H   H59       1.0  0.37950  0.85100  0.89143  1.0000 0.1078229882
H   H60       1.0  0.14900  0.52850  0.22477  1.0000 0.1078229882
H   H61       1.0  0.37950  0.52850  0.27523  1.0000 0.1078229882
H   H62       1.0  0.14900  0.62050  0.94190  1.0000 0.1078229882
H   H63       1.0  0.47150  0.85100  0.60857  1.0000 0.1078229882
H   H64       1.0  0.62050  0.47150  0.77523  1.0000 0.1078229882
H   H65       1.0  0.85100  0.37950  0.44190  1.0000 0.1078229882
H   H66       1.0  0.52850  0.14900  0.10857  1.0000 0.1078229882
H   H67       1.0  0.38890  0.26580  0.01480  1.0000 0.1078229882
H   H68       1.0  0.73420  0.12310  0.34813  1.0000 0.1044334188
H   H69       1.0  0.87690  0.61110  0.68147  1.0000 0.1078229882
H   H70       1.0  0.61110  0.73420  0.51480  1.0000 0.1044334188
H   H71       1.0  0.26580  0.87690  0.84813  1.0000 0.1044334188
H   H72       1.0  0.12310  0.38890  0.18147  1.0000 0.1078229882
H   H73       1.0  0.26580  0.38890  0.31853  1.0000 0.1078229882
H   H74       1.0  0.12310  0.73420  0.98520  1.0000 0.1044334188
H   H75       1.0  0.61110  0.87690  0.65187  1.0000 0.1044334188
H   H76       1.0  0.73420  0.61110  0.81853  1.0000 0.1044334188
H   H77       1.0  0.87690  0.26580  0.48520  1.0000 0.1044334188
H   H78       1.0  0.38890  0.12310  0.15187  1.0000 0.1078229882
H   H79       1.0  0.22710  0.18840  0.01630  1.0000 0.13263031
H   H80       1.0  0.81160  0.03870  0.34963  1.0000 0.13263031
H   H81       1.0  0.96130  0.77290  0.68297  1.0000 0.13263031
H   H82       1.0  0.77290  0.81160  0.51630  1.0000 0.13263031
H   H83       1.0  0.18840  0.96130  0.84963  1.0000 0.13263031
H   H84       1.0  0.03870  0.22710  0.18297  1.0000 0.13263031
H   H85       1.0  0.18840  0.22710  0.31703  1.0000 0.13263031
H   H86       1.0  0.03870  0.81160  0.98370  1.0000 0.13263031
H   H87       1.0  0.77290  0.96130  0.65037  1.0000 0.13263031
H   H88       1.0  0.81160  0.77290  0.81703  1.0000 0.13263031
H   H89       1.0  0.96130  0.18840  0.48370  1.0000 0.13263031
H   H90       1.0  0.22710  0.03870  0.15037  1.0000 0.13263031
C   C1        1.0  0.82580  0.80130  0.03740  1.0000 0.6003955022
C   C2        1.0  0.19870  0.02450  0.37073  1.0000 0.6003955022
C   C3        1.0  0.97550  0.17420  0.70407  1.0000 0.6003955022
C   C4        1.0  0.17420  0.19870  0.53740  1.0000 0.6003955022
C   C5        1.0  0.80130  0.97550  0.87073  1.0000 0.6003955022
C   C6        1.0  0.02450  0.82580  0.20407  1.0000 0.6003955022
C   C7        1.0  0.80130  0.82580  0.29593  1.0000 0.6003955022
C   C8        1.0  0.02450  0.19870  0.96260  1.0000 0.6003955022
C   C9        1.0  0.17420  0.97550  0.62927  1.0000 0.6003955022
C   C10       1.0  0.19870  0.17420  0.79593  1.0000 0.6003955022
C   C11       1.0  0.97550  0.80130  0.46260  1.0000 0.6003955022
C   C12       1.0  0.82580  0.02450  0.12927  1.0000 0.6003955022
C   C13       1.0  0.78830  0.69670  0.04200  1.0000 -0.0219676968
C   C14       1.0  0.30330  0.09160  0.37533  1.0000 -0.0219676968
C   C15       1.0  0.90840  0.21170  0.70867  1.0000 -0.0219676968
C   C16       1.0  0.21170  0.30330  0.54200  1.0000 -0.0219676968
C   C17       1.0  0.69670  0.90840  0.87533  1.0000 -0.0219676968
C   C18       1.0  0.09160  0.78830  0.20867  1.0000 -0.0219676968
C   C19       1.0  0.69670  0.78830  0.29133  1.0000 -0.0219676968
C   C20       1.0  0.09160  0.30330  0.95800  1.0000 -0.0219676968
C   C21       1.0  0.21170  0.90840  0.62467  1.0000 -0.0219676968
C   C22       1.0  0.30330  0.21170  0.79133  1.0000 -0.0219676968
C   C23       1.0  0.90840  0.69670  0.45800  1.0000 -0.0219676968
C   C24       1.0  0.78830  0.09160  0.12467  1.0000 -0.0219676968
C   C25       1.0  0.83240  0.66140  0.07480  1.0000 -0.1003861849
C   C26       1.0  0.33860  0.17100  0.40813  1.0000 -0.1003861849
C   C27       1.0  0.82900  0.16760  0.74147  1.0000 -0.1003861849
C   C28       1.0  0.16760  0.33860  0.57480  1.0000 -0.1003861849
C   C29       1.0  0.66140  0.82900  0.90813  1.0000 -0.1003861849
C   C30       1.0  0.17100  0.83240  0.24147  1.0000 -0.1003861849
C   C31       1.0  0.66140  0.83240  0.25853  1.0000 -0.1003861849
C   C32       1.0  0.17100  0.33860  0.92520  1.0000 -0.1003861849
C   C33       1.0  0.16760  0.82900  0.59187  1.0000 -0.1003861849
C   C34       1.0  0.33860  0.16760  0.75853  1.0000 -0.1003861849
C   C35       1.0  0.82900  0.66140  0.42520  1.0000 -0.1003861849
C   C36       1.0  0.83240  0.17100  0.09187  1.0000 -0.1003861849
C   C37       1.0  0.79280  0.56630  0.08280  1.0000 -0.1488227102
C   C38       1.0  0.43370  0.22650  0.41613  1.0000 -0.1488227102
C   C39       1.0  0.77350  0.20720  0.74947  1.0000 -0.1488227102
C   C40       1.0  0.20720  0.43370  0.58280  1.0000 -0.1488227102
C   C41       1.0  0.56630  0.77350  0.91613  1.0000 -0.1488227102
C   C42       1.0  0.22650  0.79280  0.24947  1.0000 -0.1488227102
C   C43       1.0  0.56630  0.79280  0.25053  1.0000 -0.1488227102
C   C44       1.0  0.22650  0.43370  0.91720  1.0000 -0.1488227102
C   C45       1.0  0.20720  0.77350  0.58387  1.0000 -0.1488227102
C   C46       1.0  0.43370  0.20720  0.75053  1.0000 -0.1488227102
C   C47       1.0  0.77350  0.56630  0.41720  1.0000 -0.1488227102
C   C48       1.0  0.79280  0.22650  0.08387  1.0000 -0.1488227102
C   C49       1.0  0.70660  0.50150  0.05660  1.0000 0.0700974973
C   C50       1.0  0.49850  0.20510  0.38993  1.0000 0.0700974973
C   C51       1.0  0.79490  0.29340  0.72327  1.0000 0.0700974973
C   C52       1.0  0.29340  0.49850  0.55660  1.0000 0.0700974973
C   C53       1.0  0.50150  0.79490  0.88993  1.0000 0.0700974973
C   C54       1.0  0.20510  0.70660  0.22327  1.0000 0.0700974973
C   C55       1.0  0.50150  0.70660  0.27673  1.0000 0.0700974973
C   C56       1.0  0.20510  0.49850  0.94340  1.0000 0.0700974973
C   C57       1.0  0.29340  0.79490  0.61007  1.0000 0.0700974973
C   C58       1.0  0.49850  0.29340  0.77673  1.0000 0.0700974973
C   C59       1.0  0.79490  0.50150  0.44340  1.0000 0.0700974973
C   C60       1.0  0.70660  0.20510  0.11007  1.0000 0.0700974973
C   C61       1.0  0.66620  0.53800  0.02130  1.0000 -0.1488227102
C   C62       1.0  0.46200  0.12820  0.35463  1.0000 -0.1488227102
C   C63       1.0  0.87180  0.33380  0.68797  1.0000 -0.1488227102
C   C64       1.0  0.33380  0.46200  0.52130  1.0000 -0.1488227102
C   C65       1.0  0.53800  0.87180  0.85463  1.0000 -0.1556192622
C   C66       1.0  0.12820  0.66620  0.18797  1.0000 -0.1488227102
C   C67       1.0  0.53800  0.66620  0.31203  1.0000 -0.1488227102
C   C68       1.0  0.12820  0.46200  0.97870  1.0000 -0.1488227102
C   C69       1.0  0.33380  0.87180  0.64537  1.0000 -0.1488227102
C   C70       1.0  0.46200  0.33380  0.81203  1.0000 -0.1556192622
C   C71       1.0  0.87180  0.53800  0.47870  1.0000 -0.1556192622
C   C72       1.0  0.66620  0.12820  0.14537  1.0000 -0.1488227102
C   C73       1.0  0.70480  0.63490  0.01410  1.0000 -0.1003861849
C   C74       1.0  0.36510  0.06990  0.34743  1.0000 -0.1003861849
C   C75       1.0  0.93010  0.29520  0.68077  1.0000 -0.1003861849
C   C76       1.0  0.29520  0.36510  0.51410  1.0000 -0.1003861849
C   C77       1.0  0.63490  0.93010  0.84743  1.0000 -0.1003861849
C   C78       1.0  0.06990  0.70480  0.18077  1.0000 -0.1003861849
C   C79       1.0  0.63490  0.70480  0.31923  1.0000 -0.1003861849
C   C80       1.0  0.06990  0.36510  0.98590  1.0000 -0.1003861849
C   C81       1.0  0.29520  0.93010  0.65257  1.0000 -0.1003861849
C   C82       1.0  0.36510  0.29520  0.81923  1.0000 -0.1003861849
C   C83       1.0  0.93010  0.63490  0.48590  1.0000 -0.1003861849
C   C84       1.0  0.70480  0.06990  0.15257  1.0000 -0.1003861849
C   C85       1.0  0.65740  0.40090  0.07040  1.0000 0.0700974973
C   C86       1.0  0.59910  0.25650  0.40373  1.0000 0.0700974973
C   C87       1.0  0.74350  0.34260  0.73707  1.0000 0.0700974973
C   C88       1.0  0.34260  0.59910  0.57040  1.0000 0.0700974973
C   C89       1.0  0.40090  0.74350  0.90373  1.0000 0.0700974973
C   C90       1.0  0.25650  0.65740  0.23707  1.0000 0.0700974973
C   C91       1.0  0.40090  0.65740  0.26293  1.0000 0.0700974973
C   C92       1.0  0.25650  0.59910  0.92960  1.0000 0.0700974973
C   C93       1.0  0.34260  0.74350  0.59627  1.0000 0.0700974973
C   C94       1.0  0.59910  0.34260  0.76293  1.0000 0.0700974973
C   C95       1.0  0.74350  0.40090  0.42960  1.0000 0.0700974973
C   C96       1.0  0.65740  0.25650  0.09627  1.0000 0.0700974973
C   C97       1.0  0.70670  0.35335  0.08333  1.0000 -0.202874808
C   C98       1.0  0.64665  0.35335  0.41667  1.0000 -0.202874808
C   C99       1.0  0.64665  0.29330  0.75000  1.0000 -0.202874808
C   C100      1.0  0.29330  0.64665  0.58333  1.0000 -0.202874808
C   C101      1.0  0.35335  0.64665  0.91667  1.0000 -0.202874808
C   C102      1.0  0.35335  0.70670  0.25000  1.0000 -0.202874808
C   C103      1.0  0.56130  0.34970  0.06910  1.0000 -0.1939532046
C   C104      1.0  0.65030  0.21160  0.40243  1.0000 -0.1939532046
C   C105      1.0  0.78840  0.43870  0.73577  1.0000 -0.1939532046
C   C106      1.0  0.43870  0.65030  0.56910  1.0000 -0.1939532046
C   C107      1.0  0.34970  0.78840  0.90243  1.0000 -0.1939532046
C   C108      1.0  0.21160  0.56130  0.23577  1.0000 -0.1939532046
C   C109      1.0  0.34970  0.56130  0.26423  1.0000 -0.1939532046
C   C110      1.0  0.21160  0.65030  0.93090  1.0000 -0.1939532046
C   C111      1.0  0.43870  0.78840  0.59757  1.0000 -0.1939532046
C   C112      1.0  0.65030  0.43870  0.76423  1.0000 -0.1939532046
C   C113      1.0  0.78840  0.34970  0.43090  1.0000 -0.1939532046
C   C114      1.0  0.56130  0.21160  0.09757  1.0000 -0.1939532046
C   C115      1.0  0.51080  0.25540  0.08333  1.0000 0.0700974973
C   C116      1.0  0.74460  0.25540  0.41667  1.0000 0.0753995567
C   C117      1.0  0.74460  0.48920  0.75000  1.0000 0.0753995567
C   C118      1.0  0.48920  0.74460  0.58333  1.0000 0.0753995567
C   C119      1.0  0.25540  0.74460  0.91667  1.0000 0.0753995567
C   C120      1.0  0.25540  0.51080  0.25000  1.0000 0.0700974973
C   C121      1.0  0.40550  0.20275  0.08333  1.0000 0.0700974973
C   C122      1.0  0.79725  0.20275  0.41667  1.0000 0.0700974973
C   C123      1.0  0.79725  0.59450  0.75000  1.0000 0.0700974973
C   C124      1.0  0.59450  0.79725  0.58333  1.0000 0.0700974973
C   C125      1.0  0.20275  0.79725  0.91667  1.0000 0.0700974973
C   C126      1.0  0.20275  0.40550  0.25000  1.0000 0.0700974973
C   C127      1.0  0.35630  0.22130  0.04260  1.0000 -0.1488227102
C   C128      1.0  0.77870  0.13500  0.37593  1.0000 -0.1488227102
C   C129      1.0  0.86500  0.64370  0.70927  1.0000 -0.1488227102
C   C130      1.0  0.64370  0.77870  0.54260  1.0000 -0.1488227102
C   C131      1.0  0.22130  0.86500  0.87593  1.0000 -0.1488227102
C   C132      1.0  0.13500  0.35630  0.20927  1.0000 -0.1488227102
C   C133      1.0  0.22130  0.35630  0.29073  1.0000 -0.1488227102
C   C134      1.0  0.13500  0.77870  0.95740  1.0000 -0.1488227102
C   C135      1.0  0.64370  0.86500  0.62407  1.0000 -0.1488227102
C   C136      1.0  0.77870  0.64370  0.79073  1.0000 -0.1488227102
C   C137      1.0  0.86500  0.22130  0.45740  1.0000 -0.1488227102
C   C138      1.0  0.35630  0.13500  0.12407  1.0000 -0.1488227102
C   C139      1.0  0.25940  0.17410  0.04300  1.0000 -0.1003861849
C   C140      1.0  0.82590  0.08530  0.37633  1.0000 -0.1003861849
C   C141      1.0  0.91470  0.74060  0.70967  1.0000 -0.1003861849
C   C142      1.0  0.74060  0.82590  0.54300  1.0000 -0.1003861849
C   C143      1.0  0.17410  0.91470  0.87633  1.0000 -0.1003861849
C   C144      1.0  0.08530  0.25940  0.20967  1.0000 -0.1003861849
C   C145      1.0  0.17410  0.25940  0.29033  1.0000 -0.1003861849
C   C146      1.0  0.08530  0.82590  0.95700  1.0000 -0.1003861849
C   C147      1.0  0.74060  0.91470  0.62367  1.0000 -0.1003861849
C   C148      1.0  0.82590  0.74060  0.79033  1.0000 -0.1003861849
C   C149      1.0  0.91470  0.17410  0.45700  1.0000 -0.1003861849
C   C150      1.0  0.25940  0.08530  0.12367  1.0000 -0.1003861849
C   C151      1.0  0.20950  0.10475  0.08333  1.0000 -0.0219676968
C   C152      1.0  0.89525  0.10475  0.41667  1.0000 -0.0219676968
C   C153      1.0  0.89525  0.79050  0.75000  1.0000 -0.0219676968
C   C154      1.0  0.79050  0.89525  0.58333  1.0000 -0.0219676968
C   C155      1.0  0.10475  0.89525  0.91667  1.0000 -0.0219676968
C   C156      1.0  0.10475  0.20950  0.25000  1.0000 -0.0219676968
C   C157      1.0  0.10410  0.05205  0.08333  1.0000 0.6369821146
C   C158      1.0  0.94795  0.05205  0.41667  1.0000 0.6369821146
C   C159      1.0  0.94795  0.89590  0.75000  1.0000 0.6369821146
C   C160      1.0  0.89590  0.94795  0.58333  1.0000 0.6369821146
C   C161      1.0  0.05205  0.94795  0.91667  1.0000 0.6369821146
C   C162      1.0  0.05205  0.10410  0.25000  1.0000 0.6369821146
O   O1        1.0  0.89140  0.85840  0.06880  1.0000 -0.7134582286
O   O2        1.0  0.14160  0.03300  0.40213  1.0000 -0.7134582286
O   O3        1.0  0.96700  0.10860  0.73547  1.0000 -0.7134582286
O   O4        1.0  0.10860  0.14160  0.56880  1.0000 -0.7152592624
O   O5        1.0  0.85840  0.96700  0.90213  1.0000 -0.7134582286
O   O6        1.0  0.03300  0.89140  0.23547  1.0000 -0.7152592624
O   O7        1.0  0.85840  0.89140  0.26453  1.0000 -0.7134582286
O   O8        1.0  0.03300  0.14160  0.93120  1.0000 -0.7134582286
O   O9        1.0  0.10860  0.96700  0.59787  1.0000 -0.7152592624
O   O10       1.0  0.14160  0.10860  0.76453  1.0000 -0.7134582286
O   O11       1.0  0.96700  0.85840  0.43120  1.0000 -0.7134582286
O   O12       1.0  0.89140  0.03300  0.09787  1.0000 -0.7134582286
O   O13       1.0  0.79000  0.83050  0.00160  1.0000 -0.6142280583
O   O14       1.0  0.16950  0.95950  0.33493  1.0000 -0.6142280583
O   O15       1.0  0.04050  0.21000  0.66827  1.0000 -0.6142280583
O   O16       1.0  0.21000  0.16950  0.50160  1.0000 -0.6142280583
O   O17       1.0  0.83050  0.04050  0.83493  1.0000 -0.6142280583
O   O18       1.0  0.95950  0.79000  0.16827  1.0000 -0.6142280583
O   O19       1.0  0.83050  0.79000  0.33173  1.0000 -0.6142280583
O   O20       1.0  0.95950  0.16950  0.99840  1.0000 -0.6142280583
O   O21       1.0  0.21000  0.04050  0.66507  1.0000 -0.6142280583
O   O22       1.0  0.16950  0.21000  0.83173  1.0000 -0.6142280583
O   O23       1.0  0.04050  0.83050  0.49840  1.0000 -0.6142280583
O   O24       1.0  0.79000  0.95950  0.16507  1.0000 -0.6142280583
O   O25       1.0  0.06420  0.07050  0.04510  1.0000 -0.6400094713
O   O26       1.0  0.92950  0.99370  0.37843  1.0000 -0.6400094713
O   O27       1.0  0.00630  0.93580  0.71177  1.0000 -0.6400094713
O   O28       1.0  0.93580  0.92950  0.54510  1.0000 -0.6400094713
O   O29       1.0  0.07050  0.00630  0.87843  1.0000 -0.6400094713
O   O30       1.0  0.99370  0.06420  0.21177  1.0000 -0.6400094713
O   O31       1.0  0.07050  0.06420  0.28823  1.0000 -0.6400094713
O   O32       1.0  0.99370  0.92950  0.95490  1.0000 -0.6400094713
O   O33       1.0  0.93580  0.00630  0.62157  1.0000 -0.6400094713
O   O34       1.0  0.92950  0.93580  0.78823  1.0000 -0.6400094713
O   O35       1.0  0.00630  0.07050  0.45490  1.0000 -0.6400094713
O   O36       1.0  0.06420  0.99370  0.12157  1.0000 -0.6400094713
