# DDEC6 charges by PACMAN v1.1 (https://github.com/mtap-research/PACMAN-charge/)
data_2012[Fe][bpq]3[ASR]2
_chemical_formula_sum              "Fe4 H20 C32 O20"
_cell_length_a       11.2577
_cell_length_b       11.2577
_cell_length_c       15.9049
_cell_angle_alpha    115.848
_cell_angle_beta     115.848
_cell_angle_gamma    90.8657

_symmetry_space_group_name_H-M    "P 1"
_symmetry_Int_Tables_number       1

loop_
  _symmetry_equiv_pos_as_xyz
  'x, y, z'

loop_
  _atom_site_type_symbol
  _atom_site_label
  _atom_site_symmetry_multiplicity
  _atom_site_fract_x
  _atom_site_fract_y
  _atom_site_fract_z
  _atom_site_occupancy
  _atom_site_charge
Fe  Fe1       1.0  0.75177  0.24823  0.25000  1.0000 1.2750499984
Fe  Fe2       1.0  0.24823  0.75177  0.75000  1.0000 1.2729106685
Fe  Fe3       1.0  0.50000  0.00000  0.00000  1.0000 1.3293884536
Fe  Fe4       1.0  0.00000  0.50000  0.50000  1.0000 1.3293884536
H   H1        1.0  0.92044  0.81630  0.42645  1.0000 0.1262537064
H   H2        1.0  0.86776  0.98142  0.37253  1.0000 0.1262537064
H   H3        1.0  0.57251  0.68675  0.07747  1.0000 0.1262537064
H   H4        1.0  0.62519  0.52163  0.13139  1.0000 0.1262537064
H   H5        1.0  0.19949  0.70703  0.56569  1.0000 0.3934378838
H   H6        1.0  0.18370  0.07956  0.07355  1.0000 0.1262537064
H   H7        1.0  0.01858  0.13224  0.12747  1.0000 0.1262537064
H   H8        1.0  0.31325  0.42749  0.42253  1.0000 0.1262537064
H   H9        1.0  0.47837  0.37481  0.36861  1.0000 0.1262537064
H   H10       1.0  0.29297  0.80051  0.93431  1.0000 0.3934378838
H   H11       1.0  0.07956  0.18370  0.57355  1.0000 0.1262537064
H   H12       1.0  0.13224  0.01858  0.62747  1.0000 0.1262537064
H   H13       1.0  0.42749  0.31325  0.92253  1.0000 0.1262537064
H   H14       1.0  0.37481  0.47837  0.86861  1.0000 0.1262537064
H   H15       1.0  0.80051  0.29297  0.43431  1.0000 0.3934378838
H   H16       1.0  0.81630  0.92044  0.92645  1.0000 0.1262537064
H   H17       1.0  0.98142  0.86776  0.87253  1.0000 0.1262537064
H   H18       1.0  0.68675  0.57251  0.57747  1.0000 0.1262537064
H   H19       1.0  0.52163  0.62519  0.63139  1.0000 0.1262537064
H   H20       1.0  0.70703  0.19949  0.06569  1.0000 0.3934378838
C   C1        1.0  0.77718  0.65526  0.28339  1.0000 -0.0298058831
C   C2        1.0  0.84790  0.78930  0.35369  1.0000 -0.0970544787
C   C3        1.0  0.81718  0.88554  0.32225  1.0000 -0.0970544787
C   C4        1.0  0.71577  0.84779  0.22053  1.0000 -0.0298058831
C   C5        1.0  0.64506  0.71376  0.15024  1.0000 -0.0970544787
C   C6        1.0  0.67577  0.61751  0.18167  1.0000 -0.0970544787
C   C7        1.0  0.81015  0.55197  0.31712  1.0000 0.6076101725
C   C8        1.0  0.68280  0.95108  0.18680  1.0000 0.6076101725
C   C9        1.0  0.34474  0.22282  0.21661  1.0000 -0.0298058831
C   C10       1.0  0.21070  0.15210  0.14631  1.0000 -0.0970544787
C   C11       1.0  0.11446  0.18282  0.17775  1.0000 -0.0970544787
C   C12       1.0  0.15221  0.28423  0.27947  1.0000 -0.0298058831
C   C13       1.0  0.28624  0.35494  0.34976  1.0000 -0.0970544787
C   C14       1.0  0.38249  0.32423  0.31833  1.0000 -0.0970544787
C   C15       1.0  0.44803  0.18985  0.18288  1.0000 0.6076101725
C   C16       1.0  0.04892  0.31720  0.31320  1.0000 0.6076101725
C   C17       1.0  0.22282  0.34474  0.71661  1.0000 -0.0298058831
C   C18       1.0  0.15210  0.21070  0.64631  1.0000 -0.0970544787
C   C19       1.0  0.18282  0.11446  0.67775  1.0000 -0.0970544787
C   C20       1.0  0.28423  0.15221  0.77947  1.0000 -0.0298058831
C   C21       1.0  0.35494  0.28624  0.84976  1.0000 -0.0970544787
C   C22       1.0  0.32423  0.38249  0.81833  1.0000 -0.0970544787
C   C23       1.0  0.18985  0.44803  0.68288  1.0000 0.6076101725
C   C24       1.0  0.31720  0.04892  0.81320  1.0000 0.6076101725
C   C25       1.0  0.65526  0.77718  0.78339  1.0000 -0.0298058831
C   C26       1.0  0.78930  0.84790  0.85369  1.0000 -0.0970544787
C   C27       1.0  0.88554  0.81718  0.82225  1.0000 -0.0970544787
C   C28       1.0  0.84779  0.71577  0.72053  1.0000 -0.0298058831
C   C29       1.0  0.71376  0.64506  0.65024  1.0000 -0.0970544787
C   C30       1.0  0.61751  0.67577  0.68167  1.0000 -0.0970544787
C   C31       1.0  0.55197  0.81015  0.81712  1.0000 0.6076101725
C   C32       1.0  0.95108  0.68280  0.68680  1.0000 0.6076101725
O   O1        1.0  0.74655  0.42733  0.25127  1.0000 -0.5385666648
O   O2        1.0  0.90223  0.58739  0.41212  1.0000 -0.5385666648
O   O3        1.0  0.58367  0.91745  0.09469  1.0000 -0.5385666648
O   O4        1.0  0.75346  0.07394  0.24977  1.0000 -0.5230166177
O   O5        1.0  0.66183  0.14795  0.09335  1.0000 -0.8288111547
O   O6        1.0  0.57267  0.25345  0.24873  1.0000 -0.5385666648
O   O7        1.0  0.41261  0.09777  0.08788  1.0000 -0.5385666648
O   O8        1.0  0.08255  0.41633  0.40531  1.0000 -0.5385666648
O   O9        1.0  0.92606  0.24654  0.25023  1.0000 -0.5230166177
O   O10       1.0  0.85205  0.33817  0.40665  1.0000 -0.8288111547
O   O11       1.0  0.25345  0.57267  0.74873  1.0000 -0.5385666648
O   O12       1.0  0.09777  0.41261  0.58788  1.0000 -0.5385666648
O   O13       1.0  0.41633  0.08255  0.90531  1.0000 -0.5385666648
O   O14       1.0  0.24654  0.92606  0.75023  1.0000 -0.5230166177
O   O15       1.0  0.33817  0.85205  0.90665  1.0000 -0.8288111547
O   O16       1.0  0.42733  0.74655  0.75127  1.0000 -0.5385666648
O   O17       1.0  0.58739  0.90223  0.91212  1.0000 -0.5385666648
O   O18       1.0  0.91745  0.58367  0.59469  1.0000 -0.5385666648
O   O19       1.0  0.07394  0.75346  0.74977  1.0000 -0.5230166177
O   O20       1.0  0.14795  0.66183  0.59335  1.0000 -0.8288111547
