# DDEC6 charges by PACMAN v1.1 (https://github.com/mtap-research/PACMAN-charge/)
data_2012[Fe][nan]3[ASR]3
_chemical_formula_sum              "Fe3 H24 C26 N24 O4"
_cell_length_a       13.6846
_cell_length_b       13.6846
_cell_length_c       12.087
_cell_angle_alpha    81.1179
_cell_angle_beta     98.8821
_cell_angle_gamma    52.3736

_symmetry_space_group_name_H-M    "P 1"
_symmetry_Int_Tables_number       1

loop_
  _symmetry_equiv_pos_as_xyz
  'x, y, z'

loop_
  _atom_site_type_symbol
  _atom_site_label
  _atom_site_symmetry_multiplicity
  _atom_site_fract_x
  _atom_site_fract_y
  _atom_site_fract_z
  _atom_site_occupancy
  _atom_site_charge
Fe  Fe1       1.0  0.00000  0.00000  0.00000  1.0000 0.2796920227
Fe  Fe2       1.0  0.10439  0.89561  0.74154  1.0000 0.2151871253
Fe  Fe3       1.0  0.89561  0.10439  0.25846  1.0000 0.2119193454
H   H1        1.0  0.52830  0.47170  0.70740  1.0000 0.1140389434
H   H2        1.0  0.47170  0.52830  0.29260  1.0000 0.1140389434
H   H3        1.0  0.66340  0.33660  0.43960  1.0000 0.1175762444
H   H4        1.0  0.33660  0.66340  0.56040  1.0000 0.1175762444
H   H5        1.0  0.33140  0.09780  0.08090  1.0000 0.1140389434
H   H6        1.0  0.09780  0.33140  0.91910  1.0000 0.1140389434
H   H7        1.0  0.66860  0.90220  0.91910  1.0000 0.1140389434
H   H8        1.0  0.90220  0.66860  0.08090  1.0000 0.1140389434
H   H9        1.0  0.52310  0.87090  0.88540  1.0000 0.1175762444
H   H10       1.0  0.87090  0.52310  0.11460  1.0000 0.1175762444
H   H11       1.0  0.47690  0.12910  0.11460  1.0000 0.1175762444
H   H12       1.0  0.12910  0.47690  0.88540  1.0000 0.1175762444
H   H13       1.0  0.72110  0.27890  0.82930  1.0000 0.2796920227
H   H14       1.0  0.27890  0.72110  0.17070  1.0000 0.2796920227
H   H15       1.0  0.83380  0.16620  0.56360  1.0000 0.2796920227
H   H16       1.0  0.16620  0.83380  0.43640  1.0000 0.2796920227
H   H17       1.0  0.23470  0.00270  0.08550  1.0000 0.2796920227
H   H18       1.0  0.00270  0.23470  0.91450  1.0000 0.2796920227
H   H19       1.0  0.76530  0.99730  0.91450  1.0000 0.2796920227
H   H20       1.0  0.99730  0.76530  0.08550  1.0000 0.2796920227
H   H21       1.0  0.33860  0.90280  0.81380  1.0000 0.2796920227
H   H22       1.0  0.90280  0.33860  0.18620  1.0000 0.2796920227
H   H23       1.0  0.66140  0.09720  0.18620  1.0000 0.2796920227
H   H24       1.0  0.09720  0.66140  0.81380  1.0000 0.2796920227
C   C1        1.0  0.51740  0.48260  0.62560  1.0000 -0.1699478905
C   C2        1.0  0.48260  0.51740  0.37440  1.0000 -0.1699478905
C   C3        1.0  0.61640  0.38360  0.58280  1.0000 -0.0060518322
C   C4        1.0  0.38360  0.61640  0.41720  1.0000 -0.0060518322
C   C5        1.0  0.59660  0.40340  0.46380  1.0000 -0.1525868322
C   C6        1.0  0.40340  0.59660  0.53620  1.0000 -0.1525868322
C   C7        1.0  0.73580  0.26420  0.66780  1.0000 0.1895881449
C   C8        1.0  0.26420  0.73580  0.33220  1.0000 0.1895881449
C   C9        1.0  0.40060  0.05720  0.04820  1.0000 -0.1699478905
C   C10       1.0  0.05720  0.40060  0.95180  1.0000 -0.1699478905
C   C11       1.0  0.59940  0.94280  0.95180  1.0000 -0.1699478905
C   C12       1.0  0.94280  0.59940  0.04820  1.0000 -0.1699478905
C   C13       1.0  0.41240  0.97760  0.98070  1.0000 -0.0038352524
C   C14       1.0  0.97760  0.41240  0.01930  1.0000 -0.0038352524
C   C15       1.0  0.58760  0.02240  0.01930  1.0000 -0.0038352524
C   C16       1.0  0.02240  0.58760  0.98070  1.0000 -0.0038352524
C   C17       1.0  0.51380  0.92340  0.93300  1.0000 -0.1428793702
C   C18       1.0  0.92340  0.51380  0.06700  1.0000 -0.1428793702
C   C19       1.0  0.48620  0.07660  0.06700  1.0000 -0.1428793702
C   C20       1.0  0.07660  0.48620  0.93300  1.0000 -0.1428793702
C   C21       1.0  0.31660  0.96060  0.95770  1.0000 0.1377304052
C   C22       1.0  0.96060  0.31660  0.04230  1.0000 0.1331918616
C   C23       1.0  0.68340  0.03940  0.04230  1.0000 0.1331918616
C   C24       1.0  0.03940  0.68340  0.95770  1.0000 0.1377304052
C   C25       1.0  0.03060  0.03060  0.50000  1.0000 0.4187440057
C   C26       1.0  0.96940  0.96940  0.50000  1.0000 0.4187440057
N   N1        1.0  0.76730  0.23270  0.78490  1.0000 -0.2784897308
N   N2        1.0  0.23270  0.76730  0.21510  1.0000 -0.2784897308
N   N3        1.0  0.88610  0.11390  0.82540  1.0000 -0.0732334959
N   N4        1.0  0.11390  0.88610  0.17460  1.0000 -0.0732334959
N   N5        1.0  0.92040  0.07960  0.73530  1.0000 -0.0554535291
N   N6        1.0  0.07960  0.92040  0.26470  1.0000 -0.0554535291
N   N7        1.0  0.83130  0.16870  0.63720  1.0000 -0.1181527521
N   N8        1.0  0.16870  0.83130  0.36280  1.0000 -0.1181527521
N   N9        1.0  0.23756  0.98056  0.02070  1.0000 -0.2880966733
N   N10       1.0  0.98056  0.23756  0.97930  1.0000 -0.2880966733
N   N11       1.0  0.76244  0.01944  0.97930  1.0000 -0.2880966733
N   N12       1.0  0.01944  0.76244  0.02070  1.0000 -0.2880966733
N   N13       1.0  0.16334  0.95954  0.96300  1.0000 -0.0500175688
N   N14       1.0  0.95954  0.16334  0.03700  1.0000 -0.0500175688
N   N15       1.0  0.83666  0.04046  0.03700  1.0000 -0.0500175688
N   N16       1.0  0.04046  0.83666  0.96300  1.0000 -0.0500175688
N   N17       1.0  0.19834  0.92614  0.87380  1.0000 -0.0768947374
N   N18       1.0  0.92614  0.19834  0.12620  1.0000 -0.0768947374
N   N19       1.0  0.80166  0.07386  0.12620  1.0000 -0.0768947374
N   N20       1.0  0.07386  0.80166  0.87380  1.0000 -0.0768947374
N   N21       1.0  0.29620  0.92400  0.86740  1.0000 -0.1699478905
N   N22       1.0  0.92400  0.29620  0.13260  1.0000 -0.1699478905
N   N23       1.0  0.70380  0.07600  0.13260  1.0000 -0.1699478905
N   N24       1.0  0.07600  0.70380  0.86740  1.0000 -0.1699478905
O   O1        1.0  0.10648  0.00288  0.59790  1.0000 -0.4742482672
O   O2        1.0  0.00288  0.10648  0.40210  1.0000 -0.4742482672
O   O3        1.0  0.89352  0.99712  0.40210  1.0000 -0.4742482672
O   O4        1.0  0.99712  0.89352  0.59790  1.0000 -0.4742482672
