# DDEC6 charges by PACMAN v1.1 (https://github.com/mtap-research/PACMAN-charge/)
data_2012[Zn][nbo]3[ASR]3
_chemical_formula_sum              "Zn6 H6 C24 N66"
_cell_length_a       14.6206
_cell_length_b       14.6206
_cell_length_c       14.6206
_cell_angle_alpha    109.38
_cell_angle_beta     109.38
_cell_angle_gamma    109.38

_symmetry_space_group_name_H-M    "P 1"
_symmetry_Int_Tables_number       1

loop_
  _symmetry_equiv_pos_as_xyz
  'x, y, z'

loop_
  _atom_site_type_symbol
  _atom_site_label
  _atom_site_symmetry_multiplicity
  _atom_site_fract_x
  _atom_site_fract_y
  _atom_site_fract_z
  _atom_site_occupancy
  _atom_site_charge
Zn  Zn1       1.0  0.55036  0.80078  0.30648  1.0000 0.6345671349
Zn  Zn2       1.0  0.80078  0.30648  0.55036  1.0000 0.6345671349
Zn  Zn3       1.0  0.30648  0.55036  0.80078  1.0000 0.6345671349
Zn  Zn4       1.0  0.44964  0.19922  0.69352  1.0000 0.6345671349
Zn  Zn5       1.0  0.19922  0.69352  0.44964  1.0000 0.6345671349
Zn  Zn6       1.0  0.69352  0.44964  0.19922  1.0000 0.6345671349
H   H1        1.0  0.30570  0.30720  0.94000  1.0000 0.2777801289
H   H2        1.0  0.30720  0.94000  0.30570  1.0000 0.2777801289
H   H3        1.0  0.94000  0.30570  0.30720  1.0000 0.2777801289
H   H4        1.0  0.69430  0.69280  0.06000  1.0000 0.2777801289
H   H5        1.0  0.69280  0.06000  0.69430  1.0000 0.2777801289
H   H6        1.0  0.06000  0.69430  0.69280  1.0000 0.2777801289
C   C1        1.0  0.41724  0.55048  0.05048  1.0000 0.0358302751
C   C2        1.0  0.55048  0.05048  0.41724  1.0000 0.0358302751
C   C3        1.0  0.05048  0.41724  0.55048  1.0000 0.0332146785
C   C4        1.0  0.58276  0.44952  0.94952  1.0000 0.0358302751
C   C5        1.0  0.44952  0.94952  0.58276  1.0000 0.0358302751
C   C6        1.0  0.94952  0.58276  0.44952  1.0000 0.0358302751
C   C7        1.0  0.48372  0.52857  0.12411  1.0000 0.0332146785
C   C8        1.0  0.52857  0.12411  0.48372  1.0000 0.0332146785
C   C9        1.0  0.12411  0.48372  0.52857  1.0000 0.0332146785
C   C10       1.0  0.51628  0.47143  0.87589  1.0000 0.0332146785
C   C11       1.0  0.47143  0.87589  0.51628  1.0000 0.0332146785
C   C12       1.0  0.87589  0.51628  0.47143  1.0000 0.0332146785
C   C13       1.0  0.42923  0.65391  0.05206  1.0000 0.2511061165
C   C14       1.0  0.65391  0.05206  0.42923  1.0000 0.2511061165
C   C15       1.0  0.05206  0.42923  0.65391  1.0000 0.2511061165
C   C16       1.0  0.57077  0.34609  0.94794  1.0000 0.2511061165
C   C17       1.0  0.34609  0.94794  0.57077  1.0000 0.2511061165
C   C18       1.0  0.94794  0.57077  0.34609  1.0000 0.2511061165
C   C19       1.0  0.58813  0.60152  0.22995  1.0000 0.2511061165
C   C20       1.0  0.60152  0.22995  0.58813  1.0000 0.2511061165
C   C21       1.0  0.22995  0.58813  0.60152  1.0000 0.2511061165
C   C22       1.0  0.41187  0.39848  0.77005  1.0000 0.2511061165
C   C23       1.0  0.39848  0.77005  0.41187  1.0000 0.2511061165
C   C24       1.0  0.77005  0.41187  0.39848  1.0000 0.2511061165
N   N1        1.0  0.33293  0.45349  0.96178  1.0000 -0.2035449933
N   N2        1.0  0.45349  0.96178  0.33293  1.0000 -0.2035449933
N   N3        1.0  0.96178  0.33293  0.45349  1.0000 -0.2035449933
N   N4        1.0  0.66707  0.54651  0.03822  1.0000 -0.2035449933
N   N5        1.0  0.54651  0.03822  0.66707  1.0000 -0.2035449933
N   N6        1.0  0.03822  0.66707  0.54651  1.0000 -0.2035449933
N   N7        1.0  0.35010  0.37770  0.98470  1.0000 0.0816684225
N   N8        1.0  0.37770  0.98470  0.35010  1.0000 0.0816684225
N   N9        1.0  0.98470  0.35010  0.37770  1.0000 0.0816684225
N   N10       1.0  0.64990  0.62230  0.01530  1.0000 0.0816684225
N   N11       1.0  0.62230  0.01530  0.64990  1.0000 0.0816684225
N   N12       1.0  0.01530  0.64990  0.62230  1.0000 0.0816684225
N   N13       1.0  0.43893  0.41771  0.07966  1.0000 -0.1916123025
N   N14       1.0  0.41771  0.07966  0.43893  1.0000 -0.1916123025
N   N15       1.0  0.07966  0.43893  0.41771  1.0000 -0.1916123025
N   N16       1.0  0.56107  0.58229  0.92034  1.0000 -0.1916123025
N   N17       1.0  0.58229  0.92034  0.56107  1.0000 -0.1916123025
N   N18       1.0  0.92034  0.56107  0.58229  1.0000 -0.1916123025
N   N19       1.0  0.66479  0.57280  0.26541  1.0000 -0.2324149601
N   N20       1.0  0.57280  0.26541  0.66479  1.0000 -0.2324149601
N   N21       1.0  0.26541  0.66479  0.57280  1.0000 -0.2324149601
N   N22       1.0  0.33521  0.42720  0.73459  1.0000 -0.2324149601
N   N23       1.0  0.42720  0.73459  0.33521  1.0000 -0.2324149601
N   N24       1.0  0.73459  0.33521  0.42720  1.0000 -0.2324149601
N   N25       1.0  0.74620  0.65950  0.36820  1.0000 -0.0609509809
N   N26       1.0  0.65950  0.36820  0.74620  1.0000 -0.0609509809
N   N27       1.0  0.36820  0.74620  0.65950  1.0000 -0.0609509809
N   N28       1.0  0.25380  0.34050  0.63180  1.0000 -0.0609509809
N   N29       1.0  0.34050  0.63180  0.25380  1.0000 -0.0609509809
N   N30       1.0  0.63180  0.25380  0.34050  1.0000 -0.0609509809
N   N31       1.0  0.72030  0.73730  0.39310  1.0000 -0.0526370572
N   N32       1.0  0.73730  0.39310  0.72030  1.0000 -0.0526370572
N   N33       1.0  0.39310  0.72030  0.73730  1.0000 -0.0526370572
N   N34       1.0  0.27970  0.26270  0.60690  1.0000 -0.0526370572
N   N35       1.0  0.26270  0.60690  0.27970  1.0000 -0.0526370572
N   N36       1.0  0.60690  0.27970  0.26270  1.0000 -0.0526370572
N   N37       1.0  0.62106  0.70367  0.30697  1.0000 -0.2388027823
N   N38       1.0  0.70367  0.30697  0.62106  1.0000 -0.2388027823
N   N39       1.0  0.30697  0.62106  0.70367  1.0000 -0.2388027823
N   N40       1.0  0.37894  0.29633  0.69303  1.0000 -0.2388027823
N   N41       1.0  0.29633  0.69303  0.37894  1.0000 -0.2388027823
N   N42       1.0  0.69303  0.37894  0.29633  1.0000 -0.2388027823
N   N43       1.0  0.39063  0.66245  0.96122  1.0000 -0.2224848461
N   N44       1.0  0.66245  0.96122  0.39063  1.0000 -0.2224848461
N   N45       1.0  0.96122  0.39063  0.66245  1.0000 -0.2224848461
N   N46       1.0  0.60937  0.33755  0.03878  1.0000 -0.2224848461
N   N47       1.0  0.33755  0.03878  0.60937  1.0000 -0.2224848461
N   N48       1.0  0.03878  0.60937  0.33755  1.0000 -0.2224848461
N   N49       1.0  0.41854  0.77027  0.99679  1.0000 -0.0609509809
N   N50       1.0  0.77027  0.99679  0.41854  1.0000 -0.0609509809
N   N51       1.0  0.99679  0.41854  0.77027  1.0000 -0.0609509809
N   N52       1.0  0.58146  0.22973  0.00321  1.0000 -0.0609509809
N   N53       1.0  0.22973  0.00321  0.58146  1.0000 -0.0609509809
N   N54       1.0  0.00321  0.58146  0.22973  1.0000 -0.0609509809
N   N55       1.0  0.47164  0.82499  0.10467  1.0000 -0.0526370572
N   N56       1.0  0.82499  0.10467  0.47164  1.0000 -0.0526370572
N   N57       1.0  0.10467  0.47164  0.82499  1.0000 -0.0526370572
N   N58       1.0  0.52836  0.17501  0.89533  1.0000 -0.0526370572
N   N59       1.0  0.17501  0.89533  0.52836  1.0000 -0.0526370572
N   N60       1.0  0.89533  0.52836  0.17501  1.0000 -0.0526370572
N   N61       1.0  0.48022  0.75296  0.14262  1.0000 -0.2488009797
N   N62       1.0  0.75296  0.14262  0.48022  1.0000 -0.2488009797
N   N63       1.0  0.14262  0.48022  0.75296  1.0000 -0.2488009797
N   N64       1.0  0.51978  0.24704  0.85738  1.0000 -0.2488009797
N   N65       1.0  0.24704  0.85738  0.51978  1.0000 -0.2488009797
N   N66       1.0  0.85738  0.51978  0.24704  1.0000 -0.2488009797
