# DDEC6 charges by PACMAN v1.1 (https://github.com/mtap-research/PACMAN-charge/)
data_2012[Zn][scu]3[ASR]4
_chemical_formula_sum              "Zn16 H80 C148 O80"
_cell_length_a       19.0396
_cell_length_b       19.0396
_cell_length_c       23.563
_cell_angle_alpha    90
_cell_angle_beta     90
_cell_angle_gamma    90

_symmetry_space_group_name_H-M    "P 1"
_symmetry_Int_Tables_number       1

loop_
  _symmetry_equiv_pos_as_xyz
  'x, y, z'

loop_
  _atom_site_type_symbol
  _atom_site_label
  _atom_site_symmetry_multiplicity
  _atom_site_fract_x
  _atom_site_fract_y
  _atom_site_fract_z
  _atom_site_occupancy
  _atom_site_charge
Zn  Zn1       1.0  0.72292  0.20114  0.70397  1.0000 0.9508027381
Zn  Zn2       1.0  0.27708  0.79886  0.70397  1.0000 0.9508027381
Zn  Zn3       1.0  0.22292  0.29886  0.79603  1.0000 0.9508027381
Zn  Zn4       1.0  0.77708  0.70114  0.79603  1.0000 0.9508027381
Zn  Zn5       1.0  0.79886  0.27708  0.79603  1.0000 0.9508027381
Zn  Zn6       1.0  0.20114  0.72292  0.79603  1.0000 0.9508027381
Zn  Zn7       1.0  0.70114  0.77708  0.70397  1.0000 0.9508027381
Zn  Zn8       1.0  0.29886  0.22292  0.70397  1.0000 0.9508027381
Zn  Zn9       1.0  0.77708  0.29886  0.29603  1.0000 0.9508027381
Zn  Zn10      1.0  0.22292  0.70114  0.29603  1.0000 0.9508027381
Zn  Zn11      1.0  0.27708  0.20114  0.20397  1.0000 0.9508027381
Zn  Zn12      1.0  0.72292  0.79886  0.20397  1.0000 0.9508027381
Zn  Zn13      1.0  0.70114  0.22292  0.20397  1.0000 0.9508027381
Zn  Zn14      1.0  0.29886  0.77708  0.20397  1.0000 0.9508027381
Zn  Zn15      1.0  0.79886  0.72292  0.29603  1.0000 0.9508027381
Zn  Zn16      1.0  0.20114  0.27708  0.29603  1.0000 0.9508027381
H   H1        1.0  0.91280  0.13770  0.61220  1.0000 0.1289713552
H   H2        1.0  0.08720  0.86230  0.61220  1.0000 0.1289713552
H   H3        1.0  0.41280  0.36230  0.88780  1.0000 0.1289713552
H   H4        1.0  0.58720  0.63770  0.88780  1.0000 0.1289713552
H   H5        1.0  0.86230  0.08720  0.88780  1.0000 0.1289713552
H   H6        1.0  0.13770  0.91280  0.88780  1.0000 0.1289713552
H   H7        1.0  0.63770  0.58720  0.61220  1.0000 0.1289713552
H   H8        1.0  0.36230  0.41280  0.61220  1.0000 0.1289713552
H   H9        1.0  0.58720  0.36230  0.38780  1.0000 0.1289713552
H   H10       1.0  0.41280  0.63770  0.38780  1.0000 0.1289713552
H   H11       1.0  0.08720  0.13770  0.11220  1.0000 0.1289713552
H   H12       1.0  0.91280  0.86230  0.11220  1.0000 0.1289713552
H   H13       1.0  0.63770  0.41280  0.11220  1.0000 0.1289713552
H   H14       1.0  0.36230  0.58720  0.11220  1.0000 0.1289713552
H   H15       1.0  0.86230  0.91280  0.38780  1.0000 0.1289713552
H   H16       1.0  0.13770  0.08720  0.38780  1.0000 0.1289713552
H   H17       1.0  0.94800  0.09410  0.51450  1.0000 0.1063403508
H   H18       1.0  0.05200  0.90590  0.51450  1.0000 0.1063403508
H   H19       1.0  0.44800  0.40590  0.98550  1.0000 0.1063403508
H   H20       1.0  0.55200  0.59410  0.98550  1.0000 0.1063403508
H   H21       1.0  0.90590  0.05200  0.98550  1.0000 0.1063403508
H   H22       1.0  0.09410  0.94800  0.98550  1.0000 0.1063403508
H   H23       1.0  0.59410  0.55200  0.51450  1.0000 0.1063403508
H   H24       1.0  0.40590  0.44800  0.51450  1.0000 0.1063403508
H   H25       1.0  0.55200  0.40590  0.48550  1.0000 0.1063403508
H   H26       1.0  0.44800  0.59410  0.48550  1.0000 0.1063403508
H   H27       1.0  0.05200  0.09410  0.01450  1.0000 0.1063403508
H   H28       1.0  0.94800  0.90590  0.01450  1.0000 0.1063403508
H   H29       1.0  0.59410  0.44800  0.01450  1.0000 0.1063403508
H   H30       1.0  0.40590  0.55200  0.01450  1.0000 0.1063403508
H   H31       1.0  0.90590  0.94800  0.48550  1.0000 0.1063403508
H   H32       1.0  0.09410  0.05200  0.48550  1.0000 0.1063403508
H   H33       1.0  0.93870  0.04070  0.56500  1.0000 0.1002314973
H   H34       1.0  0.06130  0.95930  0.56500  1.0000 0.1002314973
H   H35       1.0  0.43870  0.45930  0.93500  1.0000 0.1002314973
H   H36       1.0  0.56130  0.54070  0.93500  1.0000 0.1002314973
H   H37       1.0  0.95930  0.06130  0.93500  1.0000 0.1002314973
H   H38       1.0  0.04070  0.93870  0.93500  1.0000 0.1002314973
H   H39       1.0  0.54070  0.56130  0.56500  1.0000 0.1002314973
H   H40       1.0  0.45930  0.43870  0.56500  1.0000 0.1002314973
H   H41       1.0  0.56130  0.45930  0.43500  1.0000 0.1002314973
H   H42       1.0  0.43870  0.54070  0.43500  1.0000 0.1002314973
H   H43       1.0  0.06130  0.04070  0.06500  1.0000 0.1002314973
H   H44       1.0  0.93870  0.95930  0.06500  1.0000 0.1002314973
H   H45       1.0  0.54070  0.43870  0.06500  1.0000 0.1002314973
H   H46       1.0  0.45930  0.56130  0.06500  1.0000 0.1002314973
H   H47       1.0  0.95930  0.93870  0.43500  1.0000 0.1002314973
H   H48       1.0  0.04070  0.06130  0.43500  1.0000 0.1002314973
H   H49       1.0  0.00720  0.26140  0.72830  1.0000 0.1406861415
H   H50       1.0  0.99280  0.73860  0.72830  1.0000 0.1406861415
H   H51       1.0  0.50720  0.23860  0.77170  1.0000 0.1406861415
H   H52       1.0  0.49280  0.76140  0.77170  1.0000 0.1406861415
H   H53       1.0  0.73860  0.99280  0.77170  1.0000 0.1406861415
H   H54       1.0  0.26140  0.00720  0.77170  1.0000 0.1406861415
H   H55       1.0  0.76140  0.49280  0.72830  1.0000 0.1406861415
H   H56       1.0  0.23860  0.50720  0.72830  1.0000 0.1406861415
H   H57       1.0  0.49280  0.23860  0.27170  1.0000 0.1406861415
H   H58       1.0  0.50720  0.76140  0.27170  1.0000 0.1406861415
H   H59       1.0  0.99280  0.26140  0.22830  1.0000 0.1406861415
H   H60       1.0  0.00720  0.73860  0.22830  1.0000 0.1406861415
H   H61       1.0  0.76140  0.50720  0.22830  1.0000 0.1406861415
H   H62       1.0  0.23860  0.49280  0.22830  1.0000 0.1406861415
H   H63       1.0  0.73860  0.00720  0.27170  1.0000 0.1406861415
H   H64       1.0  0.26140  0.99280  0.27170  1.0000 0.1406861415
H   H65       1.0  0.12300  0.15480  0.61570  1.0000 0.1457298717
H   H66       1.0  0.87700  0.84520  0.61570  1.0000 0.1457298717
H   H67       1.0  0.62300  0.34520  0.88430  1.0000 0.1457298717
H   H68       1.0  0.37700  0.65480  0.88430  1.0000 0.1457298717
H   H69       1.0  0.84520  0.87700  0.88430  1.0000 0.1457298717
H   H70       1.0  0.15480  0.12300  0.88430  1.0000 0.1457298717
H   H71       1.0  0.65480  0.37700  0.61570  1.0000 0.1457298717
H   H72       1.0  0.34520  0.62300  0.61570  1.0000 0.1457298717
H   H73       1.0  0.37700  0.34520  0.38430  1.0000 0.1457298717
H   H74       1.0  0.62300  0.65480  0.38430  1.0000 0.1457298717
H   H75       1.0  0.87700  0.15480  0.11570  1.0000 0.1457298717
H   H76       1.0  0.12300  0.84520  0.11570  1.0000 0.1457298717
H   H77       1.0  0.65480  0.62300  0.11570  1.0000 0.1457298717
H   H78       1.0  0.34520  0.37700  0.11570  1.0000 0.1457298717
H   H79       1.0  0.84520  0.12300  0.38430  1.0000 0.1457298717
H   H80       1.0  0.15480  0.87700  0.38430  1.0000 0.1457298717
C   C1        1.0  0.01900  0.13860  0.60720  1.0000 0.2482632345
C   C2        1.0  0.98100  0.86140  0.60720  1.0000 0.2482632345
C   C3        1.0  0.51900  0.36140  0.89280  1.0000 0.2482632345
C   C4        1.0  0.48100  0.63860  0.89280  1.0000 0.2482632345
C   C5        1.0  0.86140  0.98100  0.89280  1.0000 0.2482632345
C   C6        1.0  0.13860  0.01900  0.89280  1.0000 0.2482632345
C   C7        1.0  0.63860  0.48100  0.60720  1.0000 0.2482632345
C   C8        1.0  0.36140  0.51900  0.60720  1.0000 0.2482632345
C   C9        1.0  0.48100  0.36140  0.39280  1.0000 0.2482632345
C   C10       1.0  0.51900  0.63860  0.39280  1.0000 0.2482632345
C   C11       1.0  0.98100  0.13860  0.10720  1.0000 0.2482632345
C   C12       1.0  0.01900  0.86140  0.10720  1.0000 0.2482632345
C   C13       1.0  0.63860  0.51900  0.10720  1.0000 0.2482632345
C   C14       1.0  0.36140  0.48100  0.10720  1.0000 0.2482632345
C   C15       1.0  0.86140  0.01900  0.39280  1.0000 0.2482632345
C   C16       1.0  0.13860  0.98100  0.39280  1.0000 0.2482632345
C   C17       1.0  0.00000  0.00000  0.50000  1.0000 0.0280301932
C   C18       1.0  0.50000  0.50000  0.00000  1.0000 0.0280301932
C   C19       1.0  0.00000  0.00000  0.00000  1.0000 0.0280301932
C   C20       1.0  0.50000  0.50000  0.50000  1.0000 0.0280301932
C   C21       1.0  0.94940  0.20360  0.67363  1.0000 0.0069012987
C   C22       1.0  0.05060  0.79640  0.67363  1.0000 0.0069012987
C   C23       1.0  0.44940  0.29640  0.82637  1.0000 0.0069012987
C   C24       1.0  0.55060  0.70360  0.82637  1.0000 0.0069012987
C   C25       1.0  0.79640  0.05060  0.82637  1.0000 0.0069012987
C   C26       1.0  0.20360  0.94940  0.82637  1.0000 0.0069012987
C   C27       1.0  0.70360  0.55060  0.67363  1.0000 0.0069012987
C   C28       1.0  0.29640  0.44940  0.67363  1.0000 0.0069012987
C   C29       1.0  0.55060  0.29640  0.32637  1.0000 0.0069012987
C   C30       1.0  0.44940  0.70360  0.32637  1.0000 0.0069012987
C   C31       1.0  0.05060  0.20360  0.17363  1.0000 0.0069012987
C   C32       1.0  0.94940  0.79640  0.17363  1.0000 0.0069012987
C   C33       1.0  0.70360  0.44940  0.17363  1.0000 0.0069012987
C   C34       1.0  0.29640  0.55060  0.17363  1.0000 0.0069012987
C   C35       1.0  0.79640  0.94940  0.32637  1.0000 0.0069012987
C   C36       1.0  0.20360  0.05060  0.32637  1.0000 0.0069012987
C   C37       1.0  0.95340  0.15660  0.62810  1.0000 -0.2462246248
C   C38       1.0  0.04660  0.84340  0.62810  1.0000 -0.2462246248
C   C39       1.0  0.45340  0.34340  0.87190  1.0000 -0.2462246248
C   C40       1.0  0.54660  0.65660  0.87190  1.0000 -0.2462246248
C   C41       1.0  0.84340  0.04660  0.87190  1.0000 -0.2462246248
C   C42       1.0  0.15660  0.95340  0.87190  1.0000 -0.2462246248
C   C43       1.0  0.65660  0.54660  0.62810  1.0000 -0.2462246248
C   C44       1.0  0.34340  0.45340  0.62810  1.0000 -0.2462246248
C   C45       1.0  0.54660  0.34340  0.37190  1.0000 -0.2462246248
C   C46       1.0  0.45340  0.65660  0.37190  1.0000 -0.2462246248
C   C47       1.0  0.04660  0.15660  0.12810  1.0000 -0.2462246248
C   C48       1.0  0.95340  0.84340  0.12810  1.0000 -0.2462246248
C   C49       1.0  0.65660  0.45340  0.12810  1.0000 -0.2462246248
C   C50       1.0  0.34340  0.54660  0.12810  1.0000 -0.2462246248
C   C51       1.0  0.84340  0.95340  0.37190  1.0000 -0.2462246248
C   C52       1.0  0.15660  0.04660  0.37190  1.0000 -0.2462246248
C   C53       1.0  0.97181  0.05920  0.53751  1.0000 -0.07937483
C   C54       1.0  0.02819  0.94080  0.53751  1.0000 -0.07937483
C   C55       1.0  0.47181  0.44080  0.96249  1.0000 -0.07937483
C   C56       1.0  0.52819  0.55920  0.96249  1.0000 -0.07937483
C   C57       1.0  0.94080  0.02819  0.96249  1.0000 -0.07937483
C   C58       1.0  0.05920  0.97181  0.96249  1.0000 -0.07937483
C   C59       1.0  0.55920  0.52819  0.53751  1.0000 -0.07937483
C   C60       1.0  0.44080  0.47181  0.53751  1.0000 -0.07937483
C   C61       1.0  0.52819  0.44080  0.46249  1.0000 -0.07937483
C   C62       1.0  0.47181  0.55920  0.46249  1.0000 -0.07937483
C   C63       1.0  0.02819  0.05920  0.03751  1.0000 -0.07937483
C   C64       1.0  0.97181  0.94080  0.03751  1.0000 -0.07937483
C   C65       1.0  0.55920  0.47181  0.03751  1.0000 -0.07937483
C   C66       1.0  0.44080  0.52819  0.03751  1.0000 -0.07937483
C   C67       1.0  0.94080  0.97181  0.46249  1.0000 -0.07937483
C   C68       1.0  0.05920  0.02819  0.46249  1.0000 -0.07937483
C   C69       1.0  0.01020  0.23110  0.69742  1.0000 -0.120161115
C   C70       1.0  0.98980  0.76890  0.69742  1.0000 -0.120161115
C   C71       1.0  0.51020  0.26890  0.80258  1.0000 -0.120161115
C   C72       1.0  0.48980  0.73110  0.80258  1.0000 -0.120161115
C   C73       1.0  0.76890  0.98980  0.80258  1.0000 -0.120161115
C   C74       1.0  0.23110  0.01020  0.80258  1.0000 -0.120161115
C   C75       1.0  0.73110  0.48980  0.69742  1.0000 -0.120161115
C   C76       1.0  0.26890  0.51020  0.69742  1.0000 -0.120161115
C   C77       1.0  0.48980  0.26890  0.30258  1.0000 -0.120161115
C   C78       1.0  0.51020  0.73110  0.30258  1.0000 -0.120161115
C   C79       1.0  0.98980  0.23110  0.19742  1.0000 -0.120161115
C   C80       1.0  0.01020  0.76890  0.19742  1.0000 -0.120161115
C   C81       1.0  0.73110  0.51020  0.19742  1.0000 -0.120161115
C   C82       1.0  0.26890  0.48980  0.19742  1.0000 -0.120161115
C   C83       1.0  0.76890  0.01020  0.30258  1.0000 -0.120161115
C   C84       1.0  0.23110  0.98980  0.30258  1.0000 -0.120161115
C   C85       1.0  0.07930  0.16710  0.63044  1.0000 -0.2120714567
C   C86       1.0  0.92070  0.83290  0.63044  1.0000 -0.2120714567
C   C87       1.0  0.57930  0.33290  0.86956  1.0000 -0.2120714567
C   C88       1.0  0.42070  0.66710  0.86956  1.0000 -0.2120714567
C   C89       1.0  0.83290  0.92070  0.86956  1.0000 -0.2120714567
C   C90       1.0  0.16710  0.07930  0.86956  1.0000 -0.2120714567
C   C91       1.0  0.66710  0.42070  0.63044  1.0000 -0.2120714567
C   C92       1.0  0.33290  0.57930  0.63044  1.0000 -0.2120714567
C   C93       1.0  0.42070  0.33290  0.36956  1.0000 -0.2120714567
C   C94       1.0  0.57930  0.66710  0.36956  1.0000 -0.2120714567
C   C95       1.0  0.92070  0.16710  0.13044  1.0000 -0.2120714567
C   C96       1.0  0.07930  0.83290  0.13044  1.0000 -0.2120714567
C   C97       1.0  0.66710  0.57930  0.13044  1.0000 -0.2120714567
C   C98       1.0  0.33290  0.42070  0.13044  1.0000 -0.2120714567
C   C99       1.0  0.83290  0.07930  0.36956  1.0000 -0.2120714567
C   C100      1.0  0.16710  0.92070  0.36956  1.0000 -0.2120714567
C   C101      1.0  0.07540  0.21360  0.67524  1.0000 -0.0109177142
C   C102      1.0  0.92460  0.78640  0.67524  1.0000 -0.0109177142
C   C103      1.0  0.57540  0.28640  0.82476  1.0000 -0.0109177142
C   C104      1.0  0.42460  0.71360  0.82476  1.0000 -0.0109177142
C   C105      1.0  0.78640  0.92460  0.82476  1.0000 -0.0109177142
C   C106      1.0  0.21360  0.07540  0.82476  1.0000 -0.0109177142
C   C107      1.0  0.71360  0.42460  0.67524  1.0000 -0.0109177142
C   C108      1.0  0.28640  0.57540  0.67524  1.0000 -0.0109177142
C   C109      1.0  0.42460  0.28640  0.32476  1.0000 -0.0109177142
C   C110      1.0  0.57540  0.71360  0.32476  1.0000 -0.0109177142
C   C111      1.0  0.92460  0.21360  0.17524  1.0000 -0.0109177142
C   C112      1.0  0.07540  0.78640  0.17524  1.0000 -0.0109177142
C   C113      1.0  0.71360  0.57540  0.17524  1.0000 -0.0109177142
C   C114      1.0  0.28640  0.42460  0.17524  1.0000 -0.0109177142
C   C115      1.0  0.78640  0.07540  0.32476  1.0000 -0.0109177142
C   C116      1.0  0.21360  0.92460  0.32476  1.0000 -0.0109177142
C   C117      1.0  0.87820  0.21920  0.70094  1.0000 0.5948806128
C   C118      1.0  0.12180  0.78080  0.70094  1.0000 0.5948806128
C   C119      1.0  0.37820  0.28080  0.79906  1.0000 0.5948806128
C   C120      1.0  0.62180  0.71920  0.79906  1.0000 0.5948806128
C   C121      1.0  0.78080  0.12180  0.79906  1.0000 0.5948806128
C   C122      1.0  0.21920  0.87820  0.79906  1.0000 0.5948806128
C   C123      1.0  0.71920  0.62180  0.70094  1.0000 0.5948806128
C   C124      1.0  0.28080  0.37820  0.70094  1.0000 0.5948806128
C   C125      1.0  0.62180  0.28080  0.29906  1.0000 0.5948806128
C   C126      1.0  0.37820  0.71920  0.29906  1.0000 0.5948806128
C   C127      1.0  0.12180  0.21920  0.20094  1.0000 0.5948806128
C   C128      1.0  0.87820  0.78080  0.20094  1.0000 0.5948806128
C   C129      1.0  0.71920  0.37820  0.20094  1.0000 0.5948806128
C   C130      1.0  0.28080  0.62180  0.20094  1.0000 0.5948806128
C   C131      1.0  0.78080  0.87820  0.29906  1.0000 0.5948806128
C   C132      1.0  0.21920  0.12180  0.29906  1.0000 0.5948806128
C   C133      1.0  0.14240  0.23840  0.70296  1.0000 0.5979234895
C   C134      1.0  0.85760  0.76160  0.70296  1.0000 0.5979234895
C   C135      1.0  0.64240  0.26160  0.79704  1.0000 0.5979234895
C   C136      1.0  0.35760  0.73840  0.79704  1.0000 0.5979234895
C   C137      1.0  0.76160  0.85760  0.79704  1.0000 0.5979234895
C   C138      1.0  0.23840  0.14240  0.79704  1.0000 0.5979234895
C   C139      1.0  0.73840  0.35760  0.70296  1.0000 0.5979234895
C   C140      1.0  0.26160  0.64240  0.70296  1.0000 0.5979234895
C   C141      1.0  0.35760  0.26160  0.29704  1.0000 0.5979234895
C   C142      1.0  0.64240  0.73840  0.29704  1.0000 0.5979234895
C   C143      1.0  0.85760  0.23840  0.20296  1.0000 0.5979234895
C   C144      1.0  0.14240  0.76160  0.20296  1.0000 0.5979234895
C   C145      1.0  0.73840  0.64240  0.20296  1.0000 0.5979234895
C   C146      1.0  0.26160  0.35760  0.20296  1.0000 0.5979234895
C   C147      1.0  0.76160  0.14240  0.29704  1.0000 0.5979234895
C   C148      1.0  0.23840  0.85760  0.29704  1.0000 0.5979234895
O   O1        1.0  0.03007  0.08965  0.56550  1.0000 -0.1993588039
O   O2        1.0  0.96993  0.91035  0.56550  1.0000 -0.1993588039
O   O3        1.0  0.53007  0.41035  0.93450  1.0000 -0.1993588039
O   O4        1.0  0.46993  0.58965  0.93450  1.0000 -0.1993588039
O   O5        1.0  0.91035  0.96993  0.93450  1.0000 -0.1993588039
O   O6        1.0  0.08965  0.03007  0.93450  1.0000 -0.1993588039
O   O7        1.0  0.58965  0.46993  0.56550  1.0000 -0.1993588039
O   O8        1.0  0.41035  0.53007  0.56550  1.0000 -0.1993588039
O   O9        1.0  0.46993  0.41035  0.43450  1.0000 -0.1993588039
O   O10       1.0  0.53007  0.58965  0.43450  1.0000 -0.1993588039
O   O11       1.0  0.96993  0.08965  0.06550  1.0000 -0.1993588039
O   O12       1.0  0.03007  0.91035  0.06550  1.0000 -0.1993588039
O   O13       1.0  0.58965  0.53007  0.06550  1.0000 -0.1993588039
O   O14       1.0  0.41035  0.46993  0.06550  1.0000 -0.1993588039
O   O15       1.0  0.91035  0.03007  0.43450  1.0000 -0.1993588039
O   O16       1.0  0.08965  0.96993  0.43450  1.0000 -0.1993588039
O   O17       1.0  0.82611  0.19257  0.67802  1.0000 -0.5412201507
O   O18       1.0  0.17389  0.80743  0.67802  1.0000 -0.5412201507
O   O19       1.0  0.32611  0.30743  0.82198  1.0000 -0.5412201507
O   O20       1.0  0.67389  0.69257  0.82198  1.0000 -0.5412201507
O   O21       1.0  0.80743  0.17389  0.82198  1.0000 -0.5412201507
O   O22       1.0  0.19257  0.82611  0.82198  1.0000 -0.5412201507
O   O23       1.0  0.69257  0.67389  0.67802  1.0000 -0.5412201507
O   O24       1.0  0.30743  0.32611  0.67802  1.0000 -0.5412201507
O   O25       1.0  0.67389  0.30743  0.32198  1.0000 -0.5412201507
O   O26       1.0  0.32611  0.69257  0.32198  1.0000 -0.5412201507
O   O27       1.0  0.17389  0.19257  0.17802  1.0000 -0.5412201507
O   O28       1.0  0.82611  0.80743  0.17802  1.0000 -0.5412201507
O   O29       1.0  0.69257  0.32611  0.17802  1.0000 -0.5412201507
O   O30       1.0  0.30743  0.67389  0.17802  1.0000 -0.5412201507
O   O31       1.0  0.80743  0.82611  0.32198  1.0000 -0.5412201507
O   O32       1.0  0.19257  0.17389  0.32198  1.0000 -0.5412201507
O   O33       1.0  0.87959  0.25913  0.74284  1.0000 -0.5279254892
O   O34       1.0  0.12041  0.74087  0.74284  1.0000 -0.5279254892
O   O35       1.0  0.37959  0.24087  0.75716  1.0000 -0.5279254892
O   O36       1.0  0.62041  0.75913  0.75716  1.0000 -0.5279254892
O   O37       1.0  0.74087  0.12041  0.75716  1.0000 -0.5279254892
O   O38       1.0  0.25913  0.87959  0.75716  1.0000 -0.5279254892
O   O39       1.0  0.75913  0.62041  0.74284  1.0000 -0.5279254892
O   O40       1.0  0.24087  0.37959  0.74284  1.0000 -0.5279254892
O   O41       1.0  0.62041  0.24087  0.25716  1.0000 -0.5279254892
O   O42       1.0  0.37959  0.75913  0.25716  1.0000 -0.5279254892
O   O43       1.0  0.12041  0.25913  0.24284  1.0000 -0.5279254892
O   O44       1.0  0.87959  0.74087  0.24284  1.0000 -0.5279254892
O   O45       1.0  0.75913  0.37959  0.24284  1.0000 -0.5279254892
O   O46       1.0  0.24087  0.62041  0.24284  1.0000 -0.5279254892
O   O47       1.0  0.74087  0.87959  0.25716  1.0000 -0.5279254892
O   O48       1.0  0.25913  0.12041  0.25716  1.0000 -0.5279254892
O   O49       1.0  0.19839  0.22332  0.67855  1.0000 -0.5492638031
O   O50       1.0  0.80161  0.77668  0.67855  1.0000 -0.5492638031
O   O51       1.0  0.69839  0.27668  0.82145  1.0000 -0.5492638031
O   O52       1.0  0.30161  0.72332  0.82145  1.0000 -0.5492638031
O   O53       1.0  0.77668  0.80161  0.82145  1.0000 -0.5492638031
O   O54       1.0  0.22332  0.19839  0.82145  1.0000 -0.5492638031
O   O55       1.0  0.72332  0.30161  0.67855  1.0000 -0.5492638031
O   O56       1.0  0.27668  0.69839  0.67855  1.0000 -0.5492638031
O   O57       1.0  0.30161  0.27668  0.32145  1.0000 -0.5492638031
O   O58       1.0  0.69839  0.72332  0.32145  1.0000 -0.5492638031
O   O59       1.0  0.80161  0.22332  0.17855  1.0000 -0.5492638031
O   O60       1.0  0.19839  0.77668  0.17855  1.0000 -0.5492638031
O   O61       1.0  0.72332  0.69839  0.17855  1.0000 -0.5492638031
O   O62       1.0  0.27668  0.30161  0.17855  1.0000 -0.5492638031
O   O63       1.0  0.77668  0.19839  0.32145  1.0000 -0.5492638031
O   O64       1.0  0.22332  0.80161  0.32145  1.0000 -0.5492638031
O   O65       1.0  0.13604  0.27290  0.74847  1.0000 -0.5412201507
O   O66       1.0  0.86396  0.72710  0.74847  1.0000 -0.5412201507
O   O67       1.0  0.63604  0.22710  0.75153  1.0000 -0.5412201507
O   O68       1.0  0.36396  0.77290  0.75153  1.0000 -0.5412201507
O   O69       1.0  0.72710  0.86396  0.75153  1.0000 -0.5412201507
O   O70       1.0  0.27290  0.13604  0.75153  1.0000 -0.5412201507
O   O71       1.0  0.77290  0.36396  0.74847  1.0000 -0.5412201507
O   O72       1.0  0.22710  0.63604  0.74847  1.0000 -0.5412201507
O   O73       1.0  0.36396  0.22710  0.25153  1.0000 -0.5412201507
O   O74       1.0  0.63604  0.77290  0.25153  1.0000 -0.5412201507
O   O75       1.0  0.86396  0.27290  0.24847  1.0000 -0.5412201507
O   O76       1.0  0.13604  0.72710  0.24847  1.0000 -0.5412201507
O   O77       1.0  0.77290  0.63604  0.24847  1.0000 -0.5412201507
O   O78       1.0  0.22710  0.36396  0.24847  1.0000 -0.5412201507
O   O79       1.0  0.72710  0.13604  0.25153  1.0000 -0.5412201507
O   O80       1.0  0.27290  0.86396  0.25153  1.0000 -0.5412201507
