# DDEC6 charges by PACMAN v1.1 (https://github.com/mtap-research/PACMAN-charge/)
data_2012[Cd][nan]3[ASR]13
_chemical_formula_sum              "Cd4 H10 C20 N10 O12"
_cell_length_a       6.804
_cell_length_b       10.347
_cell_length_c       11.498
_cell_angle_alpha    68.145
_cell_angle_beta     77.492
_cell_angle_gamma    73.837

_symmetry_space_group_name_H-M    "P 1"
_symmetry_Int_Tables_number       1

loop_
  _symmetry_equiv_pos_as_xyz
  'x, y, z'

loop_
  _atom_site_type_symbol
  _atom_site_label
  _atom_site_symmetry_multiplicity
  _atom_site_fract_x
  _atom_site_fract_y
  _atom_site_fract_z
  _atom_site_occupancy
  _atom_site_charge
Cd  Cd1       1.0  0.11000  0.42281  0.37036  1.0000 0.9340129011
Cd  Cd2       1.0  0.89000  0.57719  0.62964  1.0000 0.9340129011
Cd  Cd3       1.0  0.36201  0.67877  0.07763  1.0000 0.9634118788
Cd  Cd4       1.0  0.63799  0.32123  0.92237  1.0000 0.9634118788
H   H1        1.0  0.67090  0.05500  0.32730  1.0000 0.1367944442
H   H2        1.0  0.32910  0.94500  0.67270  1.0000 0.1367944442
H   H3        1.0  0.80120  0.04390  0.65650  1.0000 0.1327477806
H   H4        1.0  0.19880  0.95610  0.34350  1.0000 0.1327477806
H   H5        1.0  0.59640  0.42000  0.39590  1.0000 0.1240881794
H   H6        1.0  0.40360  0.58000  0.60410  1.0000 0.1240881794
H   H7        1.0  0.80800  0.80500  0.85600  1.0000 0.281709116
H   H8        1.0  0.19200  0.19500  0.14400  1.0000 0.281709116
H   H9        1.0  0.01300  0.79400  0.86000  1.0000 0.2718709074
H   H10       1.0  0.98700  0.20600  0.14000  1.0000 0.2718709074
C   C1        1.0  0.62460  0.25010  0.34280  1.0000 -0.0242769494
C   C2        1.0  0.37540  0.74990  0.65720  1.0000 -0.0242769494
C   C3        1.0  0.67890  0.10180  0.38070  1.0000 -0.1162203215
C   C4        1.0  0.32110  0.89820  0.61930  1.0000 -0.1162203215
C   C5        1.0  0.74500  0.02360  0.49860  1.0000 -0.0068687328
C   C6        1.0  0.25500  0.97640  0.50140  1.0000 -0.0068687328
C   C7        1.0  0.75950  0.09540  0.57700  1.0000 -0.114502523
C   C8        1.0  0.24050  0.90460  0.42300  1.0000 -0.114502523
C   C9        1.0  0.71160  0.24380  0.53620  1.0000 -0.0068687328
C   C10       1.0  0.28840  0.75620  0.46380  1.0000 -0.0068687328
C   C11       1.0  0.63730  0.32110  0.42060  1.0000 -0.1469757445
C   C12       1.0  0.36270  0.67890  0.57940  1.0000 -0.1469757445
C   C13       1.0  0.54500  0.33230  0.21670  1.0000 0.6080774976
C   C14       1.0  0.45500  0.66770  0.78330  1.0000 0.6080774976
C   C15       1.0  0.79880  0.86320  0.54400  1.0000 0.5269555562
C   C16       1.0  0.20120  0.13680  0.45600  1.0000 0.5269555562
C   C17       1.0  0.75110  0.32210  0.61300  1.0000 0.6045088284
C   C18       1.0  0.24890  0.67790  0.38700  1.0000 0.6080774976
C   C19       1.0  0.87700  0.70980  0.01880  1.0000 0.4785222076
C   C20       1.0  0.12300  0.29020  0.98120  1.0000 0.4785222076
N   N1        1.0  0.02630  0.65660  0.09400  1.0000 -0.31594171
N   N2        1.0  0.97370  0.34340  0.90600  1.0000 -0.31594171
N   N3        1.0  0.94380  0.57070  0.20140  1.0000 -0.0645669028
N   N4        1.0  0.05620  0.42930  0.79860  1.0000 -0.0645669028
N   N5        1.0  0.75610  0.56890  0.19380  1.0000 -0.0404704976
N   N6        1.0  0.24390  0.43110  0.80620  1.0000 -0.0404704976
N   N7        1.0  0.70560  0.65800  0.07870  1.0000 -0.3471040017
N   N8        1.0  0.29440  0.34200  0.92130  1.0000 -0.3471040017
N   N9        1.0  0.89120  0.80930  0.90060  1.0000 -0.6065403111
N   N10       1.0  0.10880  0.19070  0.09940  1.0000 -0.6065403111
O   O1        1.0  0.39810  0.44240  0.20900  1.0000 -0.5909266956
O   O2        1.0  0.60190  0.55760  0.79100  1.0000 -0.5909266956
O   O3        1.0  0.63430  0.28850  0.12730  1.0000 -0.5438923127
O   O4        1.0  0.36570  0.71150  0.87270  1.0000 -0.5438923127
O   O5        1.0  0.79680  0.79920  0.46980  1.0000 -0.5136262662
O   O6        1.0  0.20320  0.20080  0.53020  1.0000 -0.5136262662
O   O7        1.0  0.84100  0.79670  0.65350  1.0000 -0.5305529721
O   O8        1.0  0.15900  0.20330  0.34650  1.0000 -0.5305529721
O   O9        1.0  0.71270  0.27750  0.72840  1.0000 -0.5241169817
O   O10       1.0  0.28730  0.72250  0.27160  1.0000 -0.5241169817
O   O11       1.0  0.82060  0.43500  0.54680  1.0000 -0.5710319764
O   O12       1.0  0.17940  0.56500  0.45320  1.0000 -0.5710319764
