# DDEC6 charges by PACMAN v1.1 (https://github.com/mtap-research/PACMAN-charge/)
data_2012[Zn][nan]3[ASR]5
_chemical_formula_sum              "Zn20 H192 C276 N72 O48"
_cell_length_a       23.1479
_cell_length_b       23.1479
_cell_length_c       41.307
_cell_angle_alpha    66.9876
_cell_angle_beta     113.012
_cell_angle_gamma    125.167

_symmetry_space_group_name_H-M    "P 1"
_symmetry_Int_Tables_number       1

loop_
  _symmetry_equiv_pos_as_xyz
  'x, y, z'

loop_
  _atom_site_type_symbol
  _atom_site_label
  _atom_site_symmetry_multiplicity
  _atom_site_fract_x
  _atom_site_fract_y
  _atom_site_fract_z
  _atom_site_occupancy
  _atom_site_charge
Zn  Zn1       1.0  0.74422  0.65116  0.07780  1.0000 0.4424906794
Zn  Zn2       1.0  0.34884  0.25578  0.57780  1.0000 0.4424906794
Zn  Zn3       1.0  0.71750  0.69316  0.98228  1.0000 0.6683878724
Zn  Zn4       1.0  0.30684  0.28250  0.48228  1.0000 0.6683878724
Zn  Zn5       1.0  0.82023  0.53073  0.11669  1.0000 0.6492227141
Zn  Zn6       1.0  0.46927  0.17977  0.61669  1.0000 0.6492227141
Zn  Zn7       1.0  0.57525  0.56247  0.10228  1.0000 0.6492227141
Zn  Zn8       1.0  0.43753  0.42475  0.60228  1.0000 0.6492227141
Zn  Zn9       1.0  0.86966  0.81966  0.10974  1.0000 0.6643659446
Zn  Zn10      1.0  0.18034  0.13034  0.60974  1.0000 0.6643659446
Zn  Zn11      1.0  0.65116  0.74422  0.42220  1.0000 0.4424906794
Zn  Zn12      1.0  0.25578  0.34884  0.92220  1.0000 0.4424906794
Zn  Zn13      1.0  0.69316  0.71750  0.51772  1.0000 0.6683878724
Zn  Zn14      1.0  0.28250  0.30684  0.01772  1.0000 0.6683878724
Zn  Zn15      1.0  0.53073  0.82023  0.38331  1.0000 0.6492227141
Zn  Zn16      1.0  0.17977  0.46927  0.88331  1.0000 0.6492227141
Zn  Zn17      1.0  0.56247  0.57525  0.39772  1.0000 0.6492227141
Zn  Zn18      1.0  0.42475  0.43753  0.89772  1.0000 0.6492227141
Zn  Zn19      1.0  0.81966  0.86966  0.39026  1.0000 0.6643659446
Zn  Zn20      1.0  0.13034  0.18034  0.89026  1.0000 0.6643659446
H   H1        1.0  0.00270  0.81490  0.17690  1.0000 0.1409859246
H   H2        1.0  0.18510  0.99730  0.67690  1.0000 0.1409859246
H   H3        1.0  0.08460  0.77700  0.21530  1.0000 0.1010354584
H   H4        1.0  0.22300  0.91540  0.71530  1.0000 0.1010354584
H   H5        1.0  0.79160  0.85020  0.15620  1.0000 0.1309726565
H   H6        1.0  0.14980  0.20840  0.65620  1.0000 0.1309726565
H   H7        1.0  0.60050  0.77150  0.61090  1.0000 0.1309726565
H   H8        1.0  0.22850  0.39950  0.11090  1.0000 0.1309726565
H   H9        1.0  0.07870  0.67390  0.21540  1.0000 0.1106704088
H   H10       1.0  0.32610  0.92130  0.71540  1.0000 0.1106704088
H   H11       1.0  0.70250  0.83530  0.17650  1.0000 0.1106704088
H   H12       1.0  0.16470  0.29750  0.67650  1.0000 0.1106704088
H   H13       1.0  0.97540  0.59220  0.18040  1.0000 0.1309726565
H   H14       1.0  0.40780  0.02460  0.68040  1.0000 0.1309726565
H   H15       1.0  0.58620  0.73720  0.16760  1.0000 0.1106704088
H   H16       1.0  0.26280  0.41380  0.66760  1.0000 0.1106704088
H   H17       1.0  0.57480  0.56220  0.68960  1.0000 0.1309726565
H   H18       1.0  0.43780  0.42520  0.18960  1.0000 0.1309726565
H   H19       1.0  0.55860  0.65440  0.13830  1.0000 0.1309726565
H   H20       1.0  0.34560  0.44140  0.63830  1.0000 0.1309726565
H   H21       1.0  0.53310  0.28670  0.19090  1.0000 0.1106704088
H   H22       1.0  0.71330  0.46690  0.69090  1.0000 0.1106704088
H   H23       1.0  0.63990  0.66410  0.71110  1.0000 0.120428459
H   H24       1.0  0.33590  0.36010  0.21110  1.0000 0.120428459
H   H25       1.0  0.62230  0.85390  0.70770  1.0000 0.1010354584
H   H26       1.0  0.14610  0.37770  0.20770  1.0000 0.1010354584
H   H27       1.0  0.64650  0.89510  0.67070  1.0000 0.1010354584
H   H28       1.0  0.10490  0.35350  0.17070  1.0000 0.1010354584
H   H29       1.0  0.86460  0.49320  0.00660  1.0000 0.1106704088
H   H30       1.0  0.50680  0.13540  0.50660  1.0000 0.1106704088
H   H31       1.0  0.81550  0.54850  0.95260  1.0000 0.1106704088
H   H32       1.0  0.45150  0.18450  0.45260  1.0000 0.1106704088
H   H33       1.0  0.77750  0.92250  0.75580  1.0000 0.1010354584
H   H34       1.0  0.07750  0.22250  0.25580  1.0000 0.1010354584
H   H35       1.0  0.78910  0.85790  0.76210  1.0000 0.1010354584
H   H36       1.0  0.14210  0.21090  0.26210  1.0000 0.1010354584
H   H37       1.0  0.53600  0.66360  0.59360  1.0000 0.120428459
H   H38       1.0  0.33640  0.46400  0.09360  1.0000 0.120428459
H   H39       1.0  0.76720  0.93000  0.66560  1.0000 0.0920910893
H   H40       1.0  0.07000  0.23280  0.16560  1.0000 0.0920910893
H   H41       1.0  0.79930  0.98050  0.69210  1.0000 0.1010354584
H   H42       1.0  0.01950  0.20070  0.19210  1.0000 0.1010354584
H   H43       1.0  0.82680  0.82200  0.88060  1.0000 0.120428459
H   H44       1.0  0.17800  0.17320  0.38060  1.0000 0.120428459
H   H45       1.0  0.65900  0.76300  0.72200  1.0000 0.0920910893
H   H46       1.0  0.23700  0.34100  0.22200  1.0000 0.0920910893
H   H47       1.0  0.73430  0.78770  0.71660  1.0000 0.1010354584
H   H48       1.0  0.21230  0.26570  0.21660  1.0000 0.1010354584
H   H49       1.0  0.53960  0.63400  0.93500  1.0000 0.1309726565
H   H50       1.0  0.36600  0.46040  0.43500  1.0000 0.1309726565
H   H51       1.0  0.55620  0.91240  0.66610  1.0000 0.1106704088
H   H52       1.0  0.08760  0.44380  0.16610  1.0000 0.1106704088
H   H53       1.0  0.05820  0.98940  0.69940  1.0000 0.120428459
H   H54       1.0  0.01060  0.94180  0.19940  1.0000 0.120428459
H   H55       1.0  0.96140  0.92780  0.72730  1.0000 0.1309726565
H   H56       1.0  0.07220  0.03860  0.22730  1.0000 0.1309726565
H   H57       1.0  0.85600  0.01680  0.64330  1.0000 0.120428459
H   H58       1.0  0.98320  0.14400  0.14330  1.0000 0.120428459
H   H59       1.0  0.81800  0.86000  0.81990  1.0000 0.120428459
H   H60       1.0  0.14000  0.18200  0.31990  1.0000 0.120428459
H   H61       1.0  0.49310  0.97510  0.63850  1.0000 0.120428459
H   H62       1.0  0.02490  0.50690  0.13850  1.0000 0.120428459
H   H63       1.0  0.61410  0.70810  0.86660  1.0000 0.120428459
H   H64       1.0  0.29190  0.38590  0.36660  1.0000 0.120428459
H   H65       1.0  0.35920  0.52740  0.97320  1.0000 0.1010354584
H   H66       1.0  0.47260  0.64080  0.47320  1.0000 0.1010354584
H   H67       1.0  0.41760  0.57960  0.92690  1.0000 0.1010354584
H   H68       1.0  0.42040  0.58240  0.42690  1.0000 0.1010354584
H   H69       1.0  0.71960  0.07660  0.71030  1.0000 0.1309726565
H   H70       1.0  0.92340  0.28040  0.21030  1.0000 0.1309726565
H   H71       1.0  0.77380  0.62260  0.94890  1.0000 0.1309726565
H   H72       1.0  0.37740  0.22620  0.44890  1.0000 0.1309726565
H   H73       1.0  0.72260  0.36840  0.16830  1.0000 0.1468938265
H   H74       1.0  0.63160  0.27740  0.66830  1.0000 0.1468938265
H   H75       1.0  0.95400  0.07820  0.61670  1.0000 0.120428459
H   H76       1.0  0.92180  0.04600  0.11670  1.0000 0.120428459
H   H77       1.0  0.63040  0.27900  0.19710  1.0000 0.1106704088
H   H78       1.0  0.72100  0.36960  0.69710  1.0000 0.1106704088
H   H79       1.0  0.52580  0.39240  0.15950  1.0000 0.120428459
H   H80       1.0  0.60760  0.47420  0.65950  1.0000 0.120428459
H   H81       1.0  0.65680  0.14080  0.68500  1.0000 0.120428459
H   H82       1.0  0.85920  0.34320  0.18500  1.0000 0.120428459
H   H83       1.0  0.85420  0.49440  0.05920  1.0000 0.1409859246
H   H84       1.0  0.50560  0.14580  0.55920  1.0000 0.1409859246
H   H85       1.0  0.42640  0.52520  0.03340  1.0000 0.1309726565
H   H86       1.0  0.47480  0.57360  0.53340  1.0000 0.1309726565
H   H87       1.0  0.60070  0.74670  0.80410  1.0000 0.1309726565
H   H88       1.0  0.25330  0.39930  0.30410  1.0000 0.1309726565
H   H89       1.0  0.91270  0.97030  0.04750  1.0000 0.1409859246
H   H90       1.0  0.02970  0.08730  0.54750  1.0000 0.1409859246
H   H91       1.0  0.92180  0.04700  0.99080  1.0000 0.120428459
H   H92       1.0  0.95300  0.07820  0.49080  1.0000 0.120428459
H   H93       1.0  0.86340  0.99900  0.93970  1.0000 0.120428459
H   H94       1.0  0.00100  0.13660  0.43970  1.0000 0.120428459
H   H95       1.0  0.79580  0.87440  0.94540  1.0000 0.1309726565
H   H96       1.0  0.12560  0.20420  0.44540  1.0000 0.1309726565
H   H97       1.0  0.81490  0.00270  0.32310  1.0000 0.1409859246
H   H98       1.0  0.99730  0.18510  0.82310  1.0000 0.1409859246
H   H99       1.0  0.77700  0.08460  0.28470  1.0000 0.1010354584
H   H100      1.0  0.91540  0.22300  0.78470  1.0000 0.1010354584
H   H101      1.0  0.85020  0.79160  0.34380  1.0000 0.1309726565
H   H102      1.0  0.20840  0.14980  0.84380  1.0000 0.1309726565
H   H103      1.0  0.77150  0.60050  0.88910  1.0000 0.1309726565
H   H104      1.0  0.39950  0.22850  0.38910  1.0000 0.1309726565
H   H105      1.0  0.67390  0.07870  0.28460  1.0000 0.1106704088
H   H106      1.0  0.92130  0.32610  0.78460  1.0000 0.1106704088
H   H107      1.0  0.83530  0.70250  0.32350  1.0000 0.1106704088
H   H108      1.0  0.29750  0.16470  0.82350  1.0000 0.1106704088
H   H109      1.0  0.59220  0.97540  0.31960  1.0000 0.1309726565
H   H110      1.0  0.02460  0.40780  0.81960  1.0000 0.1309726565
H   H111      1.0  0.73720  0.58620  0.33240  1.0000 0.1106704088
H   H112      1.0  0.41380  0.26280  0.83240  1.0000 0.1106704088
H   H113      1.0  0.56220  0.57480  0.81040  1.0000 0.1309726565
H   H114      1.0  0.42520  0.43780  0.31040  1.0000 0.1309726565
H   H115      1.0  0.65440  0.55860  0.36170  1.0000 0.1309726565
H   H116      1.0  0.44140  0.34560  0.86170  1.0000 0.1309726565
H   H117      1.0  0.28670  0.53310  0.30910  1.0000 0.1106704088
H   H118      1.0  0.46690  0.71330  0.80910  1.0000 0.1106704088
H   H119      1.0  0.66410  0.63990  0.78890  1.0000 0.120428459
H   H120      1.0  0.36010  0.33590  0.28890  1.0000 0.120428459
H   H121      1.0  0.85390  0.62230  0.79230  1.0000 0.1010354584
H   H122      1.0  0.37770  0.14610  0.29230  1.0000 0.1010354584
H   H123      1.0  0.89510  0.64650  0.82930  1.0000 0.1010354584
H   H124      1.0  0.35350  0.10490  0.32930  1.0000 0.1010354584
H   H125      1.0  0.49320  0.86460  0.49340  1.0000 0.1106704088
H   H126      1.0  0.13540  0.50680  0.99340  1.0000 0.1106704088
H   H127      1.0  0.54850  0.81550  0.54740  1.0000 0.1106704088
H   H128      1.0  0.18450  0.45150  0.04740  1.0000 0.1106704088
H   H129      1.0  0.92250  0.77750  0.74420  1.0000 0.1010354584
H   H130      1.0  0.22250  0.07750  0.24420  1.0000 0.1010354584
H   H131      1.0  0.85790  0.78910  0.73790  1.0000 0.1010354584
H   H132      1.0  0.21090  0.14210  0.23790  1.0000 0.1010354584
H   H133      1.0  0.66360  0.53600  0.90640  1.0000 0.120428459
H   H134      1.0  0.46400  0.33640  0.40640  1.0000 0.120428459
H   H135      1.0  0.93000  0.76720  0.83440  1.0000 0.0920910893
H   H136      1.0  0.23280  0.07000  0.33440  1.0000 0.0920910893
H   H137      1.0  0.98050  0.79930  0.80790  1.0000 0.1010354584
H   H138      1.0  0.20070  0.01950  0.30790  1.0000 0.1010354584
H   H139      1.0  0.82200  0.82680  0.61940  1.0000 0.120428459
H   H140      1.0  0.17320  0.17800  0.11940  1.0000 0.120428459
H   H141      1.0  0.76300  0.65900  0.77800  1.0000 0.0920910893
H   H142      1.0  0.34100  0.23700  0.27800  1.0000 0.0920910893
H   H143      1.0  0.78770  0.73430  0.78340  1.0000 0.1010354584
H   H144      1.0  0.26570  0.21230  0.28340  1.0000 0.1010354584
H   H145      1.0  0.63400  0.53960  0.56500  1.0000 0.1309726565
H   H146      1.0  0.46040  0.36600  0.06500  1.0000 0.1309726565
H   H147      1.0  0.91240  0.55620  0.83390  1.0000 0.1106704088
H   H148      1.0  0.44380  0.08760  0.33390  1.0000 0.1106704088
H   H149      1.0  0.98940  0.05820  0.80060  1.0000 0.120428459
H   H150      1.0  0.94180  0.01060  0.30060  1.0000 0.120428459
H   H151      1.0  0.92780  0.96140  0.77270  1.0000 0.1309726565
H   H152      1.0  0.03860  0.07220  0.27270  1.0000 0.1309726565
H   H153      1.0  0.01680  0.85600  0.85670  1.0000 0.120428459
H   H154      1.0  0.14400  0.98320  0.35670  1.0000 0.120428459
H   H155      1.0  0.86000  0.81800  0.68010  1.0000 0.120428459
H   H156      1.0  0.18200  0.14000  0.18010  1.0000 0.120428459
H   H157      1.0  0.97510  0.49310  0.86150  1.0000 0.120428459
H   H158      1.0  0.50690  0.02490  0.36150  1.0000 0.120428459
H   H159      1.0  0.70810  0.61410  0.63340  1.0000 0.120428459
H   H160      1.0  0.38590  0.29190  0.13340  1.0000 0.120428459
H   H161      1.0  0.52740  0.35920  0.52680  1.0000 0.1010354584
H   H162      1.0  0.64080  0.47260  0.02680  1.0000 0.1010354584
H   H163      1.0  0.57960  0.41760  0.57310  1.0000 0.1010354584
H   H164      1.0  0.58240  0.42040  0.07310  1.0000 0.1010354584
H   H165      1.0  0.07660  0.71960  0.78970  1.0000 0.1309726565
H   H166      1.0  0.28040  0.92340  0.28970  1.0000 0.1309726565
H   H167      1.0  0.62260  0.77380  0.55110  1.0000 0.1309726565
H   H168      1.0  0.22620  0.37740  0.05110  1.0000 0.1309726565
H   H169      1.0  0.36840  0.72260  0.33170  1.0000 0.1468938265
H   H170      1.0  0.27740  0.63160  0.83170  1.0000 0.1468938265
H   H171      1.0  0.07820  0.95400  0.88330  1.0000 0.120428459
H   H172      1.0  0.04600  0.92180  0.38330  1.0000 0.120428459
H   H173      1.0  0.27900  0.63040  0.30290  1.0000 0.1106704088
H   H174      1.0  0.36960  0.72100  0.80290  1.0000 0.1106704088
H   H175      1.0  0.39240  0.52580  0.34050  1.0000 0.120428459
H   H176      1.0  0.47420  0.60760  0.84050  1.0000 0.120428459
H   H177      1.0  0.14080  0.65680  0.81500  1.0000 0.120428459
H   H178      1.0  0.34320  0.85920  0.31500  1.0000 0.120428459
H   H179      1.0  0.49440  0.85420  0.44080  1.0000 0.1409859246
H   H180      1.0  0.14580  0.50560  0.94080  1.0000 0.1409859246
H   H181      1.0  0.52520  0.42640  0.46660  1.0000 0.1309726565
H   H182      1.0  0.57360  0.47480  0.96660  1.0000 0.1309726565
H   H183      1.0  0.74670  0.60070  0.69590  1.0000 0.1309726565
H   H184      1.0  0.39930  0.25330  0.19590  1.0000 0.1309726565
H   H185      1.0  0.97030  0.91270  0.45250  1.0000 0.1409859246
H   H186      1.0  0.08730  0.02970  0.95250  1.0000 0.1409859246
H   H187      1.0  0.04700  0.92180  0.50920  1.0000 0.120428459
H   H188      1.0  0.07820  0.95300  0.00920  1.0000 0.120428459
H   H189      1.0  0.99900  0.86340  0.56030  1.0000 0.120428459
H   H190      1.0  0.13660  0.00100  0.06030  1.0000 0.120428459
H   H191      1.0  0.87440  0.79580  0.55460  1.0000 0.1309726565
H   H192      1.0  0.20420  0.12560  0.05460  1.0000 0.1309726565
C   C1        1.0  0.72469  0.87451  0.71154  1.0000 0.0732939515
C   C2        1.0  0.12549  0.27531  0.21154  1.0000 0.0732939515
C   C3        1.0  0.99760  0.77180  0.17707  1.0000 -0.1781631896
C   C4        1.0  0.22820  0.00240  0.67707  1.0000 -0.1781631896
C   C5        1.0  0.65745  0.70015  0.13020  1.0000 0.120428459
C   C6        1.0  0.29985  0.34255  0.63020  1.0000 0.120428459
C   C7        1.0  0.04610  0.74830  0.19950  1.0000 -0.1001572699
C   C8        1.0  0.25170  0.95390  0.69950  1.0000 -0.1001572699
C   C9        1.0  0.72868  0.76092  0.13520  1.0000 0.1409859246
C   C10       1.0  0.23908  0.27132  0.63520  1.0000 0.1409859246
C   C11       1.0  0.74503  0.81083  0.15265  1.0000 -0.1705111537
C   C12       1.0  0.18917  0.25497  0.65265  1.0000 -0.1705111537
C   C13       1.0  0.59589  0.72911  0.62785  1.0000 -0.1896810418
C   C14       1.0  0.27089  0.40411  0.12785  1.0000 -0.1896810418
C   C15       1.0  0.04210  0.68430  0.20060  1.0000 -0.1001572699
C   C16       1.0  0.31570  0.95790  0.70060  1.0000 -0.1001572699
C   C17       1.0  0.69166  0.80194  0.16480  1.0000 -0.0891996881
C   C18       1.0  0.19806  0.30834  0.66480  1.0000 -0.0891996881
C   C19       1.0  0.98220  0.63660  0.17910  1.0000 -0.1598912871
C   C20       1.0  0.36340  0.01780  0.67910  1.0000 -0.1705111537
C   C21       1.0  0.94030  0.72510  0.15461  1.0000 0.1309726565
C   C22       1.0  0.27490  0.05970  0.65461  1.0000 0.1309726565
C   C23       1.0  0.62190  0.74310  0.15949  1.0000 -0.1001572699
C   C24       1.0  0.25690  0.37810  0.65949  1.0000 -0.1001572699
C   C25       1.0  0.57906  0.60514  0.67330  1.0000 -0.1001572699
C   C26       1.0  0.39486  0.42094  0.17330  1.0000 -0.1001572699
C   C27       1.0  0.60559  0.69319  0.14204  1.0000 -0.1598912871
C   C28       1.0  0.30681  0.39441  0.64204  1.0000 -0.1598912871
C   C29       1.0  0.57020  0.32640  0.17964  1.0000 -0.1088889481
C   C30       1.0  0.67360  0.42980  0.67964  1.0000 -0.1088889481
C   C31       1.0  0.61892  0.66568  0.68670  1.0000 -0.2192758856
C   C32       1.0  0.33432  0.38108  0.18670  1.0000 -0.2192758856
C   C33       1.0  0.66287  0.89211  0.69650  1.0000 -0.1001572699
C   C34       1.0  0.10789  0.33713  0.19650  1.0000 -0.1001572699
C   C35       1.0  0.84376  0.51764  0.00640  1.0000 -0.1001572699
C   C36       1.0  0.48236  0.15624  0.50640  1.0000 -0.1001572699
C   C37       1.0  0.81590  0.55370  0.97390  1.0000 -0.1001572699
C   C38       1.0  0.44630  0.18410  0.47390  1.0000 -0.1001572699
C   C39       1.0  0.56680  0.06680  0.65828  1.0000 -0.0390483148
C   C40       1.0  0.93320  0.43320  0.15828  1.0000 -0.0390483148
C   C41       1.0  0.75391  0.87397  0.75212  1.0000 -0.0782507051
C   C42       1.0  0.12603  0.24609  0.25212  1.0000 -0.0782507051
C   C43       1.0  0.55670  0.66350  0.61800  1.0000 -0.1088889481
C   C44       1.0  0.33650  0.44330  0.11800  1.0000 -0.1088889481
C   C45       1.0  0.62130  0.44190  0.14307  1.0000 0.1106704088
C   C46       1.0  0.55810  0.37870  0.64307  1.0000 0.1106704088
C   C47       1.0  0.55655  0.60985  0.99036  1.0000 0.1409859246
C   C48       1.0  0.39015  0.44345  0.49036  1.0000 0.1409859246
C   C49       1.0  0.70998  0.80882  0.80657  1.0000 0.2404416016
C   C50       1.0  0.19118  0.29002  0.30657  1.0000 0.2404416016
C   C51       1.0  0.78482  0.93278  0.69076  1.0000 -0.0891996881
C   C52       1.0  0.06722  0.21518  0.19076  1.0000 -0.0891996881
C   C53       1.0  0.78126  0.80674  0.86508  1.0000 -0.0891996881
C   C54       1.0  0.19326  0.21874  0.36508  1.0000 -0.0891996881
C   C55       1.0  0.62694  0.72906  0.66273  1.0000 0.2265604112
C   C56       1.0  0.27094  0.37306  0.16273  1.0000 0.2265604112
C   C57       1.0  0.69541  0.79857  0.70787  1.0000 -0.0726193085
C   C58       1.0  0.20143  0.30459  0.20787  1.0000 -0.0726193085
C   C59       1.0  0.64626  0.99114  0.68892  1.0000 0.2404416016
C   C60       1.0  0.00886  0.35374  0.18892  1.0000 0.2404416016
C   C61       1.0  0.51745  0.61215  0.95440  1.0000 -0.1598912871
C   C62       1.0  0.38785  0.48255  0.45440  1.0000 -0.1598912871
C   C63       1.0  0.72165  0.76195  0.87899  1.0000 -0.0268255452
C   C64       1.0  0.23805  0.27835  0.37899  1.0000 -0.0268255452
C   C65       1.0  0.73133  0.73667  0.91974  1.0000 0.534449083
C   C66       1.0  0.26333  0.26867  0.41974  1.0000 0.534449083
C   C67       1.0  0.52206  0.57874  0.01892  1.0000 0.120428459
C   C68       1.0  0.42126  0.47794  0.51892  1.0000 0.120428459
C   C69       1.0  0.57759  0.95901  0.66912  1.0000 -0.2510647707
C   C70       1.0  0.04099  0.42241  0.16912  1.0000 -0.2510647707
C   C71       1.0  0.67820  0.43220  0.14663  1.0000 0.120428459
C   C72       1.0  0.56780  0.32180  0.64663  1.0000 0.120428459
C   C73       1.0  0.07680  0.07900  0.63590  1.0000 0.5217810843
C   C74       1.0  0.92100  0.92320  0.13590  1.0000 0.5217810843
C   C75       1.0  0.52289  0.10551  0.64163  1.0000 0.5002692167
C   C76       1.0  0.89449  0.47711  0.14163  1.0000 0.5002692167
C   C77       1.0  0.01793  0.99527  0.68769  1.0000 -0.0891996881
C   C78       1.0  0.00473  0.98207  0.18769  1.0000 -0.0891996881
C   C79       1.0  0.01610  0.04070  0.65430  1.0000 -0.0568167835
C   C80       1.0  0.95930  0.98390  0.15430  1.0000 -0.0568167835
C   C81       1.0  0.95901  0.95739  0.70432  1.0000 -0.2383717026
C   C82       1.0  0.04261  0.04099  0.20432  1.0000 -0.2383717026
C   C83       1.0  0.89579  0.01001  0.65468  1.0000 -0.2383717026
C   C84       1.0  0.98999  0.10421  0.15468  1.0000 -0.2383717026
C   C85       1.0  0.50430  0.53270  0.62530  1.0000 0.5113225702
C   C86       1.0  0.46730  0.49570  0.12530  1.0000 0.5113225702
C   C87       1.0  0.77629  0.82991  0.82907  1.0000 -0.2192758856
C   C88       1.0  0.17009  0.22371  0.32907  1.0000 -0.2192758856
C   C89       1.0  0.53898  0.99682  0.65312  1.0000 -0.0782507051
C   C90       1.0  0.00318  0.46102  0.15312  1.0000 -0.0782507051
C   C91       1.0  0.78710  0.59570  0.00480  1.0000 0.1106704088
C   C92       1.0  0.40430  0.21290  0.50480  1.0000 0.1106704088
C   C93       1.0  0.65497  0.73943  0.85674  1.0000 -0.0891996881
C   C94       1.0  0.26057  0.34503  0.35674  1.0000 -0.0891996881
C   C95       1.0  0.40929  0.54791  0.97837  1.0000 -0.1001572699
C   C96       1.0  0.45209  0.59071  0.47837  1.0000 -0.1001572699
C   C97       1.0  0.44566  0.58034  0.95029  1.0000 -0.1001572699
C   C98       1.0  0.41966  0.55434  0.45029  1.0000 -0.1001572699
C   C99       1.0  0.67380  0.05640  0.69537  1.0000 -0.2383717026
C   C100      1.0  0.94360  0.32620  0.19537  1.0000 -0.2383717026
C   C101      1.0  0.78889  0.59671  0.97072  1.0000 -0.1705111537
C   C102      1.0  0.40329  0.21111  0.47072  1.0000 -0.1705111537
C   C103      1.0  0.68389  0.37291  0.16629  1.0000 -0.1506564438
C   C104      1.0  0.62709  0.31611  0.66629  1.0000 -0.1506564438
C   C105      1.0  0.95567  0.04693  0.63914  1.0000 -0.0891996881
C   C106      1.0  0.95307  0.04433  0.13914  1.0000 -0.0891996881
C   C107      1.0  0.62901  0.32099  0.18280  1.0000 -0.1088889481
C   C108      1.0  0.67901  0.37099  0.68280  1.0000 -0.1088889481
C   C109      1.0  0.56375  0.38765  0.16056  1.0000 -0.1781631896
C   C110      1.0  0.61235  0.43625  0.66056  1.0000 -0.1781631896
C   C111      1.0  0.54639  0.60161  0.64010  1.0000 -0.0104841531
C   C112      1.0  0.39839  0.45361  0.14010  1.0000 -0.0104841531
C   C113      1.0  0.63540  0.09580  0.68012  1.0000 -0.0891996881
C   C114      1.0  0.90420  0.36460  0.18012  1.0000 -0.0891996881
C   C115      1.0  0.83890  0.51990  0.03737  1.0000 -0.1598912871
C   C116      1.0  0.48010  0.16110  0.53737  1.0000 -0.1598912871
C   C117      1.0  0.93280  0.66040  0.15531  1.0000 0.1106704088
C   C118      1.0  0.33960  0.06720  0.65531  1.0000 0.1106704088
C   C119      1.0  0.81121  0.55979  0.03710  1.0000 0.1309726565
C   C120      1.0  0.44021  0.18879  0.53710  1.0000 0.120428459
C   C121      1.0  0.44874  0.54666  0.01412  1.0000 -0.1598912871
C   C122      1.0  0.45334  0.55126  0.51412  1.0000 -0.1705111537
C   C123      1.0  0.89904  0.96336  0.68749  1.0000 0.2404416016
C   C124      1.0  0.03664  0.10096  0.18749  1.0000 0.2404416016
C   C125      1.0  0.64630  0.76190  0.81957  1.0000 -0.2104817946
C   C126      1.0  0.23810  0.35370  0.31957  1.0000 -0.2104817946
C   C127      1.0  0.81380  0.84772  0.99981  1.0000 0.120428459
C   C128      1.0  0.15228  0.18620  0.49981  1.0000 0.120428459
C   C129      1.0  0.84876  0.87644  0.03040  1.0000 0.1409859246
C   C130      1.0  0.12356  0.15124  0.53040  1.0000 0.1409859246
C   C131      1.0  0.88926  0.95114  0.02701  1.0000 -0.1705111537
C   C132      1.0  0.04886  0.11074  0.52701  1.0000 -0.1705111537
C   C133      1.0  0.89473  0.99703  0.99304  1.0000 -0.0891996881
C   C134      1.0  0.00297  0.10527  0.49304  1.0000 -0.0891996881
C   C135      1.0  0.85973  0.96827  0.96245  1.0000 -0.1088889481
C   C136      1.0  0.03173  0.14027  0.46245  1.0000 -0.1088889481
C   C137      1.0  0.81922  0.89358  0.96584  1.0000 -0.1506564438
C   C138      1.0  0.10642  0.18078  0.46584  1.0000 -0.1506564438
C   C139      1.0  0.87451  0.72469  0.78846  1.0000 0.0732939515
C   C140      1.0  0.27531  0.12549  0.28846  1.0000 0.0732939515
C   C141      1.0  0.77180  0.99760  0.32293  1.0000 -0.1781631896
C   C142      1.0  0.00240  0.22820  0.82293  1.0000 -0.1781631896
C   C143      1.0  0.70015  0.65745  0.36980  1.0000 0.120428459
C   C144      1.0  0.34255  0.29985  0.86980  1.0000 0.120428459
C   C145      1.0  0.74830  0.04610  0.30050  1.0000 -0.1001572699
C   C146      1.0  0.95390  0.25170  0.80050  1.0000 -0.1001572699
C   C147      1.0  0.76092  0.72868  0.36480  1.0000 0.1409859246
C   C148      1.0  0.27132  0.23908  0.86480  1.0000 0.1409859246
C   C149      1.0  0.81083  0.74503  0.34735  1.0000 -0.1705111537
C   C150      1.0  0.25497  0.18917  0.84735  1.0000 -0.1705111537
C   C151      1.0  0.72911  0.59589  0.87215  1.0000 -0.1896810418
C   C152      1.0  0.40411  0.27089  0.37215  1.0000 -0.1896810418
C   C153      1.0  0.68430  0.04210  0.29940  1.0000 -0.1001572699
C   C154      1.0  0.95790  0.31570  0.79940  1.0000 -0.1001572699
C   C155      1.0  0.80194  0.69166  0.33520  1.0000 -0.0891996881
C   C156      1.0  0.30834  0.19806  0.83520  1.0000 -0.0891996881
C   C157      1.0  0.63660  0.98220  0.32090  1.0000 -0.1598912871
C   C158      1.0  0.01780  0.36340  0.82090  1.0000 -0.1705111537
C   C159      1.0  0.72510  0.94030  0.34539  1.0000 0.1309726565
C   C160      1.0  0.05970  0.27490  0.84539  1.0000 0.1309726565
C   C161      1.0  0.74310  0.62190  0.34051  1.0000 -0.1001572699
C   C162      1.0  0.37810  0.25690  0.84051  1.0000 -0.1001572699
C   C163      1.0  0.60514  0.57906  0.82670  1.0000 -0.1001572699
C   C164      1.0  0.42094  0.39486  0.32670  1.0000 -0.1001572699
C   C165      1.0  0.69319  0.60559  0.35796  1.0000 -0.1598912871
C   C166      1.0  0.39441  0.30681  0.85796  1.0000 -0.1598912871
C   C167      1.0  0.32640  0.57020  0.32036  1.0000 -0.1088889481
C   C168      1.0  0.42980  0.67360  0.82036  1.0000 -0.1088889481
C   C169      1.0  0.66568  0.61892  0.81330  1.0000 -0.2192758856
C   C170      1.0  0.38108  0.33432  0.31330  1.0000 -0.2192758856
C   C171      1.0  0.89211  0.66287  0.80350  1.0000 -0.1001572699
C   C172      1.0  0.33713  0.10789  0.30350  1.0000 -0.1001572699
C   C173      1.0  0.51764  0.84376  0.49360  1.0000 -0.1001572699
C   C174      1.0  0.15624  0.48236  0.99360  1.0000 -0.1001572699
C   C175      1.0  0.55370  0.81590  0.52610  1.0000 -0.1001572699
C   C176      1.0  0.18410  0.44630  0.02610  1.0000 -0.1001572699
C   C177      1.0  0.06680  0.56680  0.84172  1.0000 -0.0390483148
C   C178      1.0  0.43320  0.93320  0.34172  1.0000 -0.0390483148
C   C179      1.0  0.87397  0.75391  0.74788  1.0000 -0.0782507051
C   C180      1.0  0.24609  0.12603  0.24788  1.0000 -0.0782507051
C   C181      1.0  0.66350  0.55670  0.88200  1.0000 -0.1088889481
C   C182      1.0  0.44330  0.33650  0.38200  1.0000 -0.1088889481
C   C183      1.0  0.44190  0.62130  0.35693  1.0000 0.1106704088
C   C184      1.0  0.37870  0.55810  0.85693  1.0000 0.1106704088
C   C185      1.0  0.60985  0.55655  0.50964  1.0000 0.1409859246
C   C186      1.0  0.44345  0.39015  0.00964  1.0000 0.1409859246
C   C187      1.0  0.80882  0.70998  0.69343  1.0000 0.2404416016
C   C188      1.0  0.29002  0.19118  0.19343  1.0000 0.2404416016
C   C189      1.0  0.93278  0.78482  0.80924  1.0000 -0.0891996881
C   C190      1.0  0.21518  0.06722  0.30924  1.0000 -0.0891996881
C   C191      1.0  0.80674  0.78126  0.63492  1.0000 -0.0891996881
C   C192      1.0  0.21874  0.19326  0.13492  1.0000 -0.0891996881
C   C193      1.0  0.72906  0.62694  0.83727  1.0000 0.2265604112
C   C194      1.0  0.37306  0.27094  0.33727  1.0000 0.2265604112
C   C195      1.0  0.79857  0.69541  0.79213  1.0000 -0.0726193085
C   C196      1.0  0.30459  0.20143  0.29213  1.0000 -0.0726193085
C   C197      1.0  0.99114  0.64626  0.81108  1.0000 0.2404416016
C   C198      1.0  0.35374  0.00886  0.31108  1.0000 0.2404416016
C   C199      1.0  0.61215  0.51745  0.54560  1.0000 -0.1598912871
C   C200      1.0  0.48255  0.38785  0.04560  1.0000 -0.1598912871
C   C201      1.0  0.76195  0.72165  0.62101  1.0000 -0.0268255452
C   C202      1.0  0.27835  0.23805  0.12101  1.0000 -0.0268255452
C   C203      1.0  0.73667  0.73133  0.58026  1.0000 0.534449083
C   C204      1.0  0.26867  0.26333  0.08026  1.0000 0.534449083
C   C205      1.0  0.57874  0.52206  0.48108  1.0000 0.120428459
C   C206      1.0  0.47794  0.42126  0.98108  1.0000 0.120428459
C   C207      1.0  0.95901  0.57759  0.83088  1.0000 -0.2510647707
C   C208      1.0  0.42241  0.04099  0.33088  1.0000 -0.2510647707
C   C209      1.0  0.43220  0.67820  0.35337  1.0000 0.120428459
C   C210      1.0  0.32180  0.56780  0.85337  1.0000 0.120428459
C   C211      1.0  0.07900  0.07680  0.86410  1.0000 0.5217810843
C   C212      1.0  0.92320  0.92100  0.36410  1.0000 0.5217810843
C   C213      1.0  0.10551  0.52289  0.85837  1.0000 0.5002692167
C   C214      1.0  0.47711  0.89449  0.35837  1.0000 0.5002692167
C   C215      1.0  0.99527  0.01793  0.81231  1.0000 -0.0891996881
C   C216      1.0  0.98207  0.00473  0.31231  1.0000 -0.0891996881
C   C217      1.0  0.04070  0.01610  0.84570  1.0000 -0.0568167835
C   C218      1.0  0.98390  0.95930  0.34570  1.0000 -0.0568167835
C   C219      1.0  0.95739  0.95901  0.79568  1.0000 -0.2383717026
C   C220      1.0  0.04099  0.04261  0.29568  1.0000 -0.2383717026
C   C221      1.0  0.01001  0.89579  0.84532  1.0000 -0.2383717026
C   C222      1.0  0.10421  0.98999  0.34532  1.0000 -0.2383717026
C   C223      1.0  0.53270  0.50430  0.87470  1.0000 0.5113225702
C   C224      1.0  0.49570  0.46730  0.37470  1.0000 0.5113225702
C   C225      1.0  0.82991  0.77629  0.67093  1.0000 -0.2192758856
C   C226      1.0  0.22371  0.17009  0.17093  1.0000 -0.2192758856
C   C227      1.0  0.99682  0.53898  0.84688  1.0000 -0.0782507051
C   C228      1.0  0.46102  0.00318  0.34688  1.0000 -0.0782507051
C   C229      1.0  0.59570  0.78710  0.49520  1.0000 0.1106704088
C   C230      1.0  0.21290  0.40430  0.99520  1.0000 0.1106704088
C   C231      1.0  0.73943  0.65497  0.64326  1.0000 -0.0891996881
C   C232      1.0  0.34503  0.26057  0.14326  1.0000 -0.0891996881
C   C233      1.0  0.54791  0.40929  0.52163  1.0000 -0.1001572699
C   C234      1.0  0.59071  0.45209  0.02163  1.0000 -0.1001572699
C   C235      1.0  0.58034  0.44566  0.54971  1.0000 -0.1001572699
C   C236      1.0  0.55434  0.41966  0.04971  1.0000 -0.1001572699
C   C237      1.0  0.05640  0.67380  0.80463  1.0000 -0.2383717026
C   C238      1.0  0.32620  0.94360  0.30463  1.0000 -0.2383717026
C   C239      1.0  0.59671  0.78889  0.52928  1.0000 -0.1705111537
C   C240      1.0  0.21111  0.40329  0.02928  1.0000 -0.1705111537
C   C241      1.0  0.37291  0.68389  0.33371  1.0000 -0.1506564438
C   C242      1.0  0.31611  0.62709  0.83371  1.0000 -0.1506564438
C   C243      1.0  0.04693  0.95567  0.86086  1.0000 -0.0891996881
C   C244      1.0  0.04433  0.95307  0.36086  1.0000 -0.0891996881
C   C245      1.0  0.32099  0.62901  0.31720  1.0000 -0.1088889481
C   C246      1.0  0.37099  0.67901  0.81720  1.0000 -0.1088889481
C   C247      1.0  0.38765  0.56375  0.33944  1.0000 -0.1781631896
C   C248      1.0  0.43625  0.61235  0.83944  1.0000 -0.1781631896
C   C249      1.0  0.60161  0.54639  0.85990  1.0000 -0.0104841531
C   C250      1.0  0.45361  0.39839  0.35990  1.0000 -0.0104841531
C   C251      1.0  0.09580  0.63540  0.81988  1.0000 -0.0891996881
C   C252      1.0  0.36460  0.90420  0.31988  1.0000 -0.0891996881
C   C253      1.0  0.51990  0.83890  0.46263  1.0000 -0.1598912871
C   C254      1.0  0.16110  0.48010  0.96263  1.0000 -0.1598912871
C   C255      1.0  0.66040  0.93280  0.34469  1.0000 0.1106704088
C   C256      1.0  0.06720  0.33960  0.84469  1.0000 0.1106704088
C   C257      1.0  0.55979  0.81121  0.46290  1.0000 0.1309726565
C   C258      1.0  0.18879  0.44021  0.96290  1.0000 0.120428459
C   C259      1.0  0.54666  0.44874  0.48588  1.0000 -0.1705111537
C   C260      1.0  0.55126  0.45334  0.98588  1.0000 -0.1705111537
C   C261      1.0  0.96336  0.89904  0.81251  1.0000 0.2404416016
C   C262      1.0  0.10096  0.03664  0.31251  1.0000 0.2404416016
C   C263      1.0  0.76190  0.64630  0.68043  1.0000 -0.2104817946
C   C264      1.0  0.35370  0.23810  0.18043  1.0000 -0.2104817946
C   C265      1.0  0.84772  0.81380  0.50019  1.0000 0.120428459
C   C266      1.0  0.18620  0.15228  0.00019  1.0000 0.120428459
C   C267      1.0  0.87644  0.84876  0.46960  1.0000 0.1409859246
C   C268      1.0  0.15124  0.12356  0.96960  1.0000 0.1409859246
C   C269      1.0  0.95114  0.88926  0.47299  1.0000 -0.1705111537
C   C270      1.0  0.11074  0.04886  0.97299  1.0000 -0.1705111537
C   C271      1.0  0.99703  0.89473  0.50696  1.0000 -0.0891996881
C   C272      1.0  0.10527  0.00297  0.00696  1.0000 -0.0891996881
C   C273      1.0  0.96827  0.85973  0.53755  1.0000 -0.1088889481
C   C274      1.0  0.14027  0.03173  0.03755  1.0000 -0.1088889481
C   C275      1.0  0.89358  0.81922  0.53416  1.0000 -0.1506564438
C   C276      1.0  0.18078  0.10642  0.03416  1.0000 -0.1506564438
N   N1        1.0  0.83103  0.81897  0.05721  1.0000 -0.2104817946
N   N2        1.0  0.18103  0.16897  0.55721  1.0000 -0.2104817946
N   N3        1.0  0.62883  0.63713  0.00443  1.0000 -0.2255090749
N   N4        1.0  0.36287  0.37117  0.50443  1.0000 -0.2255090749
N   N5        1.0  0.79038  0.75912  0.04332  1.0000 -0.0104841531
N   N6        1.0  0.24088  0.20962  0.54332  1.0000 -0.0104841531
N   N7        1.0  0.77802  0.77458  0.00770  1.0000 -0.1986046654
N   N8        1.0  0.22542  0.22198  0.50770  1.0000 -0.2104817946
N   N9        1.0  0.63906  0.62290  0.04052  1.0000 -0.0268255452
N   N10       1.0  0.37710  0.36094  0.54052  1.0000 -0.0268255452
N   N11       1.0  0.57616  0.58750  0.04974  1.0000 -0.2104817946
N   N12       1.0  0.41250  0.42384  0.54974  1.0000 -0.2104817946
N   N13       1.0  0.63060  0.50820  0.12159  1.0000 -0.2104817946
N   N14       1.0  0.49180  0.36940  0.62159  1.0000 -0.2104817946
N   N15       1.0  0.69296  0.53912  0.11246  1.0000 -0.0268255452
N   N16       1.0  0.46088  0.30704  0.61246  1.0000 -0.0268255452
N   N17       1.0  0.72348  0.49572  0.12683  1.0000 -0.2510647707
N   N18       1.0  0.50428  0.27652  0.62683  1.0000 -0.2510647707
N   N19       1.0  0.87201  0.62699  0.13102  1.0000 -0.1986046654
N   N20       1.0  0.37301  0.12799  0.63102  1.0000 -0.1986046654
N   N21       1.0  0.84602  0.67218  0.11613  1.0000 -0.0104841531
N   N22       1.0  0.32782  0.15398  0.61613  1.0000 -0.0104841531
N   N23       1.0  0.88654  0.73246  0.12931  1.0000 -0.2192758856
N   N24       1.0  0.26754  0.11346  0.62931  1.0000 -0.2192758856
N   N25       1.0  0.76331  0.75429  0.11827  1.0000 -0.2192758856
N   N26       1.0  0.24571  0.23669  0.61827  1.0000 -0.2192758856
N   N27       1.0  0.71699  0.69061  0.10720  1.0000 -0.0104841531
N   N28       1.0  0.30939  0.28301  0.60720  1.0000 -0.0104841531
N   N29       1.0  0.65323  0.65717  0.11448  1.0000 -0.1986046654
N   N30       1.0  0.34283  0.34677  0.61448  1.0000 -0.1986046654
N   N31       1.0  0.76294  0.62956  0.01198  1.0000 -0.1896810418
N   N32       1.0  0.37044  0.23706  0.51198  1.0000 -0.1986046654
N   N33       1.0  0.77113  0.61067  0.04739  1.0000 -0.0224431686
N   N34       1.0  0.38933  0.22887  0.54739  1.0000 -0.0224431686
N   N35       1.0  0.80059  0.56925  0.06300  1.0000 -0.1896810418
N   N36       1.0  0.43075  0.19941  0.56300  1.0000 -0.1896810418
N   N37       1.0  0.81897  0.83103  0.44279  1.0000 -0.2104817946
N   N38       1.0  0.16897  0.18103  0.94279  1.0000 -0.2104817946
N   N39       1.0  0.63713  0.62883  0.49557  1.0000 -0.2255090749
N   N40       1.0  0.37117  0.36287  0.99557  1.0000 -0.2192758856
N   N41       1.0  0.75912  0.79038  0.45668  1.0000 -0.0104841531
N   N42       1.0  0.20962  0.24088  0.95668  1.0000 -0.0104841531
N   N43       1.0  0.77458  0.77802  0.49230  1.0000 -0.1986046654
N   N44       1.0  0.22198  0.22542  0.99230  1.0000 -0.2104817946
N   N45       1.0  0.62290  0.63906  0.45948  1.0000 -0.0268255452
N   N46       1.0  0.36094  0.37710  0.95948  1.0000 -0.0268255452
N   N47       1.0  0.58750  0.57616  0.45026  1.0000 -0.2104817946
N   N48       1.0  0.42384  0.41250  0.95026  1.0000 -0.2104817946
N   N49       1.0  0.50820  0.63060  0.37841  1.0000 -0.2104817946
N   N50       1.0  0.36940  0.49180  0.87841  1.0000 -0.2104817946
N   N51       1.0  0.53912  0.69296  0.38754  1.0000 -0.0268255452
N   N52       1.0  0.30704  0.46088  0.88754  1.0000 -0.0268255452
N   N53       1.0  0.49572  0.72348  0.37317  1.0000 -0.2510647707
N   N54       1.0  0.27652  0.50428  0.87317  1.0000 -0.2510647707
N   N55       1.0  0.62699  0.87201  0.36898  1.0000 -0.1986046654
N   N56       1.0  0.12799  0.37301  0.86898  1.0000 -0.1986046654
N   N57       1.0  0.67218  0.84602  0.38387  1.0000 -0.0104841531
N   N58       1.0  0.15398  0.32782  0.88387  1.0000 -0.0104841531
N   N59       1.0  0.73246  0.88654  0.37069  1.0000 -0.2192758856
N   N60       1.0  0.11346  0.26754  0.87069  1.0000 -0.2192758856
N   N61       1.0  0.75429  0.76331  0.38173  1.0000 -0.2192758856
N   N62       1.0  0.23669  0.24571  0.88173  1.0000 -0.2192758856
N   N63       1.0  0.69061  0.71699  0.39280  1.0000 -0.0104841531
N   N64       1.0  0.28301  0.30939  0.89280  1.0000 -0.0104841531
N   N65       1.0  0.65717  0.65323  0.38552  1.0000 -0.1986046654
N   N66       1.0  0.34677  0.34283  0.88552  1.0000 -0.1986046654
N   N67       1.0  0.62956  0.76294  0.48802  1.0000 -0.1986046654
N   N68       1.0  0.23706  0.37044  0.98802  1.0000 -0.1986046654
N   N69       1.0  0.61067  0.77113  0.45261  1.0000 -0.0224431686
N   N70       1.0  0.22887  0.38933  0.95261  1.0000 -0.0224431686
N   N71       1.0  0.56925  0.80059  0.43700  1.0000 -0.1896810418
N   N72       1.0  0.19941  0.43075  0.93700  1.0000 -0.1896810418
O   O1        1.0  0.13384  0.07396  0.65385  1.0000 -0.5092515525
O   O2        1.0  0.92604  0.86616  0.15385  1.0000 -0.5092515525
O   O3        1.0  0.07379  0.11461  0.60664  1.0000 -0.4498633321
O   O4        1.0  0.88539  0.92621  0.10664  1.0000 -0.4498633321
O   O5        1.0  0.78988  0.75332  0.93896  1.0000 -0.4798823025
O   O6        1.0  0.24668  0.21012  0.43896  1.0000 -0.4798823025
O   O7        1.0  0.67248  0.70070  0.93097  1.0000 -0.5338173684
O   O8        1.0  0.29930  0.32752  0.43097  1.0000 -0.5351030406
O   O9        1.0  0.47658  0.52962  0.59669  1.0000 -0.3810071971
O   O10       1.0  0.47038  0.52342  0.09669  1.0000 -0.3810071971
O   O11       1.0  0.49170  0.47750  0.64982  1.0000 -0.4435565423
O   O12       1.0  0.52250  0.50830  0.14982  1.0000 -0.4435565423
O   O13       1.0  0.46716  0.07924  0.62047  1.0000 -0.4745353338
O   O14       1.0  0.92076  0.53284  0.12047  1.0000 -0.4798823025
O   O15       1.0  0.54620  0.15860  0.65116  1.0000 -0.4587385904
O   O16       1.0  0.84140  0.45380  0.15116  1.0000 -0.4587385904
O   O17       1.0  0.68843  0.96031  0.70385  1.0000 -0.1896810418
O   O18       1.0  0.03969  0.31157  0.20385  1.0000 -0.1896810418
O   O19       1.0  0.69506  0.82632  0.76950  1.0000 -0.1896810418
O   O20       1.0  0.17368  0.30494  0.26950  1.0000 -0.1896810418
O   O21       1.0  0.66514  0.79622  0.67151  1.0000 -0.1781631896
O   O22       1.0  0.20378  0.33486  0.17151  1.0000 -0.1781631896
O   O23       1.0  0.84529  0.92091  0.70645  1.0000 -0.2104817946
O   O24       1.0  0.07909  0.15471  0.20645  1.0000 -0.2104817946
O   O25       1.0  0.07396  0.13384  0.84615  1.0000 -0.5092515525
O   O26       1.0  0.86616  0.92604  0.34615  1.0000 -0.5092515525
O   O27       1.0  0.11461  0.07379  0.89336  1.0000 -0.4498633321
O   O28       1.0  0.92621  0.88539  0.39336  1.0000 -0.4498633321
O   O29       1.0  0.75332  0.78988  0.56104  1.0000 -0.4798823025
O   O30       1.0  0.21012  0.24668  0.06104  1.0000 -0.4798823025
O   O31       1.0  0.70070  0.67248  0.56903  1.0000 -0.5338173684
O   O32       1.0  0.32752  0.29930  0.06903  1.0000 -0.5351030406
O   O33       1.0  0.52962  0.47658  0.90331  1.0000 -0.3810071971
O   O34       1.0  0.52342  0.47038  0.40331  1.0000 -0.3810071971
O   O35       1.0  0.47750  0.49170  0.85018  1.0000 -0.4435565423
O   O36       1.0  0.50830  0.52250  0.35018  1.0000 -0.4435565423
O   O37       1.0  0.07924  0.46716  0.87953  1.0000 -0.4745353338
O   O38       1.0  0.53284  0.92076  0.37953  1.0000 -0.4798823025
O   O39       1.0  0.15860  0.54620  0.84884  1.0000 -0.4587385904
O   O40       1.0  0.45380  0.84140  0.34884  1.0000 -0.4587385904
O   O41       1.0  0.96031  0.68843  0.79615  1.0000 -0.1896810418
O   O42       1.0  0.31157  0.03969  0.29615  1.0000 -0.1896810418
O   O43       1.0  0.82632  0.69506  0.73050  1.0000 -0.1896810418
O   O44       1.0  0.30494  0.17368  0.23050  1.0000 -0.1896810418
O   O45       1.0  0.79622  0.66514  0.82849  1.0000 -0.1781631896
O   O46       1.0  0.33486  0.20378  0.32849  1.0000 -0.1781631896
O   O47       1.0  0.92091  0.84529  0.79355  1.0000 -0.2104817946
O   O48       1.0  0.15471  0.07909  0.29355  1.0000 -0.2104817946
