# DDEC6 charges by PACMAN v1.1 (https://github.com/mtap-research/PACMAN-charge/)
data_2013[Ho][nan]3[ASR]2
_chemical_formula_sum              "Ho4 H50 C78 N6 O28"
_cell_length_a       12.7551
_cell_length_b       13.617
_cell_length_c       14.137
_cell_angle_alpha    66.28
_cell_angle_beta     67.14
_cell_angle_gamma    77.149

_symmetry_space_group_name_H-M    "P 1"
_symmetry_Int_Tables_number       1

loop_
  _symmetry_equiv_pos_as_xyz
  'x, y, z'

loop_
  _atom_site_type_symbol
  _atom_site_label
  _atom_site_symmetry_multiplicity
  _atom_site_fract_x
  _atom_site_fract_y
  _atom_site_fract_z
  _atom_site_occupancy
  _atom_site_charge
Ho  Ho1       1.0  0.42888  0.88180  0.01126  1.0000 2.0098745833
Ho  Ho2       1.0  0.57112  0.11820  0.98874  1.0000 2.0098745833
Ho  Ho3       1.0  0.43199  0.82080  0.66514  1.0000 1.8992712508
Ho  Ho4       1.0  0.56801  0.17920  0.33486  1.0000 1.8992712508
H   H1        1.0  0.34840  0.67600  0.10610  1.0000 0.3659472029
H   H2        1.0  0.65160  0.32400  0.89390  1.0000 0.3659472029
H   H3        1.0  0.41280  0.74500  0.13900  1.0000 0.3659472029
H   H4        1.0  0.58720  0.25500  0.86100  1.0000 0.3659472029
H   H5        1.0  0.41160  0.74190  0.57680  1.0000 0.3202820877
H   H6        1.0  0.58840  0.25810  0.42320  1.0000 0.3202820877
H   H7        1.0  0.52160  0.77930  0.52760  1.0000 0.3202820877
H   H8        1.0  0.47840  0.22070  0.47240  1.0000 0.3202820877
H   H9        1.0  0.59360  0.52940  0.84110  1.0000 0.1289331824
H   H10       1.0  0.40640  0.47060  0.15890  1.0000 0.1289331824
H   H11       1.0  0.77790  0.36700  0.02650  1.0000 0.1106902608
H   H12       1.0  0.22210  0.63300  0.97350  1.0000 0.1106902608
H   H13       1.0  0.67440  0.67310  0.99700  1.0000 0.1289331824
H   H14       1.0  0.32560  0.32690  0.00300  1.0000 0.1289331824
H   H15       1.0  0.88260  0.64470  0.98730  1.0000 0.1106902608
H   H16       1.0  0.11740  0.35530  0.01270  1.0000 0.1106902608
H   H17       1.0  0.99370  0.64270  0.08220  1.0000 0.1014619791
H   H18       1.0  0.00630  0.35730  0.91780  1.0000 0.1014619791
H   H19       1.0  0.98350  0.51000  0.24860  1.0000 0.1106902608
H   H20       1.0  0.01650  0.49000  0.75140  1.0000 0.1106902608
H   H21       1.0  0.86040  0.37530  0.32000  1.0000 0.1183632697
H   H22       1.0  0.13960  0.62470  0.68000  1.0000 0.1183632697
H   H23       1.0  0.32850  0.07830  0.25620  1.0000 0.1289331824
H   H24       1.0  0.67150  0.92170  0.74380  1.0000 0.1289331824
H   H25       1.0  0.22370  0.18550  0.35910  1.0000 0.1183632697
H   H26       1.0  0.77630  0.81450  0.64090  1.0000 0.1183632697
H   H27       1.0  0.04720  0.26380  0.34920  1.0000 0.1106902608
H   H28       1.0  0.95280  0.73620  0.65080  1.0000 0.1106902608
H   H29       1.0  0.97570  0.23740  0.23550  1.0000 0.1106902608
H   H30       1.0  0.02430  0.76260  0.76450  1.0000 0.1106902608
H   H31       1.0  0.19500  0.13060  0.97600  1.0000 0.1014619791
H   H32       1.0  0.80500  0.86940  0.02400  1.0000 0.1014619791
H   H33       1.0  0.92300  0.12950  0.91560  1.0000 0.1106902608
H   H34       1.0  0.07700  0.87050  0.08440  1.0000 0.1106902608
H   H35       1.0  0.89210  0.12920  0.20720  1.0000 0.1183632697
H   H36       1.0  0.10790  0.87080  0.79280  1.0000 0.1183632697
H   H37       1.0  0.85310  0.01320  0.44470  1.0000 0.1289331824
H   H38       1.0  0.14690  0.98680  0.55530  1.0000 0.1289331824
H   H39       1.0  0.04630  0.95650  0.39080  1.0000 0.1106902608
H   H40       1.0  0.95370  0.04350  0.60920  1.0000 0.1106902608
H   H41       1.0  0.10810  0.82060  0.32050  1.0000 0.1289331824
H   H42       1.0  0.89190  0.17940  0.67950  1.0000 0.1289331824
H   H43       1.0  0.98040  0.73800  0.30490  1.0000 0.1106902608
H   H44       1.0  0.01960  0.26200  0.69510  1.0000 0.1106902608
H   H45       1.0  0.79600  0.61940  0.42340  1.0000 0.1014619791
H   H46       1.0  0.20400  0.38060  0.57660  1.0000 0.1014619791
H   H47       1.0  0.58400  0.65700  0.27180  1.0000 0.1106902608
H   H48       1.0  0.41600  0.34300  0.72820  1.0000 0.1106902608
H   H49       1.0  0.70260  0.91590  0.24910  1.0000 0.1289331824
H   H50       1.0  0.29740  0.08410  0.75090  1.0000 0.1289331824
C   C1        1.0  0.56100  0.71870  0.85680  1.0000 0.646865816
C   C2        1.0  0.43900  0.28130  0.14320  1.0000 0.646865816
C   C3        1.0  0.62510  0.61760  0.90910  1.0000 -0.068975402
C   C4        1.0  0.37490  0.38240  0.09090  1.0000 -0.068975402
C   C5        1.0  0.63000  0.52620  0.88800  1.0000 0.0406358252
C   C6        1.0  0.37000  0.47380  0.11200  1.0000 0.0406358252
C   C7        1.0  0.73780  0.43090  0.99750  1.0000 0.0406358252
C   C8        1.0  0.26220  0.56910  0.00250  1.0000 0.0406358252
C   C9        1.0  0.73680  0.51770  0.02550  1.0000 0.0406358252
C   C10       1.0  0.26320  0.48230  0.97450  1.0000 0.0406358252
C   C11       1.0  0.67810  0.61290  0.98000  1.0000 -0.1160497431
C   C12       1.0  0.32190  0.38710  0.02000  1.0000 -0.1160497431
C   C13       1.0  0.80190  0.51160  0.09560  1.0000 0.0592995082
C   C14       1.0  0.19810  0.48840  0.90440  1.0000 0.0592995082
C   C15       1.0  0.87730  0.59020  0.05460  1.0000 -0.1481016814
C   C16       1.0  0.12270  0.40980  0.94540  1.0000 -0.1481016814
C   C17       1.0  0.94410  0.58900  0.11150  1.0000 -0.0805825338
C   C18       1.0  0.05590  0.41100  0.88850  1.0000 -0.0805825338
C   C19       1.0  0.93850  0.51020  0.21020  1.0000 -0.1010383729
C   C20       1.0  0.06150  0.48980  0.78980  1.0000 -0.1010383729
C   C21       1.0  0.86410  0.42970  0.25290  1.0000 -0.1010383729
C   C22       1.0  0.13590  0.57030  0.74710  1.0000 -0.1010383729
C   C23       1.0  0.79530  0.42950  0.19670  1.0000 -0.0805825338
C   C24       1.0  0.20470  0.57050  0.80330  1.0000 -0.0805825338
C   C25       1.0  0.71550  0.34370  0.25030  1.0000 0.5561298142
C   C26       1.0  0.28450  0.65630  0.74970  1.0000 0.5561298142
C   C27       1.0  0.29130  0.02160  0.12310  1.0000 0.5992491256
C   C28       1.0  0.70870  0.97840  0.87690  1.0000 0.5992491256
C   C29       1.0  0.21600  0.09480  0.18210  1.0000 -0.068975402
C   C30       1.0  0.78400  0.90520  0.81790  1.0000 -0.068975402
C   C31       1.0  0.25750  0.11070  0.25120  1.0000 -0.0919484309
C   C32       1.0  0.74250  0.88930  0.74880  1.0000 -0.0919484309
C   C33       1.0  0.19460  0.17460  0.31350  1.0000 -0.0919484309
C   C34       1.0  0.80540  0.82540  0.68650  1.0000 -0.0919484309
C   C35       1.0  0.08970  0.22120  0.30750  1.0000 -0.0919484309
C   C36       1.0  0.91030  0.77880  0.69250  1.0000 -0.0919484309
C   C37       1.0  0.04690  0.20490  0.23920  1.0000 -0.1481016814
C   C38       1.0  0.95310  0.79510  0.76080  1.0000 -0.1481016814
C   C39       1.0  0.10790  0.14080  0.17570  1.0000 0.050451548
C   C40       1.0  0.89210  0.85920  0.82430  1.0000 0.050451548
C   C41       1.0  0.05410  0.13080  0.10410  1.0000 0.0233977746
C   C42       1.0  0.94590  0.86920  0.89590  1.0000 0.0233977746
C   C43       1.0  0.11610  0.13040  0.99900  1.0000 0.031811383
C   C44       1.0  0.88390  0.86960  0.00100  1.0000 0.031811383
C   C45       1.0  0.95660  0.13050  0.96300  1.0000 0.0592995082
C   C46       1.0  0.04340  0.86950  0.03700  1.0000 0.0592995082
C   C47       1.0  0.88620  0.13260  0.06510  1.0000 -0.0805825338
C   C48       1.0  0.11380  0.86740  0.93490  1.0000 -0.0805825338
C   C49       1.0  0.93710  0.13060  0.13690  1.0000 -0.1091267586
C   C50       1.0  0.06290  0.86940  0.86310  1.0000 -0.1091267586
C   C51       1.0  0.75920  0.13740  0.09750  1.0000 0.6565825353
C   C52       1.0  0.24080  0.86260  0.90250  1.0000 0.6565825353
C   C53       1.0  0.67430  0.93510  0.46420  1.0000 0.646865816
C   C54       1.0  0.32570  0.06490  0.53580  1.0000 0.646865816
C   C55       1.0  0.79940  0.90610  0.41160  1.0000 -0.0805825338
C   C56       1.0  0.20060  0.09390  0.58840  1.0000 -0.0805825338
C   C57       1.0  0.87780  0.95680  0.41810  1.0000 -0.1091267586
C   C58       1.0  0.12220  0.04320  0.58190  1.0000 -0.1091267586
C   C59       1.0  0.99400  0.92350  0.38460  1.0000 -0.1010383729
C   C60       1.0  0.00600  0.07650  0.61540  1.0000 -0.1010383729
C   C61       1.0  0.03070  0.84240  0.34300  1.0000 -0.068975402
C   C62       1.0  0.96930  0.15760  0.65700  1.0000 -0.068975402
C   C63       1.0  0.95410  0.79270  0.33400  1.0000 -0.1481016814
C   C64       1.0  0.04590  0.20730  0.66600  1.0000 -0.1481016814
C   C65       1.0  0.83800  0.82280  0.36780  1.0000 0.0592995082
C   C66       1.0  0.16200  0.17720  0.63220  1.0000 0.0592995082
C   C67       1.0  0.76050  0.77490  0.34420  1.0000 0.031811383
C   C68       1.0  0.23950  0.22510  0.65580  1.0000 0.031811383
C   C69       1.0  0.75310  0.66490  0.38000  1.0000 0.031811383
C   C70       1.0  0.24690  0.33510  0.62000  1.0000 0.031811383
C   C71       1.0  0.62860  0.68680  0.29060  1.0000 0.0592995082
C   C72       1.0  0.37140  0.31320  0.70940  1.0000 0.0592995082
C   C73       1.0  0.63070  0.79720  0.25020  1.0000 -0.068975402
C   C74       1.0  0.36930  0.20280  0.74980  1.0000 -0.068975402
C   C75       1.0  0.69850  0.84180  0.27650  1.0000 -0.0919484309
C   C76       1.0  0.30150  0.15820  0.72350  1.0000 -0.0919484309
C   C77       1.0  0.56450  0.86790  0.17670  1.0000 0.6443358074
C   C78       1.0  0.43550  0.13210  0.82330  1.0000 0.6443358074
N   N1        1.0  0.68450  0.43300  0.93150  1.0000 -0.2187769998
N   N2        1.0  0.31550  0.56700  0.06850  1.0000 -0.2187769998
N   N3        1.0  0.07070  0.12980  0.92800  1.0000 -0.252813815
N   N4        1.0  0.92930  0.87020  0.07200  1.0000 -0.252813815
N   N5        1.0  0.68790  0.62030  0.35570  1.0000 -0.2320365001
N   N6        1.0  0.31210  0.37970  0.64430  1.0000 -0.2320365001
O   O1        1.0  0.52570  0.78720  0.90320  1.0000 -0.6864544143
O   O2        1.0  0.47430  0.21280  0.09680  1.0000 -0.6864544143
O   O3        1.0  0.54740  0.72930  0.77060  1.0000 -0.6307305683
O   O4        1.0  0.45260  0.27070  0.22940  1.0000 -0.6307305683
O   O5        1.0  0.62090  0.36120  0.23470  1.0000 -0.6023493399
O   O6        1.0  0.37910  0.63880  0.76530  1.0000 -0.6023493399
O   O7        1.0  0.74140  0.25200  0.31300  1.0000 -0.6023493399
O   O8        1.0  0.25860  0.74800  0.68700  1.0000 -0.6023493399
O   O9        1.0  0.39230  0.04530  0.06170  1.0000 -0.7202243497
O   O10       1.0  0.60770  0.95470  0.93830  1.0000 -0.7202243497
O   O11       1.0  0.25710  0.93790  0.13390  1.0000 -0.5808085789
O   O12       1.0  0.74290  0.06210  0.86610  1.0000 -0.5808085789
O   O13       1.0  0.69930  0.14000  0.19100  1.0000 -0.6782986511
O   O14       1.0  0.30070  0.86000  0.80900  1.0000 -0.6782986511
O   O15       1.0  0.71990  0.14140  0.02780  1.0000 -0.6429510106
O   O16       1.0  0.28010  0.85860  0.97220  1.0000 -0.6429510106
O   O17       1.0  0.61150  0.85950  0.52410  1.0000 -0.6242337216
O   O18       1.0  0.38850  0.14050  0.47590  1.0000 -0.6242337216
O   O19       1.0  0.64280  0.03350  0.44960  1.0000 -0.6782986511
O   O20       1.0  0.35720  0.96650  0.55040  1.0000 -0.6782986511
O   O21       1.0  0.57020  0.96860  0.14640  1.0000 -0.6429510106
O   O22       1.0  0.42980  0.03140  0.85360  1.0000 -0.6429510106
O   O23       1.0  0.50790  0.82440  0.15080  1.0000 -0.6582949151
O   O24       1.0  0.49210  0.17560  0.84920  1.0000 -0.6582949151
O   O25       1.0  0.36980  0.70950  0.13350  1.0000 -0.7795498063
O   O26       1.0  0.63020  0.29050  0.86650  1.0000 -0.7795498063
O   O27       1.0  0.47730  0.73980  0.52930  1.0000 -0.7104389359
O   O28       1.0  0.52270  0.26020  0.47070  1.0000 -0.7104389359
