# DDEC6 charges by PACMAN v1.1 (https://github.com/mtap-research/PACMAN-charge/)
data_2013[Zr][reo]3[ASR]1
_chemical_formula_sum              "Zr36 H48 C144 S24 O144"
_cell_length_a       27.6549
_cell_length_b       27.6549
_cell_length_c       27.6549
_cell_angle_alpha    60
_cell_angle_beta     60
_cell_angle_gamma    60

_symmetry_space_group_name_H-M    "P 1"
_symmetry_Int_Tables_number       1

loop_
  _symmetry_equiv_pos_as_xyz
  'x, y, z'

loop_
  _atom_site_type_symbol
  _atom_site_label
  _atom_site_symmetry_multiplicity
  _atom_site_fract_x
  _atom_site_fract_y
  _atom_site_fract_z
  _atom_site_occupancy
  _atom_site_charge
Zr  Zr1       1.0  0.10883  0.98179  0.45469  1.0000 2.4278166292
Zr  Zr2       1.0  0.98179  0.10883  0.45469  1.0000 2.4230406382
Zr  Zr3       1.0  0.45469  0.45469  0.10883  1.0000 2.4278166292
Zr  Zr4       1.0  0.45469  0.45469  0.98179  1.0000 2.4230406382
Zr  Zr5       1.0  0.45469  0.10883  0.98179  1.0000 2.4230406382
Zr  Zr6       1.0  0.45469  0.98179  0.10883  1.0000 2.4278166292
Zr  Zr7       1.0  0.10883  0.45469  0.45469  1.0000 2.4230406382
Zr  Zr8       1.0  0.98179  0.45469  0.45469  1.0000 2.4230406382
Zr  Zr9       1.0  0.98179  0.45469  0.10883  1.0000 2.4230406382
Zr  Zr10      1.0  0.10883  0.45469  0.98179  1.0000 2.4230406382
Zr  Zr11      1.0  0.45469  0.10883  0.45469  1.0000 2.4230406382
Zr  Zr12      1.0  0.45469  0.98179  0.45469  1.0000 2.4278166292
Zr  Zr13      1.0  0.89117  0.01821  0.54531  1.0000 2.4230406382
Zr  Zr14      1.0  0.01821  0.89117  0.54531  1.0000 2.4230406382
Zr  Zr15      1.0  0.54531  0.54531  0.01821  1.0000 2.4230406382
Zr  Zr16      1.0  0.54531  0.54531  0.89117  1.0000 2.4230406382
Zr  Zr17      1.0  0.54531  0.89117  0.54531  1.0000 2.4230406382
Zr  Zr18      1.0  0.54531  0.01821  0.54531  1.0000 2.4230406382
Zr  Zr19      1.0  0.89117  0.54531  0.01821  1.0000 2.4230406382
Zr  Zr20      1.0  0.01821  0.54531  0.89117  1.0000 2.4230406382
Zr  Zr21      1.0  0.01821  0.54531  0.54531  1.0000 2.4278166292
Zr  Zr22      1.0  0.89117  0.54531  0.54531  1.0000 2.4278166292
Zr  Zr23      1.0  0.54531  0.89117  0.01821  1.0000 2.4278166292
Zr  Zr24      1.0  0.54531  0.01821  0.89117  1.0000 2.4230406382
Zr  Zr25      1.0  0.00000  1.00000  0.41066  1.0000 2.3207059586
Zr  Zr26      1.0  0.00000  0.00000  0.58934  1.0000 2.3141483236
Zr  Zr27      1.0  0.41066  0.58934  0.00000  1.0000 2.3141483236
Zr  Zr28      1.0  0.58934  0.41066  0.00000  1.0000 2.3141483236
Zr  Zr29      1.0  0.41066  0.00000  0.00000  1.0000 2.3207059586
Zr  Zr30      1.0  0.58934  0.00000  0.00000  1.0000 2.3207059586
Zr  Zr31      1.0  0.00000  0.41066  0.58934  1.0000 2.3141483236
Zr  Zr32      1.0  0.00000  0.58934  0.41066  1.0000 2.3207059586
Zr  Zr33      1.0  0.00000  0.41066  0.00000  1.0000 2.3207059586
Zr  Zr34      1.0  0.00000  0.58934  0.00000  1.0000 2.3141483236
Zr  Zr35      1.0  0.58934  1.00000  0.41066  1.0000 2.3207059586
Zr  Zr36      1.0  0.41066  0.00000  0.58934  1.0000 2.3207059586
H   H1        1.0  0.99040  0.13260  0.22100  1.0000 0.1202162899
H   H2        1.0  0.13260  0.99040  0.65600  1.0000 0.1202162899
H   H3        1.0  0.22100  0.65600  0.99040  1.0000 0.1202162899
H   H4        1.0  0.65600  0.22100  0.13260  1.0000 0.1202162899
H   H5        1.0  0.22100  0.99040  0.13260  1.0000 0.1202162899
H   H6        1.0  0.65600  0.13260  0.99040  1.0000 0.1202162899
H   H7        1.0  0.99040  0.22100  0.65600  1.0000 0.1202162899
H   H8        1.0  0.13260  0.65600  0.22100  1.0000 0.1202162899
H   H9        1.0  0.13260  0.22100  0.99040  1.0000 0.1202162899
H   H10       1.0  0.99040  0.65600  0.13260  1.0000 0.1202162899
H   H11       1.0  0.65600  0.99040  0.22100  1.0000 0.1202162899
H   H12       1.0  0.22100  0.13260  0.65600  1.0000 0.1202162899
H   H13       1.0  0.00960  0.86740  0.34400  1.0000 0.1202162899
H   H14       1.0  0.86740  0.00960  0.77900  1.0000 0.1202162899
H   H15       1.0  0.77900  0.34400  0.86740  1.0000 0.1202162899
H   H16       1.0  0.34400  0.77900  0.00960  1.0000 0.1202162899
H   H17       1.0  0.77900  0.00960  0.34400  1.0000 0.1202162899
H   H18       1.0  0.34400  0.86740  0.77900  1.0000 0.1202162899
H   H19       1.0  0.00960  0.77900  0.86740  1.0000 0.1202162899
H   H20       1.0  0.86740  0.34400  0.00960  1.0000 0.1202162899
H   H21       1.0  0.86740  0.77900  0.34400  1.0000 0.1202162899
H   H22       1.0  0.00960  0.34400  0.77900  1.0000 0.1202162899
H   H23       1.0  0.34400  0.00960  0.86740  1.0000 0.1202162899
H   H24       1.0  0.77900  0.86740  0.00960  1.0000 0.1202162899
H   H25       1.0  0.00960  0.86740  0.77900  1.0000 0.1202162899
H   H26       1.0  0.86740  0.00960  0.34400  1.0000 0.1202162899
H   H27       1.0  0.77900  0.34400  0.00960  1.0000 0.1202162899
H   H28       1.0  0.34400  0.77900  0.86740  1.0000 0.1202162899
H   H29       1.0  0.77900  0.00960  0.86740  1.0000 0.1202162899
H   H30       1.0  0.34400  0.86740  0.00960  1.0000 0.1202162899
H   H31       1.0  0.00960  0.77900  0.34400  1.0000 0.1202162899
H   H32       1.0  0.86740  0.34400  0.77900  1.0000 0.1202162899
H   H33       1.0  0.86740  0.77900  0.00960  1.0000 0.1202162899
H   H34       1.0  0.00960  0.34400  0.86740  1.0000 0.1202162899
H   H35       1.0  0.34400  0.00960  0.77900  1.0000 0.1202162899
H   H36       1.0  0.77900  0.86740  0.34400  1.0000 0.1202162899
H   H37       1.0  0.99040  0.13260  0.65600  1.0000 0.1202162899
H   H38       1.0  0.13260  0.99040  0.22100  1.0000 0.1202162899
H   H39       1.0  0.22100  0.65600  0.13260  1.0000 0.1202162899
H   H40       1.0  0.65600  0.22100  0.99040  1.0000 0.1202162899
H   H41       1.0  0.22100  0.99040  0.65600  1.0000 0.1202162899
H   H42       1.0  0.65600  0.13260  0.22100  1.0000 0.1202162899
H   H43       1.0  0.99040  0.22100  0.13260  1.0000 0.1202162899
H   H44       1.0  0.13260  0.65600  0.99040  1.0000 0.1202162899
H   H45       1.0  0.13260  0.22100  0.65600  1.0000 0.1202162899
H   H46       1.0  0.99040  0.65600  0.22100  1.0000 0.1202162899
H   H47       1.0  0.65600  0.99040  0.13260  1.0000 0.1202162899
H   H48       1.0  0.22100  0.13260  0.99040  1.0000 0.1202162899
C   C1        1.0  0.98029  0.13463  0.32629  1.0000 0.6376207217
C   C2        1.0  0.13463  0.98029  0.55879  1.0000 0.6376207217
C   C3        1.0  0.32629  0.55879  0.98029  1.0000 0.6376207217
C   C4        1.0  0.55879  0.32629  0.13463  1.0000 0.6376207217
C   C5        1.0  0.32629  0.98029  0.13463  1.0000 0.6376207217
C   C6        1.0  0.55879  0.13463  0.98029  1.0000 0.6376207217
C   C7        1.0  0.98029  0.32629  0.55879  1.0000 0.6376207217
C   C8        1.0  0.13463  0.55879  0.32629  1.0000 0.6376207217
C   C9        1.0  0.13463  0.32629  0.98029  1.0000 0.6376207217
C   C10       1.0  0.98029  0.55879  0.13463  1.0000 0.6376207217
C   C11       1.0  0.55879  0.98029  0.32629  1.0000 0.6376207217
C   C12       1.0  0.32629  0.13463  0.55879  1.0000 0.6376207217
C   C13       1.0  0.01971  0.86537  0.44121  1.0000 0.6376207217
C   C14       1.0  0.86537  0.01971  0.67371  1.0000 0.6376207217
C   C15       1.0  0.67371  0.44121  0.86537  1.0000 0.6376207217
C   C16       1.0  0.44121  0.67371  0.01971  1.0000 0.6376207217
C   C17       1.0  0.67371  0.01971  0.44121  1.0000 0.6376207217
C   C18       1.0  0.44121  0.86537  0.67371  1.0000 0.6376207217
C   C19       1.0  0.01971  0.67371  0.86537  1.0000 0.6376207217
C   C20       1.0  0.86537  0.44121  0.01971  1.0000 0.6376207217
C   C21       1.0  0.86537  0.67371  0.44121  1.0000 0.6376207217
C   C22       1.0  0.01971  0.44121  0.67371  1.0000 0.6376207217
C   C23       1.0  0.44121  0.01971  0.86537  1.0000 0.6376207217
C   C24       1.0  0.67371  0.86537  0.01971  1.0000 0.6376207217
C   C25       1.0  0.01971  0.86537  0.67371  1.0000 0.6376207217
C   C26       1.0  0.86537  0.01971  0.44121  1.0000 0.6376207217
C   C27       1.0  0.67371  0.44121  0.01971  1.0000 0.6376207217
C   C28       1.0  0.44121  0.67371  0.86537  1.0000 0.6376207217
C   C29       1.0  0.67371  0.01971  0.86537  1.0000 0.6376207217
C   C30       1.0  0.44121  0.86537  0.01971  1.0000 0.6376207217
C   C31       1.0  0.01971  0.67371  0.44121  1.0000 0.6376207217
C   C32       1.0  0.86537  0.44121  0.67371  1.0000 0.6376207217
C   C33       1.0  0.86537  0.67371  0.01971  1.0000 0.6376207217
C   C34       1.0  0.01971  0.44121  0.86537  1.0000 0.6376207217
C   C35       1.0  0.44121  0.01971  0.67371  1.0000 0.6376207217
C   C36       1.0  0.67371  0.86537  0.44121  1.0000 0.6376207217
C   C37       1.0  0.98029  0.13463  0.55879  1.0000 0.6376207217
C   C38       1.0  0.13463  0.98029  0.32629  1.0000 0.6376207217
C   C39       1.0  0.32629  0.55879  0.13463  1.0000 0.6376207217
C   C40       1.0  0.55879  0.32629  0.98029  1.0000 0.6376207217
C   C41       1.0  0.32629  0.98029  0.55879  1.0000 0.6376207217
C   C42       1.0  0.55879  0.13463  0.32629  1.0000 0.6376207217
C   C43       1.0  0.98029  0.32629  0.13463  1.0000 0.6376207217
C   C44       1.0  0.13463  0.55879  0.98029  1.0000 0.6376207217
C   C45       1.0  0.13463  0.32629  0.55879  1.0000 0.6376207217
C   C46       1.0  0.98029  0.55879  0.32629  1.0000 0.6376207217
C   C47       1.0  0.55879  0.98029  0.13463  1.0000 0.6376207217
C   C48       1.0  0.32629  0.13463  0.98029  1.0000 0.6376207217
C   C49       1.0  0.98043  0.17799  0.26629  1.0000 -0.1608325153
C   C50       1.0  0.17799  0.98043  0.57529  1.0000 -0.1608325153
C   C51       1.0  0.26629  0.57529  0.98043  1.0000 -0.1608325153
C   C52       1.0  0.57529  0.26629  0.17799  1.0000 -0.1608325153
C   C53       1.0  0.26629  0.98043  0.17799  1.0000 -0.1608325153
C   C54       1.0  0.57529  0.17799  0.98043  1.0000 -0.1608325153
C   C55       1.0  0.98043  0.26629  0.57529  1.0000 -0.1608325153
C   C56       1.0  0.17799  0.57529  0.26629  1.0000 -0.1608325153
C   C57       1.0  0.17799  0.26629  0.98043  1.0000 -0.1608325153
C   C58       1.0  0.98043  0.57529  0.17799  1.0000 -0.1608325153
C   C59       1.0  0.57529  0.98043  0.26629  1.0000 -0.1608325153
C   C60       1.0  0.26629  0.17799  0.57529  1.0000 -0.1608325153
C   C61       1.0  0.01957  0.82201  0.42471  1.0000 -0.1608325153
C   C62       1.0  0.82201  0.01957  0.73371  1.0000 -0.1608325153
C   C63       1.0  0.73371  0.42471  0.82201  1.0000 -0.1608325153
C   C64       1.0  0.42471  0.73371  0.01957  1.0000 -0.1608325153
C   C65       1.0  0.73371  0.01957  0.42471  1.0000 -0.1608325153
C   C66       1.0  0.42471  0.82201  0.73371  1.0000 -0.1608325153
C   C67       1.0  0.01957  0.73371  0.82201  1.0000 -0.1608325153
C   C68       1.0  0.82201  0.42471  0.01957  1.0000 -0.1608325153
C   C69       1.0  0.82201  0.73371  0.42471  1.0000 -0.1608325153
C   C70       1.0  0.01957  0.42471  0.73371  1.0000 -0.1608325153
C   C71       1.0  0.42471  0.01957  0.82201  1.0000 -0.1608325153
C   C72       1.0  0.73371  0.82201  0.01957  1.0000 -0.1608325153
C   C73       1.0  0.01957  0.82201  0.73371  1.0000 -0.1608325153
C   C74       1.0  0.82201  0.01957  0.42471  1.0000 -0.1608325153
C   C75       1.0  0.73371  0.42471  0.01957  1.0000 -0.1608325153
C   C76       1.0  0.42471  0.73371  0.82201  1.0000 -0.1608325153
C   C77       1.0  0.73371  0.01957  0.82201  1.0000 -0.1608325153
C   C78       1.0  0.42471  0.82201  0.01957  1.0000 -0.1608325153
C   C79       1.0  0.01957  0.73371  0.42471  1.0000 -0.1608325153
C   C80       1.0  0.82201  0.42471  0.73371  1.0000 -0.1608325153
C   C81       1.0  0.82201  0.73371  0.01957  1.0000 -0.1608325153
C   C82       1.0  0.01957  0.42471  0.82201  1.0000 -0.1608325153
C   C83       1.0  0.42471  0.01957  0.73371  1.0000 -0.1608325153
C   C84       1.0  0.73371  0.82201  0.42471  1.0000 -0.1608325153
C   C85       1.0  0.98043  0.17799  0.57529  1.0000 -0.1608325153
C   C86       1.0  0.17799  0.98043  0.26629  1.0000 -0.1608325153
C   C87       1.0  0.26629  0.57529  0.17799  1.0000 -0.1608325153
C   C88       1.0  0.57529  0.26629  0.98043  1.0000 -0.1608325153
C   C89       1.0  0.26629  0.98043  0.57529  1.0000 -0.1608325153
C   C90       1.0  0.57529  0.17799  0.26629  1.0000 -0.1608325153
C   C91       1.0  0.98043  0.26629  0.17799  1.0000 -0.1608325153
C   C92       1.0  0.17799  0.57529  0.98043  1.0000 -0.1608325153
C   C93       1.0  0.17799  0.26629  0.57529  1.0000 -0.1608325153
C   C94       1.0  0.98043  0.57529  0.26629  1.0000 -0.1608325153
C   C95       1.0  0.57529  0.98043  0.17799  1.0000 -0.1608325153
C   C96       1.0  0.26629  0.17799  0.98043  1.0000 -0.1608325153
C   C97       1.0  0.98660  0.16860  0.21960  1.0000 -0.1141298261
C   C98       1.0  0.16860  0.98660  0.62520  1.0000 -0.1141298261
C   C99       1.0  0.21960  0.62520  0.98660  1.0000 -0.1141298261
C   C100      1.0  0.62520  0.21960  0.16860  1.0000 -0.1141298261
C   C101      1.0  0.21960  0.98660  0.16860  1.0000 -0.1141298261
C   C102      1.0  0.62520  0.16860  0.98660  1.0000 -0.1141298261
C   C103      1.0  0.98660  0.21960  0.62520  1.0000 -0.1141298261
C   C104      1.0  0.16860  0.62520  0.21960  1.0000 -0.1141298261
C   C105      1.0  0.16860  0.21960  0.98660  1.0000 -0.1141298261
C   C106      1.0  0.98660  0.62520  0.16860  1.0000 -0.1141298261
C   C107      1.0  0.62520  0.98660  0.21960  1.0000 -0.1141298261
C   C108      1.0  0.21960  0.16860  0.62520  1.0000 -0.1141298261
C   C109      1.0  0.01340  0.83140  0.37480  1.0000 -0.115864384
C   C110      1.0  0.83140  0.01340  0.78040  1.0000 -0.1141298261
C   C111      1.0  0.78040  0.37480  0.83140  1.0000 -0.115864384
C   C112      1.0  0.37480  0.78040  0.01340  1.0000 -0.1141298261
C   C113      1.0  0.78040  0.01340  0.37480  1.0000 -0.1141298261
C   C114      1.0  0.37480  0.83140  0.78040  1.0000 -0.115864384
C   C115      1.0  0.01340  0.78040  0.83140  1.0000 -0.115864384
C   C116      1.0  0.83140  0.37480  0.01340  1.0000 -0.1141298261
C   C117      1.0  0.83140  0.78040  0.37480  1.0000 -0.115864384
C   C118      1.0  0.01340  0.37480  0.78040  1.0000 -0.1141298261
C   C119      1.0  0.37480  0.01340  0.83140  1.0000 -0.1141298261
C   C120      1.0  0.78040  0.83140  0.01340  1.0000 -0.1141298261
C   C121      1.0  0.01340  0.83140  0.78040  1.0000 -0.115864384
C   C122      1.0  0.83140  0.01340  0.37480  1.0000 -0.1141298261
C   C123      1.0  0.78040  0.37480  0.01340  1.0000 -0.1141298261
C   C124      1.0  0.37480  0.78040  0.83140  1.0000 -0.1141298261
C   C125      1.0  0.78040  0.01340  0.83140  1.0000 -0.1141298261
C   C126      1.0  0.37480  0.83140  0.01340  1.0000 -0.1141298261
C   C127      1.0  0.01340  0.78040  0.37480  1.0000 -0.1141298261
C   C128      1.0  0.83140  0.37480  0.78040  1.0000 -0.1141298261
C   C129      1.0  0.83140  0.78040  0.01340  1.0000 -0.1141298261
C   C130      1.0  0.01340  0.37480  0.83140  1.0000 -0.115864384
C   C131      1.0  0.37480  0.01340  0.78040  1.0000 -0.1141298261
C   C132      1.0  0.78040  0.83140  0.37480  1.0000 -0.115864384
C   C133      1.0  0.98660  0.16860  0.62520  1.0000 -0.1141298261
C   C134      1.0  0.16860  0.98660  0.21960  1.0000 -0.1141298261
C   C135      1.0  0.21960  0.62520  0.16860  1.0000 -0.1141298261
C   C136      1.0  0.62520  0.21960  0.98660  1.0000 -0.115864384
C   C137      1.0  0.21960  0.98660  0.62520  1.0000 -0.1141298261
C   C138      1.0  0.62520  0.16860  0.21960  1.0000 -0.1141298261
C   C139      1.0  0.98660  0.21960  0.16860  1.0000 -0.1141298261
C   C140      1.0  0.16860  0.62520  0.98660  1.0000 -0.115864384
C   C141      1.0  0.16860  0.21960  0.62520  1.0000 -0.1141298261
C   C142      1.0  0.98660  0.62520  0.21960  1.0000 -0.1141298261
C   C143      1.0  0.62520  0.98660  0.16860  1.0000 -0.115864384
C   C144      1.0  0.21960  0.16860  0.98660  1.0000 -0.1141298261
S   S1        1.0  0.97496  0.24868  0.24868  1.0000 0.197368199
S   S2        1.0  0.24868  0.97496  0.52768  1.0000 0.2068570424
S   S3        1.0  0.24868  0.52768  0.97496  1.0000 0.192614317
S   S4        1.0  0.52768  0.24868  0.24868  1.0000 0.192614317
S   S5        1.0  0.24868  0.97496  0.24868  1.0000 0.192614317
S   S6        1.0  0.52768  0.24868  0.97496  1.0000 0.197368199
S   S7        1.0  0.97496  0.24868  0.52768  1.0000 0.197368199
S   S8        1.0  0.24868  0.52768  0.24868  1.0000 0.192614317
S   S9        1.0  0.24868  0.24868  0.97496  1.0000 0.192614317
S   S10       1.0  0.97496  0.52768  0.24868  1.0000 0.197368199
S   S11       1.0  0.52768  0.97496  0.24868  1.0000 0.192614317
S   S12       1.0  0.24868  0.24868  0.52768  1.0000 0.2068570424
S   S13       1.0  0.02504  0.75132  0.47232  1.0000 0.192614317
S   S14       1.0  0.75132  0.02504  0.75132  1.0000 0.192614317
S   S15       1.0  0.75132  0.47232  0.75132  1.0000 0.192614317
S   S16       1.0  0.47232  0.75132  0.02504  1.0000 0.192614317
S   S17       1.0  0.75132  0.02504  0.47232  1.0000 0.197368199
S   S18       1.0  0.47232  0.75132  0.75132  1.0000 0.192614317
S   S19       1.0  0.02504  0.75132  0.75132  1.0000 0.192614317
S   S20       1.0  0.75132  0.47232  0.02504  1.0000 0.192614317
S   S21       1.0  0.75132  0.75132  0.47232  1.0000 0.192614317
S   S22       1.0  0.02504  0.47232  0.75132  1.0000 0.192614317
S   S23       1.0  0.47232  0.02504  0.75132  1.0000 0.192614317
S   S24       1.0  0.75132  0.75132  0.02504  1.0000 0.197368199
O   O1        1.0  0.98564  0.08296  0.33540  1.0000 -0.5879535979
O   O2        1.0  0.08296  0.98564  0.59600  1.0000 -0.5879535979
O   O3        1.0  0.33540  0.59600  0.98564  1.0000 -0.5879535979
O   O4        1.0  0.59600  0.33540  0.08296  1.0000 -0.5879535979
O   O5        1.0  0.33540  0.98564  0.08296  1.0000 -0.5879535979
O   O6        1.0  0.59600  0.08296  0.98564  1.0000 -0.5879535979
O   O7        1.0  0.98564  0.33540  0.59600  1.0000 -0.5879535979
O   O8        1.0  0.08296  0.59600  0.33540  1.0000 -0.5879535979
O   O9        1.0  0.08296  0.33540  0.98564  1.0000 -0.5879535979
O   O10       1.0  0.98564  0.59600  0.08296  1.0000 -0.5879535979
O   O11       1.0  0.59600  0.98564  0.33540  1.0000 -0.5879535979
O   O12       1.0  0.33540  0.08296  0.59600  1.0000 -0.5879535979
O   O13       1.0  0.01436  0.91704  0.40400  1.0000 -0.5879535979
O   O14       1.0  0.91704  0.01436  0.66460  1.0000 -0.5879535979
O   O15       1.0  0.66460  0.40400  0.91704  1.0000 -0.5879535979
O   O16       1.0  0.40400  0.66460  0.01436  1.0000 -0.5879535979
O   O17       1.0  0.66460  0.01436  0.40400  1.0000 -0.5879535979
O   O18       1.0  0.40400  0.91704  0.66460  1.0000 -0.5879535979
O   O19       1.0  0.01436  0.66460  0.91704  1.0000 -0.5879535979
O   O20       1.0  0.91704  0.40400  0.01436  1.0000 -0.5879535979
O   O21       1.0  0.91704  0.66460  0.40400  1.0000 -0.5879535979
O   O22       1.0  0.01436  0.40400  0.66460  1.0000 -0.5879535979
O   O23       1.0  0.40400  0.01436  0.91704  1.0000 -0.5879535979
O   O24       1.0  0.66460  0.91704  0.01436  1.0000 -0.5879535979
O   O25       1.0  0.01436  0.91704  0.66460  1.0000 -0.5879535979
O   O26       1.0  0.91704  0.01436  0.40400  1.0000 -0.5879535979
O   O27       1.0  0.66460  0.40400  0.01436  1.0000 -0.5879535979
O   O28       1.0  0.40400  0.66460  0.91704  1.0000 -0.5879535979
O   O29       1.0  0.66460  0.01436  0.91704  1.0000 -0.5879535979
O   O30       1.0  0.40400  0.91704  0.01436  1.0000 -0.5879535979
O   O31       1.0  0.01436  0.66460  0.40400  1.0000 -0.5879535979
O   O32       1.0  0.91704  0.40400  0.66460  1.0000 -0.5879535979
O   O33       1.0  0.91704  0.66460  0.01436  1.0000 -0.5879535979
O   O34       1.0  0.01436  0.40400  0.91704  1.0000 -0.5879535979
O   O35       1.0  0.40400  0.01436  0.66460  1.0000 -0.5879535979
O   O36       1.0  0.66460  0.91704  0.40400  1.0000 -0.5879535979
O   O37       1.0  0.98564  0.08296  0.59600  1.0000 -0.5879535979
O   O38       1.0  0.08296  0.98564  0.33540  1.0000 -0.5879535979
O   O39       1.0  0.33540  0.59600  0.08296  1.0000 -0.5879535979
O   O40       1.0  0.59600  0.33540  0.98564  1.0000 -0.5879535979
O   O41       1.0  0.33540  0.98564  0.59600  1.0000 -0.5879535979
O   O42       1.0  0.59600  0.08296  0.33540  1.0000 -0.5879535979
O   O43       1.0  0.98564  0.33540  0.08296  1.0000 -0.5879535979
O   O44       1.0  0.08296  0.59600  0.98564  1.0000 -0.5879535979
O   O45       1.0  0.08296  0.33540  0.59600  1.0000 -0.5879535979
O   O46       1.0  0.98564  0.59600  0.33540  1.0000 -0.5879535979
O   O47       1.0  0.59600  0.98564  0.08296  1.0000 -0.5879535979
O   O48       1.0  0.33540  0.08296  0.98564  1.0000 -0.5879535979
O   O49       1.0  0.04380  0.04380  0.41370  1.0000 -1.1598130787
O   O50       1.0  0.04380  0.04380  0.49870  1.0000 -1.1598130787
O   O51       1.0  0.41370  0.49870  0.04380  1.0000 -1.1598130787
O   O52       1.0  0.49870  0.41370  0.04380  1.0000 -1.1598130787
O   O53       1.0  0.41370  0.04380  0.04380  1.0000 -1.1598130787
O   O54       1.0  0.49870  0.04380  0.04380  1.0000 -1.1598130787
O   O55       1.0  0.04380  0.41370  0.49870  1.0000 -1.1598130787
O   O56       1.0  0.04380  0.49870  0.41370  1.0000 -1.1598130787
O   O57       1.0  0.04380  0.41370  0.04380  1.0000 -1.1598130787
O   O58       1.0  0.04380  0.49870  0.04380  1.0000 -1.1598130787
O   O59       1.0  0.49870  0.04380  0.41370  1.0000 -1.1598130787
O   O60       1.0  0.41370  0.04380  0.49870  1.0000 -1.1598130787
O   O61       1.0  0.95620  0.95620  0.50130  1.0000 -1.1598130787
O   O62       1.0  0.95620  0.95620  0.58630  1.0000 -1.1598130787
O   O63       1.0  0.58630  0.50130  0.95620  1.0000 -1.1598130787
O   O64       1.0  0.50130  0.58630  0.95620  1.0000 -1.1598130787
O   O65       1.0  0.58630  0.95620  0.50130  1.0000 -1.1598130787
O   O66       1.0  0.50130  0.95620  0.58630  1.0000 -1.1598130787
O   O67       1.0  0.95620  0.58630  0.95620  1.0000 -1.1598130787
O   O68       1.0  0.95620  0.50130  0.95620  1.0000 -1.1598130787
O   O69       1.0  0.95620  0.58630  0.50130  1.0000 -1.1598130787
O   O70       1.0  0.95620  0.50130  0.58630  1.0000 -1.1598130787
O   O71       1.0  0.50130  0.95620  0.95620  1.0000 -1.1598130787
O   O72       1.0  0.58630  0.95620  0.95620  1.0000 -1.1598130787
O   O73       1.0  0.97598  0.15288  0.36218  1.0000 -0.6221309757
O   O74       1.0  0.15288  0.97598  0.50896  1.0000 -0.6221309757
O   O75       1.0  0.36218  0.50896  0.97598  1.0000 -0.6221309757
O   O76       1.0  0.50896  0.36218  0.15288  1.0000 -0.6221309757
O   O77       1.0  0.36218  0.97598  0.15288  1.0000 -0.6221309757
O   O78       1.0  0.50896  0.15288  0.97598  1.0000 -0.6221309757
O   O79       1.0  0.97598  0.36218  0.50896  1.0000 -0.6221309757
O   O80       1.0  0.15288  0.50896  0.36218  1.0000 -0.6221309757
O   O81       1.0  0.15288  0.36218  0.97598  1.0000 -0.6221309757
O   O82       1.0  0.97598  0.50896  0.15288  1.0000 -0.6221309757
O   O83       1.0  0.50896  0.97598  0.36218  1.0000 -0.6221309757
O   O84       1.0  0.36218  0.15288  0.50896  1.0000 -0.6221309757
O   O85       1.0  0.02402  0.84712  0.49104  1.0000 -0.6221309757
O   O86       1.0  0.84712  0.02402  0.63782  1.0000 -0.6221309757
O   O87       1.0  0.63782  0.49104  0.84712  1.0000 -0.6221309757
O   O88       1.0  0.49104  0.63782  0.02402  1.0000 -0.6221309757
O   O89       1.0  0.63782  0.02402  0.49104  1.0000 -0.6221309757
O   O90       1.0  0.49104  0.84712  0.63782  1.0000 -0.6221309757
O   O91       1.0  0.02402  0.63782  0.84712  1.0000 -0.6221309757
O   O92       1.0  0.84712  0.49104  0.02402  1.0000 -0.6221309757
O   O93       1.0  0.84712  0.63782  0.49104  1.0000 -0.6221309757
O   O94       1.0  0.02402  0.49104  0.63782  1.0000 -0.6221309757
O   O95       1.0  0.49104  0.02402  0.84712  1.0000 -0.6221309757
O   O96       1.0  0.63782  0.84712  0.02402  1.0000 -0.6221309757
O   O97       1.0  0.02402  0.84712  0.63782  1.0000 -0.6221309757
O   O98       1.0  0.84712  0.02402  0.49104  1.0000 -0.6221309757
O   O99       1.0  0.63782  0.49104  0.02402  1.0000 -0.6221309757
O   O100      1.0  0.49104  0.63782  0.84712  1.0000 -0.6221309757
O   O101      1.0  0.63782  0.02402  0.84712  1.0000 -0.6221309757
O   O102      1.0  0.49104  0.84712  0.02402  1.0000 -0.6221309757
O   O103      1.0  0.02402  0.63782  0.49104  1.0000 -0.6221309757
O   O104      1.0  0.84712  0.49104  0.63782  1.0000 -0.6221309757
O   O105      1.0  0.84712  0.63782  0.02402  1.0000 -0.6221309757
O   O106      1.0  0.02402  0.49104  0.84712  1.0000 -0.6221309757
O   O107      1.0  0.49104  0.02402  0.63782  1.0000 -0.6221309757
O   O108      1.0  0.63782  0.84712  0.49104  1.0000 -0.6221309757
O   O109      1.0  0.97598  0.15288  0.50896  1.0000 -0.6221309757
O   O110      1.0  0.15288  0.97598  0.36218  1.0000 -0.6221309757
O   O111      1.0  0.36218  0.50896  0.15288  1.0000 -0.6221309757
O   O112      1.0  0.50896  0.36218  0.97598  1.0000 -0.6221309757
O   O113      1.0  0.36218  0.97598  0.50896  1.0000 -0.6221309757
O   O114      1.0  0.50896  0.15288  0.36218  1.0000 -0.6221309757
O   O115      1.0  0.97598  0.36218  0.15288  1.0000 -0.6221309757
O   O116      1.0  0.15288  0.50896  0.97598  1.0000 -0.6221309757
O   O117      1.0  0.15288  0.36218  0.50896  1.0000 -0.6221309757
O   O118      1.0  0.97598  0.50896  0.36218  1.0000 -0.6221309757
O   O119      1.0  0.50896  0.97598  0.15288  1.0000 -0.6221309757
O   O120      1.0  0.36218  0.15288  0.97598  1.0000 -0.6221309757
O   O121      1.0  0.06356  0.93644  0.54344  1.0000 -1.1659316253
O   O122      1.0  0.93644  0.06356  0.45656  1.0000 -1.1598130787
O   O123      1.0  0.54344  0.45656  0.06356  1.0000 -1.1659316253
O   O124      1.0  0.45656  0.54344  0.93644  1.0000 -1.1598130787
O   O125      1.0  0.54344  0.06356  0.93644  1.0000 -1.1659316253
O   O126      1.0  0.45656  0.93644  0.06356  1.0000 -1.1659316253
O   O127      1.0  0.06356  0.54344  0.45656  1.0000 -1.1659316253
O   O128      1.0  0.93644  0.45656  0.54344  1.0000 -1.1598130787
O   O129      1.0  0.93644  0.54344  0.06356  1.0000 -1.1659316253
O   O130      1.0  0.06356  0.45656  0.93644  1.0000 -1.1659316253
O   O131      1.0  0.45656  0.06356  0.54344  1.0000 -1.1598130787
O   O132      1.0  0.54344  0.93644  0.45656  1.0000 -1.1659316253
O   O133      1.0  0.93644  0.06356  0.54344  1.0000 -1.1598130787
O   O134      1.0  0.06356  0.93644  0.45656  1.0000 -1.1598130787
O   O135      1.0  0.45656  0.54344  0.06356  1.0000 -1.1659316253
O   O136      1.0  0.54344  0.45656  0.93644  1.0000 -1.1659316253
O   O137      1.0  0.45656  0.93644  0.54344  1.0000 -1.1598130787
O   O138      1.0  0.54344  0.06356  0.45656  1.0000 -1.1598130787
O   O139      1.0  0.93644  0.45656  0.06356  1.0000 -1.1659316253
O   O140      1.0  0.06356  0.54344  0.93644  1.0000 -1.1659316253
O   O141      1.0  0.06356  0.45656  0.54344  1.0000 -1.1598130787
O   O142      1.0  0.93644  0.54344  0.45656  1.0000 -1.1598130787
O   O143      1.0  0.54344  0.93644  0.06356  1.0000 -1.1659316253
O   O144      1.0  0.45656  0.06356  0.93644  1.0000 -1.1659316253
