# DDEC6 charges by PACMAN v1.1 (https://github.com/mtap-research/PACMAN-charge/)
data_2013[Y][nan]3[ASR]2
_chemical_formula_sum              "Y8 H36 C114 O48 F36"
_cell_length_a       8.0954
_cell_length_b       21.259
_cell_length_c       22.8149
_cell_angle_alpha    82.52
_cell_angle_beta     82.394
_cell_angle_gamma    79.972

_symmetry_space_group_name_H-M    "P 1"
_symmetry_Int_Tables_number       1

loop_
  _symmetry_equiv_pos_as_xyz
  'x, y, z'

loop_
  _atom_site_type_symbol
  _atom_site_label
  _atom_site_symmetry_multiplicity
  _atom_site_fract_x
  _atom_site_fract_y
  _atom_site_fract_z
  _atom_site_occupancy
  _atom_site_charge
Y   Y1        1.0  0.19793  0.57540  0.71600  1.0000 1.7965312331
Y   Y2        1.0  0.80207  0.42460  0.28400  1.0000 1.7965312331
Y   Y3        1.0  0.61357  0.52882  0.56691  1.0000 1.7902582018
Y   Y4        1.0  0.38643  0.47118  0.43309  1.0000 1.7902582018
Y   Y5        1.0  0.53567  0.75091  0.90439  1.0000 1.7902582018
Y   Y6        1.0  0.46433  0.24909  0.09561  1.0000 1.7902582018
Y   Y7        1.0  0.76043  0.90660  0.96365  1.0000 1.7902582018
Y   Y8        1.0  0.23957  0.09340  0.03635  1.0000 1.7902582018
H   H1        1.0  0.44080  0.35410  0.74660  1.0000 0.1200734831
H   H2        1.0  0.55920  0.64590  0.25340  1.0000 0.1200734831
H   H3        1.0  0.46660  0.28550  0.56210  1.0000 0.1287750466
H   H4        1.0  0.53340  0.71450  0.43790  1.0000 0.1287750466
H   H5        1.0  0.55690  0.21420  0.63940  1.0000 0.1200734831
H   H6        1.0  0.44310  0.78580  0.36060  1.0000 0.1200734831
H   H7        1.0  0.59740  0.23060  0.87450  1.0000 0.1287750466
H   H8        1.0  0.40260  0.76940  0.12550  1.0000 0.1287750466
H   H9        1.0  0.03160  0.25210  0.84870  1.0000 0.1200734831
H   H10       1.0  0.96840  0.74790  0.15130  1.0000 0.1200734831
H   H11       1.0  0.23230  0.25370  0.76700  1.0000 0.1200734831
H   H12       1.0  0.76770  0.74630  0.23300  1.0000 0.1200734831
H   H13       1.0  0.66120  0.71770  0.56930  1.0000 0.1287750466
H   H14       1.0  0.33880  0.28230  0.43070  1.0000 0.1287750466
H   H15       1.0  0.66340  0.81360  0.73970  1.0000 0.1200734831
H   H16       1.0  0.33660  0.18640  0.26030  1.0000 0.1200734831
H   H17       1.0  0.76310  0.86270  0.64850  1.0000 0.1200734831
H   H18       1.0  0.23690  0.13730  0.35150  1.0000 0.1200734831
H   H19       1.0  0.02020  0.72940  0.58410  1.0000 0.1287750466
H   H20       1.0  0.97980  0.27060  0.41590  1.0000 0.1287750466
H   H21       1.0  0.01810  0.68910  0.39030  1.0000 0.1200734831
H   H22       1.0  0.98190  0.31090  0.60970  1.0000 0.1200734831
H   H23       1.0  0.86250  0.78280  0.42260  1.0000 0.1200734831
H   H24       1.0  0.13750  0.21720  0.57740  1.0000 0.1200734831
H   H25       1.0  0.35080  0.91030  0.78320  1.0000 0.1287750466
H   H26       1.0  0.64920  0.08970  0.21680  1.0000 0.1287750466
H   H27       1.0  0.15560  0.11440  0.83630  1.0000 0.1200734831
H   H28       1.0  0.84440  0.88560  0.16370  1.0000 0.1200734831
H   H29       1.0  0.10120  0.08790  0.74680  1.0000 0.1143933265
H   H30       1.0  0.89880  0.91210  0.25320  1.0000 0.1143933265
H   H31       1.0  0.96740  0.92710  0.78510  1.0000 0.1200734831
H   H32       1.0  0.03260  0.07290  0.21490  1.0000 0.1200734831
H   H33       1.0  0.22590  0.75440  0.68590  1.0000 0.1200734831
H   H34       1.0  0.77410  0.24560  0.31410  1.0000 0.1200734831
H   H35       1.0  0.28140  0.85600  0.64950  1.0000 0.1200734831
H   H36       1.0  0.71860  0.14400  0.35050  1.0000 0.1200734831
C   C1        1.0  0.56620  0.23111  0.75602  1.0000 -0.2724761636
C   C2        1.0  0.43380  0.76889  0.24398  1.0000 -0.2724761636
C   C3        1.0  0.50880  0.27616  0.70204  1.0000 0.0702785312
C   C4        1.0  0.49120  0.72384  0.29796  1.0000 0.0702785312
C   C5        1.0  0.45090  0.34069  0.70895  1.0000 -0.1582063135
C   C6        1.0  0.54910  0.65931  0.29105  1.0000 -0.1582063135
C   C7        1.0  0.40760  0.38562  0.66123  1.0000 -0.0102629996
C   C8        1.0  0.59240  0.61438  0.33877  1.0000 -0.0102629996
C   C9        1.0  0.41560  0.36442  0.60504  1.0000 -0.0357314283
C   C10       1.0  0.58440  0.63558  0.39496  1.0000 -0.0357314283
C   C11       1.0  0.46660  0.29990  0.59883  1.0000 -0.0911458901
C   C12       1.0  0.53340  0.70010  0.40117  1.0000 -0.0911458901
C   C13       1.0  0.51680  0.25682  0.64544  1.0000 -0.1511958909
C   C14       1.0  0.48320  0.74318  0.35456  1.0000 -0.1511958909
C   C15       1.0  0.34600  0.45392  0.67362  1.0000 0.6105600028
C   C16       1.0  0.65400  0.54608  0.32638  1.0000 0.6105600028
C   C17       1.0  0.38000  0.40870  0.55025  1.0000 0.6105600028
C   C18       1.0  0.62000  0.59130  0.44975  1.0000 0.6105600028
C   C19       1.0  0.43700  0.23903  0.81197  1.0000 0.0702785312
C   C20       1.0  0.56300  0.76097  0.18803  1.0000 0.0702785312
C   C21       1.0  0.48440  0.23322  0.86921  1.0000 -0.1511958909
C   C22       1.0  0.51560  0.76678  0.13079  1.0000 -0.1511958909
C   C23       1.0  0.36270  0.23141  0.91858  1.0000 -0.0284748466
C   C24       1.0  0.63730  0.76859  0.08142  1.0000 -0.0284748466
C   C25       1.0  0.19370  0.23560  0.91148  1.0000 -0.0284748466
C   C26       1.0  0.80630  0.76440  0.08852  1.0000 -0.0284748466
C   C27       1.0  0.14550  0.24600  0.85402  1.0000 -0.1150451125
C   C28       1.0  0.85450  0.75400  0.14598  1.0000 -0.1150451125
C   C29       1.0  0.26600  0.24725  0.80500  1.0000 -0.1348466845
C   C30       1.0  0.73400  0.75275  0.19500  1.0000 -0.1348466845
C   C31       1.0  0.41700  0.22774  0.97921  1.0000 0.6105600028
C   C32       1.0  0.58300  0.77226  0.02079  1.0000 0.6105600028
C   C33       1.0  0.05860  0.22651  0.96297  1.0000 0.6045215456
C   C34       1.0  0.94140  0.77349  0.03703  1.0000 0.6045215456
C   C35       1.0  0.74240  0.24443  0.76522  1.0000 0.6670671074
C   C36       1.0  0.25760  0.75557  0.23478  1.0000 0.6670671074
C   C37       1.0  0.58430  0.15866  0.74601  1.0000 0.6635833709
C   C38       1.0  0.41570  0.84134  0.25399  1.0000 0.6635833709
C   C39       1.0  0.80140  0.82037  0.53649  1.0000 -0.2845990331
C   C40       1.0  0.19860  0.17963  0.46351  1.0000 -0.2845990331
C   C41       1.0  0.72760  0.79459  0.59898  1.0000 0.0702785312
C   C42       1.0  0.27240  0.20541  0.40102  1.0000 0.0702785312
C   C43       1.0  0.66370  0.73663  0.60364  1.0000 -0.1582063135
C   C44       1.0  0.33630  0.26337  0.39636  1.0000 -0.1582063135
C   C45       1.0  0.60470  0.70722  0.65794  1.0000 -0.0197032536
C   C46       1.0  0.39530  0.29278  0.34206  1.0000 -0.0197032536
C   C47       1.0  0.60950  0.73504  0.71053  1.0000 -0.0284748466
C   C48       1.0  0.39050  0.26496  0.28947  1.0000 -0.0284748466
C   C49       1.0  0.66550  0.79365  0.70558  1.0000 -0.0911458901
C   C50       1.0  0.33450  0.20635  0.29442  1.0000 -0.0911458901
C   C51       1.0  0.72510  0.82352  0.65067  1.0000 -0.1582063135
C   C52       1.0  0.27490  0.17648  0.34933  1.0000 -0.1582063135
C   C53       1.0  0.53320  0.64608  0.65891  1.0000 0.6509135592
C   C54       1.0  0.46680  0.35392  0.34109  1.0000 0.6509135592
C   C55       1.0  0.57540  0.69816  0.77086  1.0000 0.6105600028
C   C56       1.0  0.42460  0.30184  0.22914  1.0000 0.6105600028
C   C57       1.0  0.91660  0.76424  0.50826  1.0000 0.0768744825
C   C58       1.0  0.08340  0.23576  0.49174  1.0000 0.0768744825
C   C59       1.0  0.01730  0.72076  0.54535  1.0000 -0.1582063135
C   C60       1.0  0.98270  0.27924  0.45465  1.0000 -0.1582063135
C   C61       1.0  0.11270  0.66536  0.52598  1.0000 -0.0197032536
C   C62       1.0  0.88730  0.33464  0.47402  1.0000 -0.0197032536
C   C63       1.0  0.10670  0.65180  0.46790  1.0000 -0.0357314283
C   C64       1.0  0.89330  0.34820  0.53210  1.0000 -0.0357314283
C   C65       1.0  0.01600  0.69671  0.42964  1.0000 -0.0837623598
C   C66       1.0  0.98400  0.30329  0.57036  1.0000 -0.0837623598
C   C67       1.0  0.92170  0.75295  0.44897  1.0000 -0.1582063135
C   C68       1.0  0.07830  0.24705  0.55103  1.0000 -0.1582063135
C   C69       1.0  0.21830  0.62159  0.56921  1.0000 0.6509135592
C   C70       1.0  0.78170  0.37841  0.43079  1.0000 0.6509135592
C   C71       1.0  0.18050  0.58729  0.45009  1.0000 0.561105284
C   C72       1.0  0.81950  0.41271  0.54991  1.0000 0.561105284
C   C73       1.0  0.65040  0.84951  0.50122  1.0000 0.6670671074
C   C74       1.0  0.34960  0.15049  0.49878  1.0000 0.6670671074
C   C75       1.0  0.90840  0.87336  0.53706  1.0000 0.6670671074
C   C76       1.0  0.09160  0.12664  0.46294  1.0000 0.6670671074
C   C77       1.0  0.17410  0.97165  0.69945  1.0000 -0.2852729828
C   C78       1.0  0.82590  0.02835  0.30055  1.0000 -0.2852729828
C   C79       1.0  0.21460  0.99526  0.75628  1.0000 0.0702785312
C   C80       1.0  0.78540  0.00474  0.24372  1.0000 0.0702785312
C   C81       1.0  0.30940  0.95123  0.79424  1.0000 -0.1392782563
C   C82       1.0  0.69060  0.04877  0.20576  1.0000 -0.1392782563
C   C83       1.0  0.34450  0.96660  0.84868  1.0000 -0.0608696946
C   C84       1.0  0.65550  0.03340  0.15132  1.0000 -0.0608696946
C   C85       1.0  0.28340  0.02862  0.86464  1.0000 0.0019065189
C   C86       1.0  0.71660  0.97138  0.13536  1.0000 0.0019065189
C   C87       1.0  0.19410  0.07296  0.82604  1.0000 -0.1110524358
C   C88       1.0  0.80590  0.92704  0.17396  1.0000 -0.1110524358
C   C89       1.0  0.16050  0.05704  0.77232  1.0000 -0.1392782563
C   C90       1.0  0.83950  0.94296  0.22768  1.0000 -0.1392782563
C   C91       1.0  0.43210  0.91475  0.88947  1.0000 0.6413237183
C   C92       1.0  0.56790  0.08525  0.11053  1.0000 0.6413237183
C   C93       1.0  0.28330  0.04590  0.92646  1.0000 0.5774118035
C   C94       1.0  0.71670  0.95410  0.07354  1.0000 0.5774118035
C   C95       1.0  0.13560  0.90286  0.71501  1.0000 0.0702785312
C   C96       1.0  0.86440  0.09714  0.28499  1.0000 0.0702785312
C   C97       1.0  0.02170  0.89222  0.76555  1.0000 -0.1582063135
C   C98       1.0  0.97830  0.10778  0.23445  1.0000 -0.1582063135
C   C99       1.0  0.98700  0.83165  0.78742  1.0000 -0.0284748466
C   C100      1.0  0.01300  0.16835  0.21258  1.0000 -0.0284748466
C   C101      1.0  0.07150  0.77805  0.75899  1.0000 -0.0284748466
C   C102      1.0  0.92850  0.22195  0.24101  1.0000 -0.0284748466
C   C103      1.0  0.17640  0.78902  0.70668  1.0000 -0.0911458901
C   C104      1.0  0.82360  0.21098  0.29332  1.0000 -0.0911458901
C   C105      1.0  0.20990  0.85018  0.68447  1.0000 -0.1511958909
C   C106      1.0  0.79010  0.14982  0.31553  1.0000 -0.1511958909
C   C107      1.0  0.85480  0.82689  0.84018  1.0000 0.6509135592
C   C108      1.0  0.14520  0.17311  0.15982  1.0000 0.6509135592
C   C109      1.0  0.06990  0.71006  0.78700  1.0000 0.6173529951
C   C110      1.0  0.93010  0.28994  0.21300  1.0000 0.6173529951
C   C111      1.0  0.32900  0.97736  0.65297  1.0000 0.6670671074
C   C112      1.0  0.67100  0.02264  0.34703  1.0000 0.6670671074
C   C113      1.0  0.01790  0.01324  0.67357  1.0000 0.6670671074
C   C114      1.0  0.98210  0.98676  0.32643  1.0000 0.6670671074
O   O1        1.0  0.20520  0.46508  0.70473  1.0000 -0.5891972752
O   O2        1.0  0.79480  0.53492  0.29527  1.0000 -0.5891972752
O   O3        1.0  0.43070  0.49879  0.65672  1.0000 -0.6124389342
O   O4        1.0  0.56930  0.50121  0.34328  1.0000 -0.6124389342
O   O5        1.0  0.43590  0.46191  0.54196  1.0000 -0.6222927443
O   O6        1.0  0.56410  0.53809  0.45804  1.0000 -0.6222927443
O   O7        1.0  0.30730  0.39131  0.51134  1.0000 -0.5484043033
O   O8        1.0  0.69270  0.60869  0.48866  1.0000 -0.5484043033
O   O9        1.0  0.35070  0.19304  0.02259  1.0000 -0.6517491014
O   O10       1.0  0.64930  0.80696  0.97741  1.0000 -0.6517491014
O   O11       1.0  0.52190  0.26209  0.98820  1.0000 -0.5696549536
O   O12       1.0  0.47810  0.73791  0.01180  1.0000 -0.5696549536
O   O13       1.0  0.05630  0.16901  0.98636  1.0000 -0.6124389342
O   O14       1.0  0.94370  0.83099  0.01364  1.0000 -0.6124389342
O   O15       1.0  0.95350  0.27315  0.97766  1.0000 -0.4615052612
O   O16       1.0  0.04650  0.72685  0.02234  1.0000 -0.4615052612
O   O17       1.0  0.38830  0.64439  0.68620  1.0000 -0.6222927443
O   O18       1.0  0.61170  0.35561  0.31380  1.0000 -0.6222927443
O   O19       1.0  0.62090  0.60292  0.63070  1.0000 -0.5963892312
O   O20       1.0  0.37910  0.39708  0.36930  1.0000 -0.5963892312
O   O21       1.0  0.50220  0.72919  0.81296  1.0000 -0.628175077
O   O22       1.0  0.49780  0.27081  0.18704  1.0000 -0.628175077
O   O23       1.0  0.62840  0.63886  0.77577  1.0000 -0.5127844633
O   O24       1.0  0.37160  0.36114  0.22423  1.0000 -0.5127844633
O   O25       1.0  0.14280  0.60695  0.62081  1.0000 -0.628175077
O   O26       1.0  0.85720  0.39305  0.37919  1.0000 -0.628175077
O   O27       1.0  0.36990  0.60373  0.55298  1.0000 -0.5891972752
O   O28       1.0  0.63010  0.39627  0.44702  1.0000 -0.5891972752
O   O29       1.0  0.25050  0.57942  0.39787  1.0000 -0.5891972752
O   O30       1.0  0.74950  0.42058  0.60213  1.0000 -0.5891972752
O   O31       1.0  0.17390  0.53946  0.48996  1.0000 -0.564697233
O   O32       1.0  0.82610  0.46054  0.51004  1.0000 -0.564697233
O   O33       1.0  0.44020  0.85792  0.87935  1.0000 -0.5963892312
O   O34       1.0  0.55980  0.14208  0.12065  1.0000 -0.5963892312
O   O35       1.0  0.49060  0.93228  0.93331  1.0000 -0.6124389342
O   O36       1.0  0.50940  0.06772  0.06669  1.0000 -0.6124389342
O   O37       1.0  0.38750  0.07877  0.93875  1.0000 -0.5891972752
O   O38       1.0  0.61250  0.92123  0.06125  1.0000 -0.5891972752
O   O39       1.0  0.16560  0.03035  0.96461  1.0000 -0.5696549536
O   O40       1.0  0.83440  0.96965  0.03539  1.0000 -0.5696549536
O   O41       1.0  0.76390  0.78502  0.84372  1.0000 -0.5827089222
O   O42       1.0  0.23610  0.21498  0.15628  1.0000 -0.5827089222
O   O43       1.0  0.84030  0.86881  0.87571  1.0000 -0.6222927443
O   O44       1.0  0.15970  0.13119  0.12429  1.0000 -0.6222927443
O   O45       1.0  0.06860  0.66745  0.75355  1.0000 -0.6369554372
O   O46       1.0  0.93140  0.33255  0.24645  1.0000 -0.6369554372
O   O47       1.0  0.07930  0.69921  0.84245  1.0000 -0.5127844633
O   O48       1.0  0.92070  0.30079  0.15755  1.0000 -0.5127844633
F   F1        1.0  0.84290  0.24834  0.71361  1.0000 -0.1995478946
F   F2        1.0  0.15710  0.75166  0.28639  1.0000 -0.1995478946
F   F3        1.0  0.82540  0.19831  0.80178  1.0000 -0.1995478946
F   F4        1.0  0.17460  0.80169  0.19822  1.0000 -0.1995478946
F   F5        1.0  0.73120  0.29955  0.78829  1.0000 -0.1908046061
F   F6        1.0  0.26880  0.70045  0.21171  1.0000 -0.1908046061
F   F7        1.0  0.71380  0.14233  0.70464  1.0000 -0.2074442775
F   F8        1.0  0.28620  0.85767  0.29536  1.0000 -0.2074442775
F   F9        1.0  0.44540  0.14664  0.72725  1.0000 -0.1908046061
F   F10       1.0  0.55460  0.85336  0.27275  1.0000 -0.1908046061
F   F11       1.0  0.61120  0.12002  0.79548  1.0000 -0.1834611566
F   F12       1.0  0.38880  0.87998  0.20452  1.0000 -0.1834611566
F   F13       1.0  0.56750  0.80366  0.48994  1.0000 -0.1908046061
F   F14       1.0  0.43250  0.19634  0.51006  1.0000 -0.1908046061
F   F15       1.0  0.53800  0.89036  0.53198  1.0000 -0.1908046061
F   F16       1.0  0.46200  0.10964  0.46802  1.0000 -0.1908046061
F   F17       1.0  0.69500  0.88137  0.44896  1.0000 -0.1995478946
F   F18       1.0  0.30500  0.11863  0.55104  1.0000 -0.1995478946
F   F19       1.0  0.98950  0.88751  0.48344  1.0000 -0.1908046061
F   F20       1.0  0.01050  0.11249  0.51656  1.0000 -0.1908046061
F   F21       1.0  0.81720  0.92797  0.55409  1.0000 -0.1995478946
F   F22       1.0  0.18280  0.07203  0.44591  1.0000 -0.1995478946
F   F23       1.0  0.02690  0.85422  0.57427  1.0000 -0.1908046061
F   F24       1.0  0.97310  0.14578  0.42573  1.0000 -0.1908046061
F   F25       1.0  0.37530  0.03535  0.64840  1.0000 -0.1995478946
F   F26       1.0  0.62470  0.96465  0.35160  1.0000 -0.1995478946
F   F27       1.0  0.46300  0.93449  0.66882  1.0000 -0.1908046061
F   F28       1.0  0.53700  0.06551  0.33118  1.0000 -0.1908046061
F   F29       1.0  0.30350  0.96723  0.59856  1.0000 -0.1995478946
F   F30       1.0  0.69650  0.03277  0.40144  1.0000 -0.1995478946
F   F31       1.0  0.04440  0.07237  0.65043  1.0000 -0.1995478946
F   F32       1.0  0.95560  0.92763  0.34957  1.0000 -0.1995478946
F   F33       1.0  0.88710  0.02027  0.71598  1.0000 -0.1908046061
F   F34       1.0  0.11290  0.97973  0.28402  1.0000 -0.1908046061
F   F35       1.0  0.96950  0.98568  0.63110  1.0000 -0.1908046061
F   F36       1.0  0.03050  0.01432  0.36890  1.0000 -0.1908046061
