# DDEC6 charges by PACMAN v1.1 (https://github.com/mtap-research/PACMAN-charge/)
data_2013[Cu][pts]3[ASR]5
_chemical_formula_sum              "Cu8 H128 C180 O40"
_cell_length_a       20.639
_cell_length_b       22.923
_cell_length_c       23.247
_cell_angle_alpha    82.718
_cell_angle_beta     71.061
_cell_angle_gamma    80.352

_symmetry_space_group_name_H-M    "P 1"
_symmetry_Int_Tables_number       1

loop_
  _symmetry_equiv_pos_as_xyz
  'x, y, z'

loop_
  _atom_site_type_symbol
  _atom_site_label
  _atom_site_symmetry_multiplicity
  _atom_site_fract_x
  _atom_site_fract_y
  _atom_site_fract_z
  _atom_site_occupancy
  _atom_site_charge
Cu  Cu1       1.0  0.44455  0.77446  0.73733  1.0000 0.8329231223
Cu  Cu2       1.0  0.55545  0.22554  0.26267  1.0000 0.8329231223
Cu  Cu3       1.0  0.55607  0.72511  0.76271  1.0000 0.8506929358
Cu  Cu4       1.0  0.44393  0.27489  0.23729  1.0000 0.8506929358
Cu  Cu5       1.0  0.95859  0.23679  0.22277  1.0000 0.8506929358
Cu  Cu6       1.0  0.04141  0.76321  0.77723  1.0000 0.8506929358
Cu  Cu7       1.0  0.04179  0.26287  0.27723  1.0000 0.8666995248
Cu  Cu8       1.0  0.95821  0.73713  0.72277  1.0000 0.8666995248
H   H1        1.0  0.31790  0.63380  0.81320  1.0000 0.1287307242
H   H2        1.0  0.68210  0.36620  0.18680  1.0000 0.1287307242
H   H3        1.0  0.27010  0.54490  0.84310  1.0000 0.11061605
H   H4        1.0  0.72990  0.45510  0.15690  1.0000 0.11061605
H   H5        1.0  0.46040  0.45470  0.82870  1.0000 0.1208100381
H   H6        1.0  0.53960  0.54530  0.17130  1.0000 0.1287307242
H   H7        1.0  0.50830  0.54350  0.79880  1.0000 0.1287307242
H   H8        1.0  0.49170  0.45650  0.20120  1.0000 0.1287307242
H   H9        1.0  0.25030  0.29670  0.87560  1.0000 0.1208100381
H   H10       1.0  0.74970  0.70330  0.12440  1.0000 0.1208100381
H   H11       1.0  0.37940  0.40850  0.76530  1.0000 0.1208100381
H   H12       1.0  0.62060  0.59150  0.23470  1.0000 0.1208100381
H   H13       1.0  0.13120  0.33740  0.94500  1.0000 0.1208100381
H   H14       1.0  0.86880  0.66260  0.05500  1.0000 0.1208100381
H   H15       1.0  0.05780  0.30450  0.03920  1.0000 0.1287307242
H   H16       1.0  0.94220  0.69550  0.96080  1.0000 0.1287307242
H   H17       1.0  0.19920  0.32290  0.12030  1.0000 0.1287307242
H   H18       1.0  0.80080  0.67710  0.87970  1.0000 0.1287307242
H   H19       1.0  0.27260  0.35580  0.02600  1.0000 0.1208100381
H   H20       1.0  0.72740  0.64420  0.97400  1.0000 0.1208100381
H   H21       1.0  0.17770  0.59930  0.76510  1.0000 0.1208100381
H   H22       1.0  0.82230  0.40070  0.23490  1.0000 0.1208100381
H   H23       1.0  0.25040  0.51010  0.74020  1.0000 0.1208100381
H   H24       1.0  0.74960  0.48990  0.25980  1.0000 0.1208100381
H   H25       1.0  0.14020  0.47880  0.63400  1.0000 0.1208100381
H   H26       1.0  0.85980  0.52120  0.36600  1.0000 0.1208100381
H   H27       1.0  0.06750  0.56800  0.65890  1.0000 0.1287307242
H   H28       1.0  0.93250  0.43200  0.34110  1.0000 0.1287307242
H   H29       1.0  0.24620  0.40960  0.75670  1.0000 0.1208100381
H   H30       1.0  0.75380  0.59040  0.24330  1.0000 0.1208100381
H   H31       1.0  0.37930  0.29550  0.63870  1.0000 0.11061605
H   H32       1.0  0.62070  0.70450  0.36130  1.0000 0.11061605
H   H33       1.0  0.45560  0.31740  0.54280  1.0000 0.1208100381
H   H34       1.0  0.54440  0.68260  0.45720  1.0000 0.1208100381
H   H35       1.0  0.50550  0.28350  0.44520  1.0000 0.1287307242
H   H36       1.0  0.49450  0.71650  0.55480  1.0000 0.1287307242
H   H37       1.0  0.32180  0.32950  0.41210  1.0000 0.1287307242
H   H38       1.0  0.67820  0.67050  0.58790  1.0000 0.1287307242
H   H39       1.0  0.27190  0.36340  0.50970  1.0000 0.1208100381
H   H40       1.0  0.72810  0.63660  0.49030  1.0000 0.1208100381
H   H41       1.0  0.32310  0.82930  0.91270  1.0000 0.1287307242
H   H42       1.0  0.67690  0.17070  0.08730  1.0000 0.1287307242
H   H43       1.0  0.27370  0.86410  0.01000  1.0000 0.1287307242
H   H44       1.0  0.72630  0.13590  0.99000  1.0000 0.1287307242
H   H45       1.0  0.45690  0.81610  0.04350  1.0000 0.1208100381
H   H46       1.0  0.54310  0.18390  0.95650  1.0000 0.1208100381
H   H47       1.0  0.50640  0.78130  0.94630  1.0000 0.1287307242
H   H48       1.0  0.49360  0.21870  0.05370  1.0000 0.1287307242
H   H49       1.0  0.24650  0.90840  0.25780  1.0000 0.1208100381
H   H50       1.0  0.75350  0.09160  0.74220  1.0000 0.1208100381
H   H51       1.0  0.37900  0.79420  0.13960  1.0000 0.1208100381
H   H52       1.0  0.62100  0.20580  0.86040  1.0000 0.1208100381
H   H53       1.0  0.14380  0.98080  0.13090  1.0000 0.1287307242
H   H54       1.0  0.85620  0.01920  0.86910  1.0000 0.1287307242
H   H55       1.0  0.06950  0.06910  0.15650  1.0000 0.1287307242
H   H56       1.0  0.93050  0.93090  0.84350  1.0000 0.1287307242
H   H57       1.0  0.17540  0.09920  0.26690  1.0000 0.1208100381
H   H58       1.0  0.82460  0.90080  0.73310  1.0000 0.1208100381
H   H59       1.0  0.24960  0.01090  0.24120  1.0000 0.11061605
H   H60       1.0  0.75040  0.98910  0.75880  1.0000 0.11061605
H   H61       1.0  0.31550  0.13460  0.31240  1.0000 0.1287307242
H   H62       1.0  0.68450  0.86540  0.68760  1.0000 0.1287307242
H   H63       1.0  0.26930  0.04480  0.33970  1.0000 0.11061605
H   H64       1.0  0.73070  0.95520  0.66030  1.0000 0.11061605
H   H65       1.0  0.45900  0.95720  0.33290  1.0000 0.1208100381
H   H66       1.0  0.54100  0.04280  0.66710  1.0000 0.1287307242
H   H67       1.0  0.50520  0.04690  0.30570  1.0000 0.1287307242
H   H68       1.0  0.49480  0.95310  0.69430  1.0000 0.1287307242
H   H69       1.0  0.38340  0.90570  0.26730  1.0000 0.1208100381
H   H70       1.0  0.61660  0.09430  0.73270  1.0000 0.1208100381
H   H71       1.0  0.25000  0.79680  0.37670  1.0000 0.1208100381
H   H72       1.0  0.75000  0.20320  0.62330  1.0000 0.1208100381
H   H73       1.0  0.13010  0.83880  0.44560  1.0000 0.1208100381
H   H74       1.0  0.86990  0.16120  0.55440  1.0000 0.1208100381
H   H75       1.0  0.05720  0.80440  0.53940  1.0000 0.1287307242
H   H76       1.0  0.94280  0.19560  0.46060  1.0000 0.1287307242
H   H77       1.0  0.19860  0.82180  0.62080  1.0000 0.1287307242
H   H78       1.0  0.80140  0.17820  0.37920  1.0000 0.1287307242
H   H79       1.0  0.27150  0.85620  0.52700  1.0000 0.1287307242
H   H80       1.0  0.72850  0.14380  0.47300  1.0000 0.1287307242
H   H81       1.0  0.24000  0.27560  0.78220  1.0000 0.1208100381
H   H82       1.0  0.76000  0.72440  0.21780  1.0000 0.1208100381
H   H83       1.0  0.29620  0.23170  0.80640  1.0000 0.1208100381
H   H84       1.0  0.70380  0.76830  0.19360  1.0000 0.1208100381
H   H85       1.0  0.30160  0.23630  0.73580  1.0000 0.1287307242
H   H86       1.0  0.69840  0.76370  0.26420  1.0000 0.1287307242
H   H87       1.0  0.41900  0.26090  0.78100  1.0000 0.1364508898
H   H88       1.0  0.58100  0.73910  0.21900  1.0000 0.1364508898
H   H89       1.0  0.43730  0.31910  0.73640  1.0000 0.1208100381
H   H90       1.0  0.56270  0.68090  0.26360  1.0000 0.1208100381
H   H91       1.0  0.42630  0.26140  0.71030  1.0000 0.1287307242
H   H92       1.0  0.57370  0.73860  0.28970  1.0000 0.1287307242
H   H93       1.0  0.25320  0.76360  0.28760  1.0000 0.1208100381
H   H94       1.0  0.74680  0.23640  0.71240  1.0000 0.1208100381
H   H95       1.0  0.31800  0.73070  0.30780  1.0000 0.1208100381
H   H96       1.0  0.68200  0.26930  0.69220  1.0000 0.1208100381
H   H97       1.0  0.31880  0.73120  0.23860  1.0000 0.1208100381
H   H98       1.0  0.68120  0.26880  0.76140  1.0000 0.1287307242
H   H99       1.0  0.43200  0.76490  0.27020  1.0000 0.1364508898
H   H100      1.0  0.56800  0.23510  0.72980  1.0000 0.1364508898
H   H101      1.0  0.44080  0.82420  0.22560  1.0000 0.1208100381
H   H102      1.0  0.55920  0.17580  0.77440  1.0000 0.1208100381
H   H103      1.0  0.43080  0.76490  0.20170  1.0000 0.1208100381
H   H104      1.0  0.56920  0.23510  0.79830  1.0000 0.1287307242
H   H105      1.0  0.29410  0.52650  0.50580  1.0000 0.1208100381
H   H106      1.0  0.70590  0.47350  0.49420  1.0000 0.1208100381
H   H107      1.0  0.35990  0.48930  0.52160  1.0000 0.11061605
H   H108      1.0  0.64010  0.51070  0.47840  1.0000 0.11061605
H   H109      1.0  0.30290  0.52860  0.57140  1.0000 0.1045514499
H   H110      1.0  0.69710  0.47140  0.42860  1.0000 0.11061605
H   H111      1.0  0.18900  0.52060  0.00660  1.0000 0.1287307242
H   H112      1.0  0.81100  0.47940  0.99340  1.0000 0.1287307242
H   H113      1.0  0.15840  0.46790  0.98930  1.0000 0.11061605
H   H114      1.0  0.84160  0.53210  0.01070  1.0000 0.11061605
H   H115      1.0  0.18250  0.52150  0.93970  1.0000 0.11061605
H   H116      1.0  0.81750  0.47850  0.06030  1.0000 0.11061605
H   H117      1.0  0.29730  0.01160  0.00740  1.0000 0.1208100381
H   H118      1.0  0.70270  0.98840  0.99260  1.0000 0.1208100381
H   H119      1.0  0.35290  0.96480  0.02950  1.0000 0.11061605
H   H120      1.0  0.64710  0.03520  0.97050  1.0000 0.11061605
H   H121      1.0  0.30190  0.01160  0.07490  1.0000 0.11061605
H   H122      1.0  0.69810  0.98840  0.92510  1.0000 0.11061605
H   H123      1.0  0.20720  0.01210  0.50030  1.0000 0.1287307242
H   H124      1.0  0.79280  0.98790  0.49970  1.0000 0.1287307242
H   H125      1.0  0.17850  0.95920  0.48150  1.0000 0.11061605
H   H126      1.0  0.82150  0.04080  0.51850  1.0000 0.11061605
H   H127      1.0  0.20810  0.01080  0.43140  1.0000 0.11061605
H   H128      1.0  0.79190  0.98920  0.56860  1.0000 0.11061605
C   C1        1.0  0.44500  0.65800  0.78320  1.0000 0.5625501653
C   C2        1.0  0.55500  0.34200  0.21680  1.0000 0.5625501653
C   C3        1.0  0.41760  0.59700  0.80320  1.0000 -0.0102177231
C   C4        1.0  0.58240  0.40300  0.19680  1.0000 -0.0102177231
C   C5        1.0  0.34690  0.59740  0.81640  1.0000 -0.0972209121
C   C6        1.0  0.65310  0.40260  0.18360  1.0000 -0.0972209121
C   C7        1.0  0.31840  0.54470  0.83410  1.0000 -0.1591883991
C   C8        1.0  0.68160  0.45530  0.16590  1.0000 -0.1591883991
C   C9        1.0  0.36080  0.49150  0.83870  1.0000 0.0895319095
C   C10       1.0  0.63920  0.50850  0.16130  1.0000 0.0895319095
C   C11       1.0  0.43150  0.49100  0.82550  1.0000 -0.1591883991
C   C12       1.0  0.56850  0.50900  0.17450  1.0000 -0.1591883991
C   C13       1.0  0.45990  0.54380  0.80780  1.0000 -0.0897988555
C   C14       1.0  0.54010  0.45620  0.19220  1.0000 -0.0897988555
C   C15       1.0  0.33100  0.43550  0.85100  1.0000 -0.0283370872
C   C16       1.0  0.66900  0.56450  0.14900  1.0000 -0.0283370872
C   C17       1.0  0.28440  0.42070  0.90730  1.0000 0.1287307242
C   C18       1.0  0.71560  0.57930  0.09270  1.0000 0.1287307242
C   C19       1.0  0.25430  0.36900  0.91640  1.0000 -0.0283370872
C   C20       1.0  0.74570  0.63100  0.08360  1.0000 -0.0283370872
C   C21       1.0  0.27090  0.33200  0.86930  1.0000 -0.1993322765
C   C22       1.0  0.72910  0.66800  0.13070  1.0000 -0.1993322765
C   C23       1.0  0.31750  0.34680  0.81300  1.0000 0.064245828
C   C24       1.0  0.68250  0.65320  0.18700  1.0000 0.064245828
C   C25       1.0  0.34750  0.39850  0.80380  1.0000 -0.2097370395
C   C26       1.0  0.65250  0.60150  0.19620  1.0000 -0.2097370395
C   C27       1.0  0.20880  0.34970  0.97660  1.0000 0.0791582272
C   C28       1.0  0.79120  0.65030  0.02340  1.0000 0.0791582272
C   C29       1.0  0.14500  0.33440  0.98060  1.0000 -0.1591883991
C   C30       1.0  0.85500  0.66560  0.01940  1.0000 -0.1591883991
C   C31       1.0  0.10140  0.31490  0.03660  1.0000 -0.0897988555
C   C32       1.0  0.89860  0.68510  0.96340  1.0000 -0.0897988555
C   C33       1.0  0.12160  0.31060  0.08860  1.0000 -0.0216560234
C   C34       1.0  0.87840  0.68940  0.91140  1.0000 -0.0216560234
C   C35       1.0  0.18540  0.32580  0.08470  1.0000 -0.0972209121
C   C36       1.0  0.81460  0.67420  0.91530  1.0000 -0.0897988555
C   C37       1.0  0.22900  0.34540  0.02870  1.0000 -0.1498660347
C   C38       1.0  0.77100  0.65460  0.97130  1.0000 -0.1498660347
C   C39       1.0  0.07380  0.28780  0.15000  1.0000 0.5716128876
C   C40       1.0  0.92620  0.71220  0.85000  1.0000 0.5716128876
C   C41       1.0  0.07060  0.64830  0.72970  1.0000 0.5716128876
C   C42       1.0  0.92940  0.35170  0.27030  1.0000 0.5716128876
C   C43       1.0  0.11570  0.59200  0.71430  1.0000 -0.0511776632
C   C44       1.0  0.88430  0.40800  0.28570  1.0000 -0.0511776632
C   C45       1.0  0.17010  0.57480  0.73850  1.0000 -0.0897988555
C   C46       1.0  0.82990  0.42520  0.26150  1.0000 -0.0897988555
C   C47       1.0  0.21330  0.52190  0.72370  1.0000 -0.1708592134
C   C48       1.0  0.78670  0.47810  0.27630  1.0000 -0.1708592134
C   C49       1.0  0.20220  0.48610  0.68470  1.0000 0.0895319095
C   C50       1.0  0.79780  0.51390  0.31530  1.0000 0.0895319095
C   C51       1.0  0.14780  0.50330  0.66060  1.0000 -0.1498660347
C   C52       1.0  0.85220  0.49670  0.33940  1.0000 -0.1498660347
C   C53       1.0  0.10460  0.55620  0.67540  1.0000 -0.0830339821
C   C54       1.0  0.89540  0.44380  0.32460  1.0000 -0.0897988555
C   C55       1.0  0.25020  0.43200  0.66810  1.0000 -0.0216560234
C   C56       1.0  0.74980  0.56800  0.33190  1.0000 -0.0216560234
C   C57       1.0  0.26740  0.39810  0.71630  1.0000 -0.2181958625
C   C58       1.0  0.73260  0.60190  0.28370  1.0000 -0.2181958625
C   C59       1.0  0.31550  0.34720  0.70540  1.0000 0.0747143706
C   C60       1.0  0.68450  0.65280  0.29460  1.0000 0.0791582272
C   C61       1.0  0.34640  0.33030  0.64620  1.0000 -0.1993322765
C   C62       1.0  0.65360  0.66970  0.35380  1.0000 -0.1993322765
C   C63       1.0  0.32920  0.36420  0.59800  1.0000 -0.0283370872
C   C64       1.0  0.67080  0.63580  0.40200  1.0000 -0.0283370872
C   C65       1.0  0.28110  0.41500  0.60890  1.0000 0.1364508898
C   C66       1.0  0.71890  0.58500  0.39110  1.0000 0.1364508898
C   C67       1.0  0.35900  0.34360  0.53540  1.0000 0.0895319095
C   C68       1.0  0.64100  0.65640  0.46460  1.0000 0.0895319095
C   C69       1.0  0.42840  0.31990  0.51630  1.0000 -0.1591883991
C   C70       1.0  0.57160  0.68010  0.48370  1.0000 -0.1591883991
C   C71       1.0  0.45810  0.29970  0.45830  1.0000 -0.0830339821
C   C72       1.0  0.54190  0.70030  0.54170  1.0000 -0.0830339821
C   C73       1.0  0.41840  0.30330  0.41950  1.0000 -0.0511776632
C   C74       1.0  0.58160  0.69670  0.58050  1.0000 -0.0511776632
C   C75       1.0  0.34900  0.32700  0.43870  1.0000 -0.0830339821
C   C76       1.0  0.65100  0.67300  0.56130  1.0000 -0.0897988555
C   C77       1.0  0.31930  0.34720  0.49660  1.0000 -0.1591883991
C   C78       1.0  0.68070  0.65280  0.50340  1.0000 -0.1498660347
C   C79       1.0  0.44960  0.28140  0.35810  1.0000 0.5716128876
C   C80       1.0  0.55040  0.71860  0.64190  1.0000 0.5716128876
C   C81       1.0  0.45080  0.78190  0.85530  1.0000 0.5716128876
C   C82       1.0  0.54920  0.21810  0.14470  1.0000 0.5716128876
C   C83       1.0  0.41940  0.80200  0.92040  1.0000 -0.0216560234
C   C84       1.0  0.58060  0.19800  0.07960  1.0000 -0.0216560234
C   C85       1.0  0.35030  0.82660  0.93930  1.0000 -0.0897988555
C   C86       1.0  0.64970  0.17340  0.06070  1.0000 -0.0972209121
C   C87       1.0  0.32090  0.84730  0.99700  1.0000 -0.1591883991
C   C88       1.0  0.67910  0.15270  0.00300  1.0000 -0.1591883991
C   C89       1.0  0.36060  0.84340  0.03590  1.0000 0.0791582272
C   C90       1.0  0.63940  0.15660  0.96410  1.0000 0.0791582272
C   C91       1.0  0.42980  0.81880  0.01700  1.0000 -0.1708592134
C   C92       1.0  0.57020  0.18120  0.98300  1.0000 -0.1708592134
C   C93       1.0  0.45910  0.79810  0.95920  1.0000 -0.0897988555
C   C94       1.0  0.54090  0.20190  0.04080  1.0000 -0.0897988555
C   C95       1.0  0.33040  0.86380  0.09880  1.0000 -0.0102177231
C   C96       1.0  0.66960  0.13620  0.90120  1.0000 -0.0102177231
C   C97       1.0  0.28290  0.91510  0.10970  1.0000 0.0791582272
C   C98       1.0  0.71710  0.08490  0.89030  1.0000 0.0791582272
C   C99       1.0  0.25160  0.93170  0.16900  1.0000 -0.0016191681
C   C100      1.0  0.74840  0.06830  0.83100  1.0000 -0.0016191681
C   C101      1.0  0.26790  0.89710  0.21730  1.0000 -0.2279287795
C   C102      1.0  0.73210  0.10290  0.78270  1.0000 -0.2279287795
C   C103      1.0  0.31530  0.84580  0.20630  1.0000 0.0791582272
C   C104      1.0  0.68470  0.15420  0.79370  1.0000 0.0791582272
C   C105      1.0  0.34660  0.82920  0.14710  1.0000 -0.1993322765
C   C106      1.0  0.65340  0.17080  0.85290  1.0000 -0.1993322765
C   C107      1.0  0.20370  0.98760  0.18360  1.0000 0.0895319095
C   C108      1.0  0.79630  0.01240  0.81640  1.0000 0.0895319095
C   C109      1.0  0.15020  0.00480  0.15850  1.0000 -0.1498660347
C   C110      1.0  0.84980  0.99520  0.84150  1.0000 -0.1498660347
C   C111      1.0  0.10610  0.05730  0.17370  1.0000 -0.0897988555
C   C112      1.0  0.89390  0.94270  0.82630  1.0000 -0.0897988555
C   C113      1.0  0.11550  0.09250  0.21410  1.0000 -0.0511776632
C   C114      1.0  0.88450  0.90750  0.78590  1.0000 -0.0511776632
C   C115      1.0  0.16900  0.07520  0.23930  1.0000 -0.0897988555
C   C116      1.0  0.83100  0.92480  0.76070  1.0000 -0.0897988555
C   C117      1.0  0.21310  0.02270  0.22400  1.0000 -0.1708592134
C   C118      1.0  0.78690  0.97730  0.77600  1.0000 -0.1708592134
C   C119      1.0  0.06870  0.14810  0.22890  1.0000 0.5716128876
C   C120      1.0  0.93130  0.85190  0.77110  1.0000 0.5716128876
C   C121      1.0  0.44830  0.15640  0.28250  1.0000 0.5625501653
C   C122      1.0  0.55170  0.84360  0.71750  1.0000 0.5625501653
C   C123      1.0  0.41470  0.09920  0.30650  1.0000 -0.0216560234
C   C124      1.0  0.58530  0.90080  0.69350  1.0000 -0.0216560234
C   C125      1.0  0.34470  0.09860  0.31660  1.0000 -0.0972209121
C   C126      1.0  0.65530  0.90140  0.68340  1.0000 -0.0897988555
C   C127      1.0  0.31720  0.04530  0.33280  1.0000 -0.1708592134
C   C128      1.0  0.68280  0.95470  0.66720  1.0000 -0.1708592134
C   C129      1.0  0.35980  0.99260  0.33890  1.0000 0.0895319095
C   C130      1.0  0.64020  0.00740  0.66110  1.0000 0.0895319095
C   C131      1.0  0.42980  0.99320  0.32880  1.0000 -0.1591883991
C   C132      1.0  0.57020  0.00680  0.67120  1.0000 -0.1591883991
C   C133      1.0  0.45730  0.04650  0.31260  1.0000 -0.0897988555
C   C134      1.0  0.54270  0.95350  0.68740  1.0000 -0.0897988555
C   C135      1.0  0.33240  0.93470  0.35170  1.0000 -0.0102177231
C   C136      1.0  0.66760  0.06530  0.64830  1.0000 -0.0102177231
C   C137      1.0  0.35020  0.89660  0.30540  1.0000 -0.2181958625
C   C138      1.0  0.64980  0.10340  0.69460  1.0000 -0.2181958625
C   C139      1.0  0.31950  0.84520  0.31470  1.0000 0.0791582272
C   C140      1.0  0.68050  0.15480  0.68530  1.0000 0.0747143706
C   C141      1.0  0.27100  0.83190  0.37030  1.0000 -0.2097370395
C   C142      1.0  0.72900  0.16810  0.62970  1.0000 -0.2097370395
C   C143      1.0  0.25310  0.87000  0.41670  1.0000 -0.0216560234
C   C144      1.0  0.74690  0.13000  0.58330  1.0000 -0.0216560234
C   C145      1.0  0.28380  0.92140  0.40740  1.0000 0.11061605
C   C146      1.0  0.71620  0.07860  0.59260  1.0000 0.11061605
C   C147      1.0  0.20770  0.85070  0.47750  1.0000 0.0791582272
C   C148      1.0  0.79230  0.14930  0.52250  1.0000 0.0791582272
C   C149      1.0  0.14400  0.83540  0.48110  1.0000 -0.1591883991
C   C150      1.0  0.85600  0.16460  0.51890  1.0000 -0.1591883991
C   C151      1.0  0.10070  0.81490  0.53690  1.0000 -0.0897988555
C   C152      1.0  0.89930  0.18510  0.46310  1.0000 -0.0897988555
C   C153      1.0  0.12100  0.80990  0.58890  1.0000 -0.0283370872
C   C154      1.0  0.87900  0.19010  0.41110  1.0000 -0.0283370872
C   C155      1.0  0.18470  0.82530  0.58530  1.0000 -0.0972209121
C   C156      1.0  0.81530  0.17470  0.41470  1.0000 -0.0972209121
C   C157      1.0  0.22800  0.84570  0.52950  1.0000 -0.1591883991
C   C158      1.0  0.77200  0.15430  0.47050  1.0000 -0.1591883991
C   C159      1.0  0.07490  0.78780  0.65030  1.0000 0.5716128876
C   C160      1.0  0.92510  0.21220  0.34970  1.0000 0.5716128876
C   C161      1.0  0.28880  0.25850  0.77210  1.0000 -0.4468111614
C   C162      1.0  0.71120  0.74150  0.22790  1.0000 -0.4468111614
C   C163      1.0  0.33350  0.30820  0.75960  1.0000 0.1844278654
C   C164      1.0  0.66650  0.69180  0.24040  1.0000 0.1844278654
C   C165      1.0  0.41110  0.28530  0.74550  1.0000 -0.4575407326
C   C166      1.0  0.58890  0.71470  0.25450  1.0000 -0.4575407326
C   C167      1.0  0.30360  0.75410  0.27460  1.0000 -0.4435056666
C   C168      1.0  0.69640  0.24590  0.72540  1.0000 -0.4435056666
C   C169      1.0  0.33400  0.80760  0.25990  1.0000 0.1648360422
C   C170      1.0  0.66600  0.19240  0.74010  1.0000 0.1656600764
C   C171      1.0  0.41780  0.78850  0.23710  1.0000 -0.4575407326
C   C172      1.0  0.58220  0.21150  0.76290  1.0000 -0.4575407326
C   C173      1.0  0.31040  0.50340  0.53810  1.0000 -0.2279287795
C   C174      1.0  0.68960  0.49660  0.46190  1.0000 -0.2279287795
C   C175      1.0  0.19220  0.49610  0.97390  1.0000 -0.2941479752
C   C176      1.0  0.80780  0.50390  0.02610  1.0000 -0.2941479752
C   C177      1.0  0.30610  0.98660  0.04220  1.0000 -0.1918538878
C   C178      1.0  0.69390  0.01340  0.95780  1.0000 -0.1918538878
C   C179      1.0  0.21340  0.98640  0.46780  1.0000 -0.2181958625
C   C180      1.0  0.78660  0.01360  0.53220  1.0000 -0.2181958625
O   O1        1.0  0.41240  0.69830  0.76380  1.0000 -0.4575407326
O   O2        1.0  0.58760  0.30170  0.23620  1.0000 -0.4575407326
O   O3        1.0  0.50620  0.65520  0.78370  1.0000 -0.5207855026
O   O4        1.0  0.49380  0.34480  0.21630  1.0000 -0.5102892239
O   O5        1.0  0.41400  0.79550  0.82200  1.0000 -0.5102892239
O   O6        1.0  0.58600  0.20450  0.17800  1.0000 -0.4995562056
O   O7        1.0  0.51110  0.75350  0.84210  1.0000 -0.5289201954
O   O8        1.0  0.48890  0.24650  0.15790  1.0000 -0.5289201954
O   O9        1.0  0.01860  0.16100  0.20920  1.0000 -0.4925276706
O   O10       1.0  0.98140  0.83900  0.79080  1.0000 -0.4925276706
O   O11       1.0  0.08590  0.18240  0.25880  1.0000 -0.5289201954
O   O12       1.0  0.91410  0.81760  0.74120  1.0000 -0.5289201954
O   O13       1.0  0.41010  0.19890  0.26660  1.0000 -0.4995562056
O   O14       1.0  0.58990  0.80110  0.73340  1.0000 -0.4995562056
O   O15       1.0  0.50240  0.15790  0.29080  1.0000 -0.478624321
O   O16       1.0  0.49760  0.84210  0.70920  1.0000 -0.478624321
O   O17       1.0  0.02020  0.76980  0.64980  1.0000 -0.5207855026
O   O18       1.0  0.97980  0.23020  0.35020  1.0000 -0.5207855026
O   O19       1.0  0.09240  0.79140  0.69600  1.0000 -0.5102892239
O   O20       1.0  0.90760  0.20860  0.30400  1.0000 -0.5102892239
O   O21       1.0  0.02020  0.26990  0.14940  1.0000 -0.5102892239
O   O22       1.0  0.97980  0.73010  0.85060  1.0000 -0.5102892239
O   O23       1.0  0.09250  0.29190  0.19650  1.0000 -0.5379284838
O   O24       1.0  0.90750  0.70810  0.80350  1.0000 -0.5379284838
O   O25       1.0  0.50970  0.25530  0.34280  1.0000 -0.4925276706
O   O26       1.0  0.49030  0.74470  0.65720  1.0000 -0.4925276706
O   O27       1.0  0.41350  0.29520  0.32220  1.0000 -0.5207855026
O   O28       1.0  0.58650  0.70480  0.67780  1.0000 -0.5207855026
O   O29       1.0  0.01900  0.66030  0.71150  1.0000 -0.4995562056
O   O30       1.0  0.98100  0.33970  0.28850  1.0000 -0.4995562056
O   O31       1.0  0.08690  0.68150  0.75850  1.0000 -0.4995562056
O   O32       1.0  0.91310  0.31850  0.24150  1.0000 -0.4995562056
O   O33       1.0  0.27350  0.45430  0.56050  1.0000 -0.1918538878
O   O34       1.0  0.72650  0.54570  0.43950  1.0000 -0.1918538878
O   O35       1.0  0.26850  0.46030  0.95140  1.0000 -0.1498660347
O   O36       1.0  0.73150  0.53970  0.04860  1.0000 -0.1442034314
O   O37       1.0  0.26080  0.94870  0.06240  1.0000 -0.1591883991
O   O38       1.0  0.73920  0.05130  0.93760  1.0000 -0.1591883991
O   O39       1.0  0.27710  0.95500  0.45430  1.0000 -0.1293756882
O   O40       1.0  0.72290  0.04500  0.54570  1.0000 -0.1293756882
