# DDEC6 charges by PACMAN v1.1 (https://github.com/mtap-research/PACMAN-charge/)
data_2013[Y][nan]3[ASR]5
_chemical_formula_sum              "Y4 H42 C78 N6 O24"
_cell_length_a       12.725
_cell_length_b       13.57
_cell_length_c       14.12
_cell_angle_alpha    66.224
_cell_angle_beta     67.182
_cell_angle_gamma    77.113

_symmetry_space_group_name_H-M    "P 1"
_symmetry_Int_Tables_number       1

loop_
  _symmetry_equiv_pos_as_xyz
  'x, y, z'

loop_
  _atom_site_type_symbol
  _atom_site_label
  _atom_site_symmetry_multiplicity
  _atom_site_fract_x
  _atom_site_fract_y
  _atom_site_fract_z
  _atom_site_occupancy
  _atom_site_charge
Y   Y1        1.0  0.93099  0.38982  0.50390  1.0000 1.8099507761
Y   Y2        1.0  0.06901  0.61018  0.49610  1.0000 1.8099507761
Y   Y3        1.0  0.92759  0.31565  0.16983  1.0000 1.8099507761
Y   Y4        1.0  0.07241  0.68435  0.83017  1.0000 1.8099507761
H   H1        1.0  0.58248  0.37021  0.59682  1.0000 0.0998300863
H   H2        1.0  0.41752  0.62979  0.40318  1.0000 0.0998300863
H   H3        1.0  0.28984  0.36725  0.53537  1.0000 0.071293052
H   H4        1.0  0.71016  0.63275  0.46463  1.0000 0.071293052
H   H5        1.0  0.62093  0.36807  0.27998  1.0000 0.1121384964
H   H6        1.0  0.37907  0.63193  0.72002  1.0000 0.1121384964
H   H7        1.0  0.53798  0.25660  0.26343  1.0000 0.0998300863
H   H8        1.0  0.46202  0.74340  0.73657  1.0000 0.0998300863
H   H9        1.0  0.46167  0.22650  0.14138  1.0000 0.0998300863
H   H10       1.0  0.53833  0.77350  0.85862  1.0000 0.0998300863
H   H11       1.0  0.26706  0.30961  0.13253  1.0000 0.0998300863
H   H12       1.0  0.73294  0.69039  0.86747  1.0000 0.0998300863
H   H13       1.0  0.15654  0.42738  0.24247  1.0000 0.1160156501
H   H14       1.0  0.84346  0.57262  0.75753  1.0000 0.1160156501
H   H15       1.0  0.92607  0.85849  0.22689  1.0000 0.0998300863
H   H16       1.0  0.07393  0.14151  0.77311  1.0000 0.0998300863
H   H17       1.0  0.69993  0.89465  0.06422  1.0000 0.079955015
H   H18       1.0  0.30007  0.10535  0.93578  1.0000 0.079955015
H   H19       1.0  0.80357  0.57214  0.25377  1.0000 0.1160156501
H   H20       1.0  0.19643  0.42786  0.74623  1.0000 0.1160156501
H   H21       1.0  0.51721  0.77070  0.20167  1.0000 0.0998300863
H   H22       1.0  0.48279  0.22930  0.79833  1.0000 0.0998300863
H   H23       1.0  0.37716  0.68442  0.18091  1.0000 0.1121384964
H   H24       1.0  0.62284  0.31558  0.81909  1.0000 0.1121384964
H   H25       1.0  0.44750  0.53329  0.10630  1.0000 0.0907214635
H   H26       1.0  0.55250  0.46671  0.89370  1.0000 0.0907214635
H   H27       1.0  0.65557  0.47542  0.04916  1.0000 0.1121384964
H   H28       1.0  0.34443  0.52458  0.95084  1.0000 0.1121384964
H   H29       1.0  0.64560  0.13663  0.16329  1.0000 0.0998300863
H   H30       1.0  0.35440  0.86337  0.83671  1.0000 0.0998300863
H   H31       1.0  0.50628  0.99337  0.24081  1.0000 0.0998300863
H   H32       1.0  0.49372  0.00663  0.75919  1.0000 0.0998300863
H   H33       1.0  0.49701  0.84649  0.42090  1.0000 0.0907214635
H   H34       1.0  0.50299  0.15351  0.57910  1.0000 0.0907214635
H   H35       1.0  0.61722  0.84654  0.52396  1.0000 0.0998300863
H   H36       1.0  0.38278  0.15346  0.47604  1.0000 0.0998300863
H   H37       1.0  0.71475  0.14931  0.47114  1.0000 0.071293052
H   H38       1.0  0.28525  0.85069  0.52886  1.0000 0.071293052
H   H39       1.0  0.91376  0.97620  0.67020  1.0000 0.0998300863
H   H40       1.0  0.08624  0.02380  0.32980  1.0000 0.0998300863
H   H41       1.0  0.82938  0.81567  0.50206  1.0000 0.1121384964
H   H42       1.0  0.17062  0.18433  0.49794  1.0000 0.1121384964
C   C1        1.0  0.74398  0.36170  0.40416  1.0000 0.6613619101
C   C2        1.0  0.25602  0.63830  0.59584  1.0000 0.6613619101
C   C3        1.0  0.61690  0.36647  0.43442  1.0000 -0.0987620033
C   C4        1.0  0.38310  0.63353  0.56558  1.0000 -0.0987620033
C   C5        1.0  0.54560  0.36955  0.53853  1.0000 0.0907214635
C   C6        1.0  0.45440  0.63045  0.46147  1.0000 0.0907214635
C   C7        1.0  0.38345  0.37124  0.50113  1.0000 0.0623184488
C   C8        1.0  0.61655  0.62876  0.49887  1.0000 0.0623184488
C   C9        1.0  0.44654  0.37052  0.39415  1.0000 0.0295210552
C   C10       1.0  0.55346  0.62948  0.60585  1.0000 0.0295210552
C   C11       1.0  0.56612  0.36854  0.36174  1.0000 -0.0909712153
C   C12       1.0  0.43388  0.63146  0.63826  1.0000 -0.0909712153
C   C13       1.0  0.39427  0.36139  0.32062  1.0000 0.0520636958
C   C14       1.0  0.60573  0.63861  0.67938  1.0000 0.0520636958
C   C15       1.0  0.45476  0.29556  0.25762  1.0000 -0.1313248751
C   C16       1.0  0.54524  0.70444  0.74238  1.0000 -0.1313248751
C   C17       1.0  0.41148  0.27769  0.18949  1.0000 -0.0647673908
C   C18       1.0  0.58852  0.72231  0.81051  1.0000 -0.0647673908
C   C19       1.0  0.30346  0.32491  0.18350  1.0000 -0.0728495124
C   C20       1.0  0.69654  0.67509  0.81650  1.0000 -0.0728495124
C   C21       1.0  0.24156  0.39039  0.24516  1.0000 -0.0909712153
C   C22       1.0  0.75844  0.60961  0.75484  1.0000 -0.0909712153
C   C23       1.0  0.28588  0.40922  0.31287  1.0000 -0.0779334161
C   C24       1.0  0.71412  0.59078  0.68713  1.0000 -0.0779334161
C   C25       1.0  0.21253  0.48249  0.37253  1.0000 0.6019025517
C   C26       1.0  0.78747  0.51751  0.62747  1.0000 0.6019025517
C   C27       1.0  0.94181  0.63617  0.32020  1.0000 0.6494404745
C   C28       1.0  0.05819  0.36383  0.67980  1.0000 0.6494404745
C   C29       1.0  0.87742  0.70658  0.24447  1.0000 -0.0987620033
C   C30       1.0  0.12258  0.29342  0.75553  1.0000 -0.0987620033
C   C31       1.0  0.87668  0.81977  0.20442  1.0000 0.0907214635
C   C32       1.0  0.12332  0.18023  0.79558  1.0000 0.0907214635
C   C33       1.0  0.74928  0.83860  0.11651  1.0000 0.0623184488
C   C34       1.0  0.25072  0.16140  0.88349  1.0000 0.0623184488
C   C35       1.0  0.74332  0.72620  0.15300  1.0000 0.0295210552
C   C36       1.0  0.25668  0.27380  0.84700  1.0000 0.0295210552
C   C37       1.0  0.80884  0.65977  0.21889  1.0000 -0.0779334161
C   C38       1.0  0.19116  0.34023  0.78111  1.0000 -0.0779334161
C   C39       1.0  0.66593  0.67927  0.12898  1.0000 0.0623184488
C   C40       1.0  0.33407  0.32073  0.87102  1.0000 0.0623184488
C   C41       1.0  0.54775  0.70987  0.16234  1.0000 -0.1313248751
C   C42       1.0  0.45225  0.29013  0.83766  1.0000 -0.1313248751
C   C43       1.0  0.46905  0.66050  0.15222  1.0000 -0.0647673908
C   C44       1.0  0.53095  0.33950  0.84778  1.0000 -0.0647673908
C   C45       1.0  0.50837  0.57565  0.11145  1.0000 -0.0728495124
C   C46       1.0  0.49163  0.42435  0.88855  1.0000 -0.0728495124
C   C47       1.0  0.62521  0.54291  0.07933  1.0000 -0.0987620033
C   C48       1.0  0.37479  0.45709  0.92067  1.0000 -0.0987620033
C   C49       1.0  0.70534  0.59623  0.08390  1.0000 -0.0909712153
C   C50       1.0  0.29466  0.40377  0.91610  1.0000 -0.0909712153
C   C51       1.0  0.83123  0.56784  0.03380  1.0000 0.6613619101
C   C52       1.0  0.16877  0.43216  0.96620  1.0000 0.6613619101
C   C53       1.0  0.79200  0.15445  0.24042  1.0000 0.5742911172
C   C54       1.0  0.20800  0.84555  0.75958  1.0000 0.5742911172
C   C55       1.0  0.70639  0.07172  0.29965  1.0000 -0.0779334161
C   C56       1.0  0.29361  0.92828  0.70035  1.0000 -0.0779334161
C   C57       1.0  0.63593  0.07228  0.24341  1.0000 -0.0909712153
C   C58       1.0  0.36407  0.92772  0.75659  1.0000 -0.0909712153
C   C59       1.0  0.56043  0.99265  0.28594  1.0000 -0.0779334161
C   C60       1.0  0.43957  0.00735  0.71406  1.0000 -0.0779334161
C   C61       1.0  0.55511  0.91024  0.38667  1.0000 -0.0647673908
C   C62       1.0  0.44489  0.08976  0.61333  1.0000 -0.0647673908
C   C63       1.0  0.62384  0.90957  0.44381  1.0000 -0.1313248751
C   C64       1.0  0.37616  0.09043  0.55619  1.0000 -0.1313248751
C   C65       1.0  0.70023  0.98925  0.40309  1.0000 0.0623184488
C   C66       1.0  0.29977  0.01075  0.59691  1.0000 0.0623184488
C   C67       1.0  0.76449  0.98410  0.47364  1.0000 0.0295210552
C   C68       1.0  0.23551  0.01590  0.52636  1.0000 0.0295210552
C   C69       1.0  0.76262  0.07256  0.50322  1.0000 0.0623184488
C   C70       1.0  0.23738  0.92744  0.49678  1.0000 0.0623184488
C   C71       1.0  0.86989  0.97660  0.61644  1.0000 0.079955015
C   C72       1.0  0.13011  0.02340  0.38356  1.0000 0.079955015
C   C73       1.0  0.87526  0.88329  0.59431  1.0000 -0.1053555499
C   C74       1.0  0.12474  0.11671  0.40569  1.0000 -0.1053555499
C   C75       1.0  0.82299  0.88785  0.52126  1.0000 -0.0909712153
C   C76       1.0  0.17701  0.11215  0.47874  1.0000 -0.0909712153
C   C77       1.0  0.94005  0.78117  0.64114  1.0000 0.6669123841
C   C78       1.0  0.05995  0.21883  0.35886  1.0000 0.6669123841
N   N1        1.0  0.43036  0.37236  0.57200  1.0000 -0.2706073749
N   N2        1.0  0.56964  0.62764  0.42800  1.0000 -0.2706073749
N   N3        1.0  0.81457  0.88530  0.14056  1.0000 -0.2706073749
N   N4        1.0  0.18543  0.11470  0.85944  1.0000 -0.2706073749
N   N5        1.0  0.81428  0.07115  0.57134  1.0000 -0.2706073749
N   N6        1.0  0.18572  0.92885  0.42866  1.0000 -0.2706073749
O   O1        1.0  0.78109  0.35189  0.47908  1.0000 -0.6045564937
O   O2        1.0  0.21891  0.64811  0.52092  1.0000 -0.6045564937
O   O3        1.0  0.80729  0.36794  0.30524  1.0000 -0.6593539941
O   O4        1.0  0.19271  0.63206  0.69476  1.0000 -0.6593539941
O   O5        1.0  0.11019  0.45467  0.43801  1.0000 -0.6998333263
O   O6        1.0  0.88981  0.54533  0.56199  1.0000 -0.6998333263
O   O7        1.0  0.24501  0.56966  0.36064  1.0000 -0.557047956
O   O8        1.0  0.75499  0.43034  0.63936  1.0000 -0.557047956
O   O9        1.0  0.93060  0.53436  0.35436  1.0000 -0.6215060281
O   O10       1.0  0.06940  0.46564  0.64564  1.0000 -0.6215060281
O   O11       1.0  0.99962  0.67914  0.34836  1.0000 -0.6215060281
O   O12       1.0  0.00038  0.32086  0.65164  1.0000 -0.6215060281
O   O13       1.0  0.86624  0.46763  0.05602  1.0000 -0.6393339562
O   O14       1.0  0.13376  0.53237  0.94398  1.0000 -0.6393339562
O   O15       1.0  0.89548  0.64513  0.96692  1.0000 -0.6323310661
O   O16       1.0  0.10452  0.35487  0.03308  1.0000 -0.6323310661
O   O17       1.0  0.88944  0.13472  0.25580  1.0000 -0.6106605309
O   O18       1.0  0.11056  0.86528  0.74420  1.0000 -0.6106605309
O   O19       1.0  0.76984  0.24710  0.17185  1.0000 -0.6106605309
O   O20       1.0  0.23016  0.75290  0.82815  1.0000 -0.6106605309
O   O21       1.0  0.97866  0.71915  0.58506  1.0000 -0.6393339562
O   O22       1.0  0.02134  0.28085  0.41494  1.0000 -0.6393339562
O   O23       1.0  0.95205  0.75900  0.73347  1.0000 -0.6215060281
O   O24       1.0  0.04795  0.24100  0.26653  1.0000 -0.6215060281
