# DDEC6 charges by PACMAN v1.1 (https://github.com/mtap-research/PACMAN-charge/)
data_2013[Mg][acs]3[ASR]4
_chemical_formula_sum              "Mg2 H6 C6 O12"
_cell_length_a       7.2638
_cell_length_b       7.2638
_cell_length_c       8.2098
_cell_angle_alpha    90
_cell_angle_beta     90
_cell_angle_gamma    120

_symmetry_space_group_name_H-M    "P 1"
_symmetry_Int_Tables_number       1

loop_
  _symmetry_equiv_pos_as_xyz
  'x, y, z'

loop_
  _atom_site_type_symbol
  _atom_site_label
  _atom_site_symmetry_multiplicity
  _atom_site_fract_x
  _atom_site_fract_y
  _atom_site_fract_z
  _atom_site_occupancy
  _atom_site_charge
Mg  Mg1       1.0  0.66667  0.33333  0.75000  1.0000 1.2819874321
Mg  Mg2       1.0  0.33333  0.66667  0.25000  1.0000 1.2819874321
H   H1        1.0  0.00000  0.56810  0.00000  1.0000 0.1066824481
H   H2        1.0  0.43190  0.43190  0.00000  1.0000 0.1066824481
H   H3        1.0  0.56810  0.00000  0.00000  1.0000 0.1066824481
H   H4        1.0  0.00000  0.43190  0.50000  1.0000 0.1066824481
H   H5        1.0  0.56810  0.56810  0.50000  1.0000 0.1066824481
H   H6        1.0  0.43190  0.00000  0.50000  1.0000 0.1066824481
C   C1        1.0  0.00000  0.44000  0.00000  1.0000 0.5188009773
C   C2        1.0  0.56000  0.56000  0.00000  1.0000 0.5188009773
C   C3        1.0  0.44000  0.00000  0.00000  1.0000 0.5188009773
C   C4        1.0  0.00000  0.56000  0.50000  1.0000 0.5188009773
C   C5        1.0  0.44000  0.44000  0.50000  1.0000 0.5188009773
C   C6        1.0  0.56000  0.00000  0.50000  1.0000 0.5188009773
O   O1        1.0  0.89072  0.31019  0.89399  1.0000 -0.5264062847
O   O2        1.0  0.68981  0.58053  0.89399  1.0000 -0.5264062847
O   O3        1.0  0.41947  0.10928  0.89399  1.0000 -0.5264062847
O   O4        1.0  0.10928  0.68981  0.39399  1.0000 -0.5264062847
O   O5        1.0  0.31019  0.41947  0.39399  1.0000 -0.5264062847
O   O6        1.0  0.58053  0.89072  0.39399  1.0000 -0.5264062847
O   O7        1.0  0.31019  0.89072  0.10601  1.0000 -0.5264062847
O   O8        1.0  0.58053  0.68981  0.10601  1.0000 -0.5264062847
O   O9        1.0  0.10928  0.41947  0.10601  1.0000 -0.5264062847
O   O10       1.0  0.68981  0.10928  0.60601  1.0000 -0.5264062847
O   O11       1.0  0.41947  0.31019  0.60601  1.0000 -0.5264062847
O   O12       1.0  0.89072  0.58053  0.60601  1.0000 -0.5264062847
