# DDEC6 charges by PACMAN v1.1 (https://github.com/mtap-research/PACMAN-charge/)
data_2013[Zn][nan]3[ASR]6
_chemical_formula_sum              "Zn3 H34 C44 O10"
_cell_length_a       5.966
_cell_length_b       19.0132
_cell_length_c       19.0132
_cell_angle_alpha    101.327
_cell_angle_beta     97.7515
_cell_angle_gamma    82.2485

_symmetry_space_group_name_H-M    "P 1"
_symmetry_Int_Tables_number       1

loop_
  _symmetry_equiv_pos_as_xyz
  'x, y, z'

loop_
  _atom_site_type_symbol
  _atom_site_label
  _atom_site_symmetry_multiplicity
  _atom_site_fract_x
  _atom_site_fract_y
  _atom_site_fract_z
  _atom_site_occupancy
  _atom_site_charge
Zn  Zn1       1.0  0.50000  0.00000  0.00000  1.0000 0.9530468677
Zn  Zn2       1.0  1.00000  0.06012  0.06012  1.0000 0.9035248851
Zn  Zn3       1.0  0.00000  0.93988  0.93988  1.0000 0.9035248851
H   H1        1.0  0.75230  0.28730  0.07190  1.0000 0.120347158
H   H2        1.0  0.55280  0.39690  0.05830  1.0000 0.120347158
H   H3        1.0  0.01120  0.30410  0.97090  1.0000 0.120347158
H   H4        1.0  0.19040  0.19480  0.99240  1.0000 0.1093175406
H   H5        1.0  0.04880  0.56100  0.91200  1.0000 0.120347158
H   H6        1.0  0.34540  0.47880  0.86920  1.0000 0.1285320838
H   H7        1.0  0.50220  0.45290  0.93650  1.0000 0.120347158
H   H8        1.0  0.35690  0.39720  0.88060  1.0000 0.1285320838
H   H9        1.0  0.24770  0.07190  0.28730  1.0000 0.120347158
H   H10       1.0  0.44720  0.05830  0.39690  1.0000 0.120347158
H   H11       1.0  0.98880  0.97090  0.30410  1.0000 0.120347158
H   H12       1.0  0.80960  0.99240  0.19480  1.0000 0.1285320838
H   H13       1.0  0.95120  0.91200  0.56100  1.0000 0.120347158
H   H14       1.0  0.65460  0.86920  0.47880  1.0000 0.1285320838
H   H15       1.0  0.49780  0.93650  0.45290  1.0000 0.120347158
H   H16       1.0  0.64310  0.88060  0.39720  1.0000 0.1356549059
H   H17       1.0  0.24770  0.71270  0.92810  1.0000 0.120347158
H   H18       1.0  0.44720  0.60310  0.94170  1.0000 0.120347158
H   H19       1.0  0.98880  0.69590  0.02910  1.0000 0.120347158
H   H20       1.0  0.80960  0.80520  0.00760  1.0000 0.1093175406
H   H21       1.0  0.95120  0.43900  0.08800  1.0000 0.120347158
H   H22       1.0  0.65460  0.52120  0.13080  1.0000 0.1285320838
H   H23       1.0  0.49780  0.54710  0.06350  1.0000 0.120347158
H   H24       1.0  0.64310  0.60280  0.11940  1.0000 0.1285320838
H   H25       1.0  0.75230  0.92810  0.71270  1.0000 0.120347158
H   H26       1.0  0.55280  0.94170  0.60310  1.0000 0.120347158
H   H27       1.0  0.01120  0.02910  0.69590  1.0000 0.120347158
H   H28       1.0  0.19040  0.00760  0.80520  1.0000 0.1285320838
H   H29       1.0  0.04880  0.08800  0.43900  1.0000 0.120347158
H   H30       1.0  0.34540  0.13080  0.52120  1.0000 0.1285320838
H   H31       1.0  0.50220  0.06350  0.54710  1.0000 0.120347158
H   H32       1.0  0.35690  0.11940  0.60280  1.0000 0.1356549059
H   H33       1.0  0.83730  0.91805  0.01777  1.0000 0.3437137698
H   H34       1.0  0.16270  0.08195  0.98223  1.0000 0.3437137698
C   C1        1.0  0.62620  0.15700  0.03440  1.0000 0.5510159825
C   C2        1.0  0.50070  0.22850  0.02930  1.0000 -0.0385642479
C   C3        1.0  0.59840  0.28910  0.05090  1.0000 -0.1013829552
C   C4        1.0  0.47710  0.35470  0.04290  1.0000 -0.1714779156
C   C5        1.0  0.25830  0.36260  0.01440  1.0000 0.0913094674
C   C6        1.0  0.16320  0.30170  0.99370  1.0000 -0.1565705965
C   C7        1.0  0.27210  0.23580  0.00340  1.0000 -0.1110890711
C   C8        1.0  0.12560  0.43370  0.00670  1.0000 0.0034695527
C   C9        1.0  0.15490  0.46940  0.95160  1.0000 0.1093175406
C   C10       1.0  0.02610  0.53590  0.94850  1.0000 -0.2098080869
C   C11       1.0  0.35890  0.44760  0.90520  1.0000 -0.4510166253
C   C12       1.0  0.37380  0.03440  0.15700  1.0000 0.5510159825
C   C13       1.0  0.49930  0.02930  0.22850  1.0000 -0.0385642479
C   C14       1.0  0.40160  0.05090  0.28910  1.0000 -0.1013829552
C   C15       1.0  0.52290  0.04290  0.35470  1.0000 -0.1714779156
C   C16       1.0  0.74170  0.01440  0.36260  1.0000 0.0913094674
C   C17       1.0  0.83680  0.99370  0.30170  1.0000 -0.1565705965
C   C18       1.0  0.72790  0.00340  0.23580  1.0000 -0.1013829552
C   C19       1.0  0.87440  0.00670  0.43370  1.0000 0.0034695527
C   C20       1.0  0.84510  0.95160  0.46940  1.0000 0.1093175406
C   C21       1.0  0.97390  0.94850  0.53590  1.0000 -0.2098080869
C   C22       1.0  0.64110  0.90520  0.44760  1.0000 -0.4510166253
C   C23       1.0  0.37380  0.84300  0.96560  1.0000 0.5510159825
C   C24       1.0  0.49930  0.77150  0.97070  1.0000 -0.0385642479
C   C25       1.0  0.40160  0.71090  0.94910  1.0000 -0.1013829552
C   C26       1.0  0.52290  0.64530  0.95710  1.0000 -0.1714779156
C   C27       1.0  0.74170  0.63740  0.98560  1.0000 0.0913094674
C   C28       1.0  0.83680  0.69830  0.00630  1.0000 -0.1565705965
C   C29       1.0  0.72790  0.76420  0.99660  1.0000 -0.1110890711
C   C30       1.0  0.87440  0.56630  0.99330  1.0000 0.0034695527
C   C31       1.0  0.84510  0.53060  0.04840  1.0000 0.1093175406
C   C32       1.0  0.97390  0.46410  0.05150  1.0000 -0.2098080869
C   C33       1.0  0.64110  0.55240  0.09480  1.0000 -0.4510166253
C   C34       1.0  0.62620  0.96560  0.84300  1.0000 0.5510159825
C   C35       1.0  0.50070  0.97070  0.77150  1.0000 -0.0385642479
C   C36       1.0  0.59840  0.94910  0.71090  1.0000 -0.1013829552
C   C37       1.0  0.47710  0.95710  0.64530  1.0000 -0.1714779156
C   C38       1.0  0.25830  0.98560  0.63740  1.0000 0.0913094674
C   C39       1.0  0.16320  0.00630  0.69830  1.0000 -0.1565705965
C   C40       1.0  0.27210  0.99660  0.76420  1.0000 -0.1013829552
C   C41       1.0  0.12560  0.99330  0.56630  1.0000 0.0034695527
C   C42       1.0  0.15490  0.04840  0.53060  1.0000 0.1093175406
C   C43       1.0  0.02610  0.05150  0.46410  1.0000 -0.2098080869
C   C44       1.0  0.35890  0.09480  0.55240  1.0000 -0.4510166253
O   O1        1.0  0.54030  0.10380  0.01300  1.0000 -0.4600575472
O   O2        1.0  0.82670  0.15352  0.06040  1.0000 -0.4802300165
O   O3        1.0  0.45970  0.01300  0.10380  1.0000 -0.4600575472
O   O4        1.0  0.17330  0.06040  0.15352  1.0000 -0.4802300165
O   O5        1.0  0.45970  0.89620  0.98700  1.0000 -0.4600575472
O   O6        1.0  0.17330  0.84648  0.93960  1.0000 -0.4802300165
O   O7        1.0  0.54030  0.98700  0.89620  1.0000 -0.4600575472
O   O8        1.0  0.82670  0.93960  0.84648  1.0000 -0.4802300165
O   O9        1.0  0.16270  0.02831  0.97169  1.0000 -0.8458715285
O   O10       1.0  0.83730  0.97169  0.02831  1.0000 -0.8458715285
