# DDEC6 charges by PACMAN v1.1 (https://github.com/mtap-research/PACMAN-charge/)
data_2013[Zn][ins]3[ASR]2
_chemical_formula_sum              "Zn4 H32 C36 N4 O16"
_cell_length_a       7.249
_cell_length_b       23.93
_cell_length_c       10.339
_cell_angle_alpha    90
_cell_angle_beta     134.147
_cell_angle_gamma    90

_symmetry_space_group_name_H-M    "P 1"
_symmetry_Int_Tables_number       1

loop_
  _symmetry_equiv_pos_as_xyz
  'x, y, z'

loop_
  _atom_site_type_symbol
  _atom_site_label
  _atom_site_symmetry_multiplicity
  _atom_site_fract_x
  _atom_site_fract_y
  _atom_site_fract_z
  _atom_site_occupancy
  _atom_site_charge
Zn  Zn1       1.0  0.99439  0.21804  0.42295  1.0000 0.8954939945
Zn  Zn2       1.0  0.00561  0.71804  0.07705  1.0000 0.8954939945
Zn  Zn3       1.0  0.00561  0.78196  0.57705  1.0000 0.8954939945
Zn  Zn4       1.0  0.99439  0.28196  0.92295  1.0000 0.8954939945
H   H1        1.0  0.07580  0.35100  0.50290  1.0000 0.1547255358
H   H2        1.0  0.92420  0.85100  0.99710  1.0000 0.1547255358
H   H3        1.0  0.92420  0.64900  0.49710  1.0000 0.1547255358
H   H4        1.0  0.07580  0.14900  0.00290  1.0000 0.1547255358
H   H5        1.0  0.27690  0.37320  0.70670  1.0000 0.1547255358
H   H6        1.0  0.72310  0.87320  0.79330  1.0000 0.1547255358
H   H7        1.0  0.72310  0.62680  0.29330  1.0000 0.1547255358
H   H8        1.0  0.27690  0.12680  0.20670  1.0000 0.1547255358
H   H9        1.0  0.22880  0.01510  0.60890  1.0000 0.1270380033
H   H10       1.0  0.77120  0.51510  0.89110  1.0000 0.1270380033
H   H11       1.0  0.77120  0.98490  0.39110  1.0000 0.1270380033
H   H12       1.0  0.22880  0.48490  0.10890  1.0000 0.1270380033
H   H13       1.0  0.02720  0.09140  0.41950  1.0000 0.1109994259
H   H14       1.0  0.97280  0.59140  0.08050  1.0000 0.1109994259
H   H15       1.0  0.97280  0.90860  0.58050  1.0000 0.1109994259
H   H16       1.0  0.02720  0.40860  0.91950  1.0000 0.1109994259
H   H17       1.0  0.37920  0.19350  0.83090  1.0000 0.1236553905
H   H18       1.0  0.62080  0.69350  0.66910  1.0000 0.1236553905
H   H19       1.0  0.62080  0.80650  0.16910  1.0000 0.1236553905
H   H20       1.0  0.37920  0.30650  0.33090  1.0000 0.1236553905
H   H21       1.0  0.59130  0.12010  0.03290  1.0000 0.1414661212
H   H22       1.0  0.40870  0.62010  0.46710  1.0000 0.1414661212
H   H23       1.0  0.40870  0.87990  0.96710  1.0000 0.1414661212
H   H24       1.0  0.59130  0.37990  0.53290  1.0000 0.1414661212
H   H25       1.0  0.74590  0.02030  0.08120  1.0000 0.1236553905
H   H26       1.0  0.25410  0.52030  0.41880  1.0000 0.1236553905
H   H27       1.0  0.25410  0.97970  0.91880  1.0000 0.1270380033
H   H28       1.0  0.74590  0.47970  0.58120  1.0000 0.1236553905
H   H29       1.0  0.57480  0.97820  0.91380  1.0000 0.1236553905
H   H30       1.0  0.42520  0.47820  0.58620  1.0000 0.1236553905
H   H31       1.0  0.42520  0.02180  0.08620  1.0000 0.1236553905
H   H32       1.0  0.57480  0.52180  0.41380  1.0000 0.1236553905
C   C1        1.0  0.06710  0.30489  0.66860  1.0000 0.6683637826
C   C2        1.0  0.93290  0.80489  0.83140  1.0000 0.6683637826
C   C3        1.0  0.93290  0.69511  0.33140  1.0000 0.6683637826
C   C4        1.0  0.06710  0.19511  0.16860  1.0000 0.6683637826
C   C5        1.0  0.20240  0.33919  0.63080  1.0000 -0.5119650261
C   C6        1.0  0.79760  0.83919  0.86920  1.0000 -0.5119650261
C   C7        1.0  0.79760  0.66081  0.36920  1.0000 -0.5119650261
C   C8        1.0  0.20240  0.16081  0.13080  1.0000 -0.5119650261
C   C9        1.0  0.41540  0.30536  0.67020  1.0000 0.6683637826
C   C10       1.0  0.58460  0.80536  0.82980  1.0000 0.6683637826
C   C11       1.0  0.58460  0.69464  0.32980  1.0000 0.6683637826
C   C12       1.0  0.41540  0.19464  0.17020  1.0000 0.6683637826
C   C13       1.0  0.26290  0.05150  0.65830  1.0000 -0.2246063323
C   C14       1.0  0.73710  0.55150  0.84170  1.0000 -0.2246063323
C   C15       1.0  0.73710  0.94850  0.34170  1.0000 -0.2246063323
C   C16       1.0  0.26290  0.44850  0.15830  1.0000 -0.2246063323
C   C17       1.0  0.14300  0.09729  0.54580  1.0000 0.0888467757
C   C18       1.0  0.85700  0.59729  0.95420  1.0000 0.0888467757
C   C19       1.0  0.85700  0.90271  0.45420  1.0000 0.0888467757
C   C20       1.0  0.14300  0.40271  0.04580  1.0000 0.0888467757
C   C21       1.0  0.34800  0.15667  0.78540  1.0000 0.1109994259
C   C22       1.0  0.65200  0.65667  0.71460  1.0000 0.1109994259
C   C23       1.0  0.65200  0.84333  0.21460  1.0000 0.1109994259
C   C24       1.0  0.34800  0.34333  0.28540  1.0000 0.1109994259
C   C25       1.0  0.47580  0.11300  0.90720  1.0000 -0.1972198271
C   C26       1.0  0.52420  0.61300  0.59280  1.0000 -0.1972198271
C   C27       1.0  0.52420  0.88700  0.09280  1.0000 -0.1972198271
C   C28       1.0  0.47580  0.38700  0.40720  1.0000 -0.1972198271
C   C29       1.0  0.43420  0.05847  0.84440  1.0000 0.1640259428
C   C30       1.0  0.56580  0.55847  0.65560  1.0000 0.1640259428
C   C31       1.0  0.56580  0.94153  0.15560  1.0000 0.1640259428
C   C32       1.0  0.43420  0.44153  0.34440  1.0000 0.1640259428
C   C33       1.0  0.56720  0.00958  0.97230  1.0000 -0.2373562799
C   C34       1.0  0.43280  0.50958  0.52770  1.0000 -0.2373562799
C   C35       1.0  0.43280  0.99042  0.02770  1.0000 -0.2373562799
C   C36       1.0  0.56720  0.49042  0.47230  1.0000 -0.2373562799
N   N1        1.0  0.18220  0.14970  0.60620  1.0000 -0.2097459482
N   N2        1.0  0.81780  0.64970  0.89380  1.0000 -0.2097459482
N   N3        1.0  0.81780  0.85030  0.39380  1.0000 -0.2097459482
N   N4        1.0  0.18220  0.35030  0.10620  1.0000 -0.2097459482
O   O1        1.0  0.95650  0.26020  0.58200  1.0000 -0.5679634259
O   O2        1.0  0.04350  0.76020  0.91800  1.0000 -0.5679634259
O   O3        1.0  0.04350  0.73980  0.41800  1.0000 -0.5679634259
O   O4        1.0  0.95650  0.23980  0.08200  1.0000 -0.5679634259
O   O5        1.0  0.07350  0.32326  0.78580  1.0000 -0.5641268836
O   O6        1.0  0.92650  0.82326  0.71420  1.0000 -0.5641268836
O   O7        1.0  0.92650  0.67674  0.21420  1.0000 -0.5641268836
O   O8        1.0  0.07350  0.17674  0.28580  1.0000 -0.5641268836
O   O9        1.0  0.35250  0.26025  0.58290  1.0000 -0.5759130017
O   O10       1.0  0.64750  0.76025  0.91710  1.0000 -0.5759130017
O   O11       1.0  0.64750  0.73975  0.41710  1.0000 -0.5759130017
O   O12       1.0  0.35250  0.23975  0.08290  1.0000 -0.5759130017
O   O13       1.0  0.64010  0.32407  0.78600  1.0000 -0.5679634259
O   O14       1.0  0.35990  0.82407  0.71400  1.0000 -0.5679634259
O   O15       1.0  0.35990  0.67593  0.21400  1.0000 -0.5679634259
O   O16       1.0  0.64010  0.17593  0.28600  1.0000 -0.5679634259
