# DDEC6 charges by PACMAN v1.1 (https://github.com/mtap-research/PACMAN-charge/)
data_2013[Zn][uni]3[ASR]9
_chemical_formula_sum              "Zn6 H90 C66 N12 O12"
_cell_length_a       17.4542
_cell_length_b       17.4542
_cell_length_c       10.3953
_cell_angle_alpha    90
_cell_angle_beta     90
_cell_angle_gamma    120

_symmetry_space_group_name_H-M    "P 1"
_symmetry_Int_Tables_number       1

loop_
  _symmetry_equiv_pos_as_xyz
  'x, y, z'

loop_
  _atom_site_type_symbol
  _atom_site_label
  _atom_site_symmetry_multiplicity
  _atom_site_fract_x
  _atom_site_fract_y
  _atom_site_fract_z
  _atom_site_occupancy
  _atom_site_charge
Zn  Zn1       1.0  0.53338  0.46204  0.11541  1.0000 0.6395928273
Zn  Zn2       1.0  0.07134  0.53338  0.28208  1.0000 0.6395928273
Zn  Zn3       1.0  0.53796  0.07134  0.44874  1.0000 0.6395928273
Zn  Zn4       1.0  0.46662  0.53796  0.61541  1.0000 0.6395928273
Zn  Zn5       1.0  0.92866  0.46662  0.78208  1.0000 0.6395928273
Zn  Zn6       1.0  0.46204  0.92866  0.94874  1.0000 0.6395928273
H   H1        1.0  0.44660  0.52760  0.21100  1.0000 0.2443824023
H   H2        1.0  0.91900  0.44660  0.37767  1.0000 0.2443824023
H   H3        1.0  0.47240  0.91900  0.54433  1.0000 0.2443824023
H   H4        1.0  0.55340  0.47240  0.71100  1.0000 0.2443824023
H   H5        1.0  0.08100  0.55340  0.87767  1.0000 0.2443824023
H   H6        1.0  0.52760  0.08100  0.04433  1.0000 0.2443824023
H   H7        1.0  0.20120  0.38050  0.02930  1.0000 0.1283392692
H   H8        1.0  0.82070  0.20120  0.19597  1.0000 0.1283392692
H   H9        1.0  0.61950  0.82070  0.36263  1.0000 0.1283392692
H   H10       1.0  0.79880  0.61950  0.52930  1.0000 0.1283392692
H   H11       1.0  0.17930  0.79880  0.69597  1.0000 0.1283392692
H   H12       1.0  0.38050  0.17930  0.86263  1.0000 0.1283392692
H   H13       1.0  0.37140  0.52910  0.00750  1.0000 0.1009099468
H   H14       1.0  0.84230  0.37140  0.17417  1.0000 0.1009099468
H   H15       1.0  0.47090  0.84230  0.34083  1.0000 0.1009099468
H   H16       1.0  0.62860  0.47090  0.50750  1.0000 0.1009099468
H   H17       1.0  0.15770  0.62860  0.67417  1.0000 0.1009099468
H   H18       1.0  0.52910  0.15770  0.84083  1.0000 0.1009099468
H   H19       1.0  0.10360  0.42980  0.07680  1.0000 0.1009099468
H   H20       1.0  0.67380  0.10360  0.24347  1.0000 0.1009099468
H   H21       1.0  0.57020  0.67380  0.41013  1.0000 0.1009099468
H   H22       1.0  0.89640  0.57020  0.57680  1.0000 0.1009099468
H   H23       1.0  0.32620  0.89640  0.74347  1.0000 0.1009099468
H   H24       1.0  0.42980  0.32620  0.91013  1.0000 0.1009099468
H   H25       1.0  0.35550  0.37690  0.22110  1.0000 0.1283392692
H   H26       1.0  0.97860  0.35550  0.38777  1.0000 0.1283392692
H   H27       1.0  0.62310  0.97860  0.55443  1.0000 0.1283392692
H   H28       1.0  0.64450  0.62310  0.72110  1.0000 0.1283392692
H   H29       1.0  0.02140  0.64450  0.88777  1.0000 0.1283392692
H   H30       1.0  0.37690  0.02140  0.05443  1.0000 0.1283392692
H   H31       1.0  0.33500  0.37850  0.07440  1.0000 0.1084819759
H   H32       1.0  0.95650  0.33500  0.24107  1.0000 0.1084819759
H   H33       1.0  0.62150  0.95650  0.40773  1.0000 0.1084819759
H   H34       1.0  0.66500  0.62150  0.57440  1.0000 0.1084819759
H   H35       1.0  0.04350  0.66500  0.74107  1.0000 0.1084819759
H   H36       1.0  0.37850  0.04350  0.90773  1.0000 0.1084819759
H   H37       1.0  0.32220  0.48170  0.36450  1.0000 0.1379562923
H   H38       1.0  0.84050  0.32220  0.53117  1.0000 0.1379562923
H   H39       1.0  0.51830  0.84050  0.69783  1.0000 0.1379562923
H   H40       1.0  0.67780  0.51830  0.86450  1.0000 0.1379562923
H   H41       1.0  0.15950  0.67780  0.03117  1.0000 0.1379562923
H   H42       1.0  0.48170  0.15950  0.19783  1.0000 0.1379562923
H   H43       1.0  0.22320  0.52950  0.40270  1.0000 0.1084819759
H   H44       1.0  0.69370  0.22320  0.56937  1.0000 0.1084819759
H   H45       1.0  0.47050  0.69370  0.73603  1.0000 0.1084819759
H   H46       1.0  0.77680  0.47050  0.90270  1.0000 0.1084819759
H   H47       1.0  0.30630  0.77680  0.06937  1.0000 0.1084819759
H   H48       1.0  0.52950  0.30630  0.23603  1.0000 0.1084819759
H   H49       1.0  0.57660  0.64730  0.16370  1.0000 0.1084819759
H   H50       1.0  0.92930  0.57660  0.33037  1.0000 0.1084819759
H   H51       1.0  0.35270  0.92930  0.49703  1.0000 0.1084819759
H   H52       1.0  0.42340  0.35270  0.66370  1.0000 0.1084819759
H   H53       1.0  0.07070  0.42340  0.83037  1.0000 0.1084819759
H   H54       1.0  0.64730  0.07070  0.99703  1.0000 0.1084819759
H   H55       1.0  0.59570  0.74330  0.13350  1.0000 0.1203480819
H   H56       1.0  0.85240  0.59570  0.30017  1.0000 0.1203480819
H   H57       1.0  0.25670  0.85240  0.46683  1.0000 0.1203480819
H   H58       1.0  0.40430  0.25670  0.63350  1.0000 0.1203480819
H   H59       1.0  0.14760  0.40430  0.80017  1.0000 0.1203480819
H   H60       1.0  0.74330  0.14760  0.96683  1.0000 0.1203480819
H   H61       1.0  0.60810  0.68750  0.02600  1.0000 0.1203480819
H   H62       1.0  0.92060  0.60810  0.19267  1.0000 0.1203480819
H   H63       1.0  0.31250  0.92060  0.35933  1.0000 0.1203480819
H   H64       1.0  0.39190  0.31250  0.52600  1.0000 0.1203480819
H   H65       1.0  0.07940  0.39190  0.69267  1.0000 0.1203480819
H   H66       1.0  0.68750  0.07940  0.85933  1.0000 0.1203480819
H   H67       1.0  0.47930  0.67770  0.97770  1.0000 0.0757742588
H   H68       1.0  0.80160  0.47930  0.14437  1.0000 0.0757742588
H   H69       1.0  0.32230  0.80160  0.31103  1.0000 0.0757742588
H   H70       1.0  0.52070  0.32230  0.47770  1.0000 0.0757742588
H   H71       1.0  0.19840  0.52070  0.64437  1.0000 0.0757742588
H   H72       1.0  0.67770  0.19840  0.81103  1.0000 0.0757742588
H   H73       1.0  0.36670  0.64820  0.12260  1.0000 0.1203480819
H   H74       1.0  0.71850  0.36670  0.28927  1.0000 0.1203480819
H   H75       1.0  0.35180  0.71850  0.45593  1.0000 0.1203480819
H   H76       1.0  0.63330  0.35180  0.62260  1.0000 0.1203480819
H   H77       1.0  0.28150  0.63330  0.78927  1.0000 0.1203480819
H   H78       1.0  0.64820  0.28150  0.95593  1.0000 0.1203480819
H   H79       1.0  0.45420  0.73310  0.16480  1.0000 0.1203480819
H   H80       1.0  0.72110  0.45420  0.33147  1.0000 0.1203480819
H   H81       1.0  0.26690  0.72110  0.49813  1.0000 0.1203480819
H   H82       1.0  0.54580  0.26690  0.66480  1.0000 0.1203480819
H   H83       1.0  0.27890  0.54580  0.83147  1.0000 0.1203480819
H   H84       1.0  0.73310  0.27890  0.99813  1.0000 0.1203480819
H   H85       1.0  0.42350  0.64310  0.23550  1.0000 0.1084819759
H   H86       1.0  0.78040  0.42350  0.40217  1.0000 0.1084819759
H   H87       1.0  0.35690  0.78040  0.56883  1.0000 0.1084819759
H   H88       1.0  0.57650  0.35690  0.73550  1.0000 0.1084819759
H   H89       1.0  0.21960  0.57650  0.90217  1.0000 0.1084819759
H   H90       1.0  0.64310  0.21960  0.06883  1.0000 0.1084819759
C   C1        1.0  0.47510  0.53270  0.90930  1.0000 0.5441822518
C   C2        1.0  0.94240  0.47510  0.07597  1.0000 0.5441822518
C   C3        1.0  0.46730  0.94240  0.24263  1.0000 0.5441822518
C   C4        1.0  0.52490  0.46730  0.40930  1.0000 0.5441822518
C   C5        1.0  0.05760  0.52490  0.57597  1.0000 0.5441822518
C   C6        1.0  0.53270  0.05760  0.74263  1.0000 0.5441822518
C   C7        1.0  0.20800  0.41220  0.10440  1.0000 -0.2133348078
C   C8        1.0  0.79580  0.20800  0.27107  1.0000 -0.2133348078
C   C9        1.0  0.58780  0.79580  0.43773  1.0000 -0.2133348078
C   C10       1.0  0.79200  0.58780  0.60440  1.0000 -0.2133348078
C   C11       1.0  0.20420  0.79200  0.77107  1.0000 -0.2133348078
C   C12       1.0  0.41220  0.20420  0.93773  1.0000 -0.2133348078
C   C13       1.0  0.43350  0.54960  0.02770  1.0000 -0.1019924125
C   C14       1.0  0.88390  0.43350  0.19437  1.0000 -0.1019924125
C   C15       1.0  0.45040  0.88390  0.36103  1.0000 -0.1019924125
C   C16       1.0  0.56650  0.45040  0.52770  1.0000 -0.1019924125
C   C17       1.0  0.11610  0.56650  0.69437  1.0000 -0.1019924125
C   C18       1.0  0.54960  0.11610  0.86103  1.0000 -0.1019924125
C   C19       1.0  0.14890  0.44130  0.13420  1.0000 0.0433884582
C   C20       1.0  0.70760  0.14890  0.30087  1.0000 0.0433884582
C   C21       1.0  0.55870  0.70760  0.46753  1.0000 0.0433884582
C   C22       1.0  0.85110  0.55870  0.63420  1.0000 0.0433884582
C   C23       1.0  0.29240  0.85110  0.80087  1.0000 0.0433884582
C   C24       1.0  0.44130  0.29240  0.96753  1.0000 0.0433884582
C   C25       1.0  0.27680  0.43110  0.18800  1.0000 0.1379562923
C   C26       1.0  0.84570  0.27680  0.35467  1.0000 0.1379562923
C   C27       1.0  0.56890  0.84570  0.52133  1.0000 0.1379562923
C   C28       1.0  0.72320  0.56890  0.68800  1.0000 0.1379562923
C   C29       1.0  0.15430  0.72320  0.85467  1.0000 0.1379562923
C   C30       1.0  0.43110  0.15430  0.02133  1.0000 0.1379562923
C   C31       1.0  0.35000  0.41230  0.15370  1.0000 -0.1698905518
C   C32       1.0  0.93770  0.35000  0.32037  1.0000 -0.1698905518
C   C33       1.0  0.58770  0.93770  0.48703  1.0000 -0.1698905518
C   C34       1.0  0.65000  0.58770  0.65370  1.0000 -0.1698905518
C   C35       1.0  0.06230  0.65000  0.82037  1.0000 -0.1698905518
C   C36       1.0  0.41230  0.06230  0.98703  1.0000 -0.1698905518
C   C37       1.0  0.27970  0.47250  0.30310  1.0000 -0.204093048
C   C38       1.0  0.80720  0.27970  0.46977  1.0000 -0.204093048
C   C39       1.0  0.52750  0.80720  0.63643  1.0000 -0.204093048
C   C40       1.0  0.72030  0.52750  0.80310  1.0000 -0.204093048
C   C41       1.0  0.19280  0.72030  0.96977  1.0000 -0.204093048
C   C42       1.0  0.47250  0.19280  0.13643  1.0000 -0.204093048
C   C43       1.0  0.21930  0.49990  0.32640  1.0000 0.0591615746
C   C44       1.0  0.71940  0.21930  0.49307  1.0000 0.0591615746
C   C45       1.0  0.50010  0.71940  0.65973  1.0000 0.0591615746
C   C46       1.0  0.78070  0.50010  0.82640  1.0000 0.0591615746
C   C47       1.0  0.28060  0.78070  0.99307  1.0000 0.0591615746
C   C48       1.0  0.49990  0.28060  0.15973  1.0000 0.0591615746
C   C49       1.0  0.57330  0.68490  0.09910  1.0000 -0.4435261777
C   C50       1.0  0.88840  0.57330  0.26577  1.0000 -0.4435261777
C   C51       1.0  0.31510  0.88840  0.43243  1.0000 -0.4435261777
C   C52       1.0  0.42670  0.31510  0.59910  1.0000 -0.4435261777
C   C53       1.0  0.11160  0.42670  0.76577  1.0000 -0.4435261777
C   C54       1.0  0.68490  0.11160  0.93243  1.0000 -0.4435261777
C   C55       1.0  0.47790  0.64790  0.05830  1.0000 0.0757742588
C   C56       1.0  0.83000  0.47790  0.22497  1.0000 0.0757742588
C   C57       1.0  0.35210  0.83000  0.39163  1.0000 0.0757742588
C   C58       1.0  0.52210  0.35210  0.55830  1.0000 0.0757742588
C   C59       1.0  0.17000  0.52210  0.72497  1.0000 0.0746583277
C   C60       1.0  0.64790  0.17000  0.89163  1.0000 0.0757742588
C   C61       1.0  0.42580  0.67010  0.15420  1.0000 -0.4640071383
C   C62       1.0  0.75570  0.42580  0.32087  1.0000 -0.4640071383
C   C63       1.0  0.32990  0.75570  0.48753  1.0000 -0.4640071383
C   C64       1.0  0.57420  0.32990  0.65420  1.0000 -0.4640071383
C   C65       1.0  0.24430  0.57420  0.82087  1.0000 -0.4640071383
C   C66       1.0  0.67010  0.24430  0.98753  1.0000 -0.4640071383
N   N1        1.0  0.15560  0.48530  0.24220  1.0000 -0.2405612658
N   N2        1.0  0.67030  0.15560  0.40887  1.0000 -0.2405612658
N   N3        1.0  0.51470  0.67030  0.57553  1.0000 -0.2405612658
N   N4        1.0  0.84440  0.51470  0.74220  1.0000 -0.2405612658
N   N5        1.0  0.32970  0.84440  0.90887  1.0000 -0.2405612658
N   N6        1.0  0.48530  0.32970  0.07553  1.0000 -0.2405612658
N   N7        1.0  0.43530  0.49530  0.13770  1.0000 -0.3405939431
N   N8        1.0  0.94000  0.43530  0.30437  1.0000 -0.3405939431
N   N9        1.0  0.50470  0.94000  0.47103  1.0000 -0.3405939431
N   N10       1.0  0.56470  0.50470  0.63770  1.0000 -0.3405939431
N   N11       1.0  0.06000  0.56470  0.80437  1.0000 -0.3405939431
N   N12       1.0  0.49530  0.06000  0.97103  1.0000 -0.3405939431
O   O1        1.0  0.46610  0.56540  0.80730  1.0000 -0.5682396383
O   O2        1.0  0.90070  0.46610  0.97397  1.0000 -0.5682396383
O   O3        1.0  0.43460  0.90070  0.14063  1.0000 -0.5682396383
O   O4        1.0  0.53390  0.43460  0.30730  1.0000 -0.5682396383
O   O5        1.0  0.09930  0.53390  0.47397  1.0000 -0.5682396383
O   O6        1.0  0.56540  0.09930  0.64063  1.0000 -0.5682396383
O   O7        1.0  0.51400  0.48850  0.91900  1.0000 -0.5856832555
O   O8        1.0  0.02550  0.51400  0.08567  1.0000 -0.5856832555
O   O9        1.0  0.51150  0.02550  0.25233  1.0000 -0.5856832555
O   O10       1.0  0.48600  0.51150  0.41900  1.0000 -0.5849575689
O   O11       1.0  0.97450  0.48600  0.58567  1.0000 -0.5856832555
O   O12       1.0  0.48850  0.97450  0.75233  1.0000 -0.5856832555
