# DDEC6 charges by PACMAN v1.1 (https://github.com/mtap-research/PACMAN-charge/)
data_2013[Zn][dia]3[ASR]4
_chemical_formula_sum              "Zn8 H168 C216 N24 O40"
_cell_length_a       15.2352
_cell_length_b       16.8347
_cell_length_c       23.2667
_cell_angle_alpha    90
_cell_angle_beta     90
_cell_angle_gamma    90

_symmetry_space_group_name_H-M    "P 1"
_symmetry_Int_Tables_number       1

loop_
  _symmetry_equiv_pos_as_xyz
  'x, y, z'

loop_
  _atom_site_type_symbol
  _atom_site_label
  _atom_site_symmetry_multiplicity
  _atom_site_fract_x
  _atom_site_fract_y
  _atom_site_fract_z
  _atom_site_occupancy
  _atom_site_charge
Zn  Zn1       1.0  0.91658  0.75640  0.48827  1.0000 0.7164441964
Zn  Zn2       1.0  0.08342  0.74360  0.98827  1.0000 0.7164441964
Zn  Zn3       1.0  0.41658  0.24360  0.98827  1.0000 0.7164441964
Zn  Zn4       1.0  0.58342  0.25640  0.48827  1.0000 0.7164441964
Zn  Zn5       1.0  0.58342  0.75640  0.01173  1.0000 0.7164441964
Zn  Zn6       1.0  0.41658  0.74360  0.51173  1.0000 0.7164441964
Zn  Zn7       1.0  0.08342  0.24360  0.51173  1.0000 0.7164441964
Zn  Zn8       1.0  0.91658  0.25640  0.01173  1.0000 0.7164441964
H   H1        1.0  0.51400  0.80430  0.75180  1.0000 0.2770854703
H   H2        1.0  0.48600  0.69570  0.25180  1.0000 0.2770854703
H   H3        1.0  0.01400  0.19570  0.25180  1.0000 0.2770854703
H   H4        1.0  0.98600  0.30430  0.75180  1.0000 0.2770854703
H   H5        1.0  0.26960  0.85560  0.83190  1.0000 0.1201518897
H   H6        1.0  0.73040  0.64440  0.33190  1.0000 0.1201518897
H   H7        1.0  0.76960  0.14440  0.33190  1.0000 0.1201518897
H   H8        1.0  0.23040  0.35560  0.83190  1.0000 0.1201518897
H   H9        1.0  0.38390  0.83610  0.76870  1.0000 0.1201518897
H   H10       1.0  0.61610  0.66390  0.26870  1.0000 0.1201518897
H   H11       1.0  0.88390  0.16390  0.26870  1.0000 0.1201518897
H   H12       1.0  0.11610  0.33610  0.76870  1.0000 0.1201518897
H   H13       1.0  0.37420  0.60550  0.79690  1.0000 0.1201518897
H   H14       1.0  0.62580  0.89450  0.29690  1.0000 0.1201518897
H   H15       1.0  0.87420  0.39450  0.29690  1.0000 0.1201518897
H   H16       1.0  0.12580  0.10550  0.79690  1.0000 0.1201518897
H   H17       1.0  0.26080  0.62400  0.86110  1.0000 0.1271534025
H   H18       1.0  0.73920  0.87600  0.36110  1.0000 0.1271534025
H   H19       1.0  0.76080  0.37600  0.36110  1.0000 0.1271534025
H   H20       1.0  0.23920  0.12400  0.86110  1.0000 0.1271534025
H   H21       1.0  0.64550  0.86040  0.73170  1.0000 0.1201518897
H   H22       1.0  0.35450  0.63960  0.23170  1.0000 0.1201518897
H   H23       1.0  0.14550  0.13960  0.23170  1.0000 0.1201518897
H   H24       1.0  0.85450  0.36040  0.73170  1.0000 0.1201518897
H   H25       1.0  0.76990  0.86910  0.67390  1.0000 0.1201518897
H   H26       1.0  0.23010  0.63090  0.17390  1.0000 0.1201518897
H   H27       1.0  0.26990  0.13090  0.17390  1.0000 0.1201518897
H   H28       1.0  0.73010  0.36910  0.67390  1.0000 0.1201518897
H   H29       1.0  0.69030  0.68650  0.58360  1.0000 0.1201518897
H   H30       1.0  0.30970  0.81350  0.08360  1.0000 0.1201518897
H   H31       1.0  0.19030  0.31350  0.08360  1.0000 0.1201518897
H   H32       1.0  0.80970  0.18650  0.58360  1.0000 0.1201518897
H   H33       1.0  0.56610  0.67750  0.64140  1.0000 0.1201518897
H   H34       1.0  0.43390  0.82250  0.14140  1.0000 0.1201518897
H   H35       1.0  0.06610  0.32250  0.14140  1.0000 0.1201518897
H   H36       1.0  0.93390  0.17750  0.64140  1.0000 0.1201518897
H   H37       1.0  0.97230  0.90240  0.42430  1.0000 0.1095801529
H   H38       1.0  0.02770  0.59760  0.92430  1.0000 0.1095801529
H   H39       1.0  0.47230  0.09760  0.92430  1.0000 0.1095801529
H   H40       1.0  0.52770  0.40240  0.42430  1.0000 0.1095801529
H   H41       1.0  0.08120  0.99760  0.42670  1.0000 0.1518856755
H   H42       1.0  0.91880  0.50240  0.92670  1.0000 0.1518856755
H   H43       1.0  0.58120  0.00240  0.92670  1.0000 0.1518856755
H   H44       1.0  0.41880  0.49760  0.42670  1.0000 0.1518856755
H   H45       1.0  0.17660  0.89670  0.56690  1.0000 0.1422556759
H   H46       1.0  0.82340  0.60330  0.06690  1.0000 0.1422556759
H   H47       1.0  0.67660  0.10330  0.06690  1.0000 0.1422556759
H   H48       1.0  0.32340  0.39670  0.56690  1.0000 0.1422556759
H   H49       1.0  0.06610  0.80320  0.56190  1.0000 0.1048404148
H   H50       1.0  0.93390  0.69680  0.06190  1.0000 0.1048404148
H   H51       1.0  0.56610  0.19680  0.06190  1.0000 0.1048404148
H   H52       1.0  0.43390  0.30320  0.56190  1.0000 0.1048404148
H   H53       1.0  0.21210  0.05140  0.46450  1.0000 0.1201518897
H   H54       1.0  0.78790  0.44860  0.96450  1.0000 0.1201518897
H   H55       1.0  0.71210  0.94860  0.96450  1.0000 0.1201518897
H   H56       1.0  0.28790  0.55140  0.46450  1.0000 0.1201518897
H   H57       1.0  0.20940  0.05110  0.53190  1.0000 0.1271534025
H   H58       1.0  0.79060  0.44890  0.03190  1.0000 0.1271534025
H   H59       1.0  0.70940  0.94890  0.03190  1.0000 0.1271534025
H   H60       1.0  0.29060  0.55110  0.53190  1.0000 0.1271534025
H   H61       1.0  0.31180  0.94250  0.46690  1.0000 0.1201518897
H   H62       1.0  0.68820  0.55750  0.96690  1.0000 0.1201518897
H   H63       1.0  0.81180  0.05750  0.96690  1.0000 0.1201518897
H   H64       1.0  0.18820  0.44250  0.46690  1.0000 0.1201518897
H   H65       1.0  0.31130  0.94640  0.53440  1.0000 0.1201518897
H   H66       1.0  0.68870  0.55360  0.03440  1.0000 0.1201518897
H   H67       1.0  0.81130  0.05360  0.03440  1.0000 0.1201518897
H   H68       1.0  0.18870  0.44640  0.53440  1.0000 0.1201518897
H   H69       1.0  0.37940  0.05310  0.41180  1.0000 0.1422556759
H   H70       1.0  0.62060  0.44690  0.91180  1.0000 0.1422556759
H   H71       1.0  0.87940  0.94690  0.91180  1.0000 0.1422556759
H   H72       1.0  0.12060  0.55310  0.41180  1.0000 0.1422556759
H   H73       1.0  0.48220  0.15280  0.40900  1.0000 0.1095801529
H   H74       1.0  0.51780  0.34720  0.90900  1.0000 0.1095801529
H   H75       1.0  0.98220  0.84720  0.90900  1.0000 0.1095801529
H   H76       1.0  0.01780  0.65280  0.40900  1.0000 0.1095801529
H   H77       1.0  0.50890  0.14300  0.57400  1.0000 0.1095801529
H   H78       1.0  0.49110  0.35700  0.07400  1.0000 0.1095801529
H   H79       1.0  0.00890  0.85700  0.07400  1.0000 0.1095801529
H   H80       1.0  0.99110  0.64300  0.57400  1.0000 0.1095801529
H   H81       1.0  0.40510  0.04590  0.58220  1.0000 0.1422556759
H   H82       1.0  0.59490  0.45410  0.08220  1.0000 0.1422556759
H   H83       1.0  0.90510  0.95410  0.08220  1.0000 0.1422556759
H   H84       1.0  0.09490  0.54590  0.58220  1.0000 0.1422556759
H   H85       1.0  0.98600  0.80430  0.74820  1.0000 0.2770854703
H   H86       1.0  0.01400  0.69570  0.24820  1.0000 0.2770854703
H   H87       1.0  0.48600  0.19570  0.24820  1.0000 0.2770854703
H   H88       1.0  0.51400  0.30430  0.74820  1.0000 0.2770854703
H   H89       1.0  0.23040  0.85560  0.66810  1.0000 0.1201518897
H   H90       1.0  0.76960  0.64440  0.16810  1.0000 0.1201518897
H   H91       1.0  0.73040  0.14440  0.16810  1.0000 0.1201518897
H   H92       1.0  0.26960  0.35560  0.66810  1.0000 0.1201518897
H   H93       1.0  0.11610  0.83610  0.73130  1.0000 0.1201518897
H   H94       1.0  0.88390  0.66390  0.23130  1.0000 0.1201518897
H   H95       1.0  0.61610  0.16390  0.23130  1.0000 0.1201518897
H   H96       1.0  0.38390  0.33610  0.73130  1.0000 0.1201518897
H   H97       1.0  0.12580  0.60550  0.70310  1.0000 0.1201518897
H   H98       1.0  0.87420  0.89450  0.20310  1.0000 0.1201518897
H   H99       1.0  0.62580  0.39450  0.20310  1.0000 0.1201518897
H   H100      1.0  0.37420  0.10550  0.70310  1.0000 0.1201518897
H   H101      1.0  0.23920  0.62400  0.63890  1.0000 0.1271534025
H   H102      1.0  0.76080  0.87600  0.13890  1.0000 0.1271534025
H   H103      1.0  0.73920  0.37600  0.13890  1.0000 0.1271534025
H   H104      1.0  0.26080  0.12400  0.63890  1.0000 0.1271534025
H   H105      1.0  0.85450  0.86040  0.76830  1.0000 0.1201518897
H   H106      1.0  0.14550  0.63960  0.26830  1.0000 0.1201518897
H   H107      1.0  0.35450  0.13960  0.26830  1.0000 0.1201518897
H   H108      1.0  0.64550  0.36040  0.76830  1.0000 0.1201518897
H   H109      1.0  0.73010  0.86910  0.82610  1.0000 0.1201518897
H   H110      1.0  0.26990  0.63090  0.32610  1.0000 0.1201518897
H   H111      1.0  0.23010  0.13090  0.32610  1.0000 0.1201518897
H   H112      1.0  0.76990  0.36910  0.82610  1.0000 0.1201518897
H   H113      1.0  0.80970  0.68650  0.91640  1.0000 0.1201518897
H   H114      1.0  0.19030  0.81350  0.41640  1.0000 0.1201518897
H   H115      1.0  0.30970  0.31350  0.41640  1.0000 0.1201518897
H   H116      1.0  0.69030  0.18650  0.91640  1.0000 0.1201518897
H   H117      1.0  0.93390  0.67750  0.85860  1.0000 0.1201518897
H   H118      1.0  0.06610  0.82250  0.35860  1.0000 0.1201518897
H   H119      1.0  0.43390  0.32250  0.35860  1.0000 0.1201518897
H   H120      1.0  0.56610  0.17750  0.85860  1.0000 0.1201518897
H   H121      1.0  0.52770  0.90240  0.07570  1.0000 0.1095801529
H   H122      1.0  0.47230  0.59760  0.57570  1.0000 0.1095801529
H   H123      1.0  0.02770  0.09760  0.57570  1.0000 0.1095801529
H   H124      1.0  0.97230  0.40240  0.07570  1.0000 0.1095801529
H   H125      1.0  0.41880  0.99760  0.07330  1.0000 0.1518856755
H   H126      1.0  0.58120  0.50240  0.57330  1.0000 0.1518856755
H   H127      1.0  0.91880  0.00240  0.57330  1.0000 0.1518856755
H   H128      1.0  0.08120  0.49760  0.07330  1.0000 0.1518856755
H   H129      1.0  0.32340  0.89670  0.93310  1.0000 0.1422556759
H   H130      1.0  0.67660  0.60330  0.43310  1.0000 0.1422556759
H   H131      1.0  0.82340  0.10330  0.43310  1.0000 0.1422556759
H   H132      1.0  0.17660  0.39670  0.93310  1.0000 0.1422556759
H   H133      1.0  0.43390  0.80320  0.93810  1.0000 0.1048404148
H   H134      1.0  0.56610  0.69680  0.43810  1.0000 0.1048404148
H   H135      1.0  0.93390  0.19680  0.43810  1.0000 0.1048404148
H   H136      1.0  0.06610  0.30320  0.93810  1.0000 0.1048404148
H   H137      1.0  0.28790  0.05140  0.03550  1.0000 0.1201518897
H   H138      1.0  0.71210  0.44860  0.53550  1.0000 0.1201518897
H   H139      1.0  0.78790  0.94860  0.53550  1.0000 0.1201518897
H   H140      1.0  0.21210  0.55140  0.03550  1.0000 0.1201518897
H   H141      1.0  0.29060  0.05110  0.96810  1.0000 0.1271534025
H   H142      1.0  0.70940  0.44890  0.46810  1.0000 0.1271534025
H   H143      1.0  0.79060  0.94890  0.46810  1.0000 0.1271534025
H   H144      1.0  0.20940  0.55110  0.96810  1.0000 0.1271534025
H   H145      1.0  0.18820  0.94250  0.03310  1.0000 0.1201518897
H   H146      1.0  0.81180  0.55750  0.53310  1.0000 0.1201518897
H   H147      1.0  0.68820  0.05750  0.53310  1.0000 0.1201518897
H   H148      1.0  0.31180  0.44250  0.03310  1.0000 0.1201518897
H   H149      1.0  0.18870  0.94640  0.96560  1.0000 0.1201518897
H   H150      1.0  0.81130  0.55360  0.46560  1.0000 0.1201518897
H   H151      1.0  0.68870  0.05360  0.46560  1.0000 0.1201518897
H   H152      1.0  0.31130  0.44640  0.96560  1.0000 0.1201518897
H   H153      1.0  0.12060  0.05310  0.08820  1.0000 0.1422556759
H   H154      1.0  0.87940  0.44690  0.58820  1.0000 0.1422556759
H   H155      1.0  0.62060  0.94690  0.58820  1.0000 0.1422556759
H   H156      1.0  0.37940  0.55310  0.08820  1.0000 0.1422556759
H   H157      1.0  0.01780  0.15280  0.09100  1.0000 0.1095801529
H   H158      1.0  0.98220  0.34720  0.59100  1.0000 0.1095801529
H   H159      1.0  0.51780  0.84720  0.59100  1.0000 0.1095801529
H   H160      1.0  0.48220  0.65280  0.09100  1.0000 0.1095801529
H   H161      1.0  0.99110  0.14300  0.92600  1.0000 0.1095801529
H   H162      1.0  0.00890  0.35700  0.42600  1.0000 0.1095801529
H   H163      1.0  0.49110  0.85700  0.42600  1.0000 0.1095801529
H   H164      1.0  0.50890  0.64300  0.92600  1.0000 0.1095801529
H   H165      1.0  0.09490  0.04590  0.91780  1.0000 0.1422556759
H   H166      1.0  0.90510  0.45410  0.41780  1.0000 0.1422556759
H   H167      1.0  0.59490  0.95410  0.41780  1.0000 0.1422556759
H   H168      1.0  0.40510  0.54590  0.91780  1.0000 0.1422556759
C   C1        1.0  0.25430  0.74220  0.85390  1.0000 -0.0070778676
C   C2        1.0  0.74570  0.75780  0.35390  1.0000 -0.0070778676
C   C3        1.0  0.75430  0.25780  0.35390  1.0000 -0.0070778676
C   C4        1.0  0.24570  0.24220  0.85390  1.0000 -0.0070778676
C   C5        1.0  0.29100  0.80460  0.82570  1.0000 -0.1164843763
C   C6        1.0  0.70900  0.69540  0.32570  1.0000 -0.1164843763
C   C7        1.0  0.79100  0.19540  0.32570  1.0000 -0.1164843763
C   C8        1.0  0.20900  0.30460  0.82570  1.0000 -0.1164843763
C   C9        1.0  0.35990  0.79290  0.78800  1.0000 -0.1354236694
C   C10       1.0  0.64010  0.70710  0.28800  1.0000 -0.1354236694
C   C11       1.0  0.85990  0.20710  0.28800  1.0000 -0.1354236694
C   C12       1.0  0.14010  0.29290  0.78800  1.0000 -0.1354236694
C   C13       1.0  0.39230  0.72050  0.77890  1.0000 -0.015847154
C   C14       1.0  0.60770  0.77950  0.27890  1.0000 -0.015847154
C   C15       1.0  0.89230  0.27950  0.27890  1.0000 -0.015847154
C   C16       1.0  0.10770  0.22050  0.77890  1.0000 -0.015847154
C   C17       1.0  0.35420  0.65650  0.80480  1.0000 -0.1164843763
C   C18       1.0  0.64580  0.84350  0.30480  1.0000 -0.1164843763
C   C19       1.0  0.85420  0.34350  0.30480  1.0000 -0.1164843763
C   C20       1.0  0.14580  0.15650  0.80480  1.0000 -0.1164843763
C   C21       1.0  0.28580  0.66770  0.84280  1.0000 -0.1164843763
C   C22       1.0  0.71420  0.83230  0.34280  1.0000 -0.1164843763
C   C23       1.0  0.78580  0.33230  0.34280  1.0000 -0.1083435165
C   C24       1.0  0.21420  0.16770  0.84280  1.0000 -0.1164843763
C   C25       1.0  0.59810  0.76120  0.69560  1.0000 0.2180826685
C   C26       1.0  0.40190  0.73880  0.19560  1.0000 0.2180826685
C   C27       1.0  0.09810  0.23880  0.19560  1.0000 0.2180826685
C   C28       1.0  0.90190  0.26120  0.69560  1.0000 0.2180826685
C   C29       1.0  0.65550  0.82260  0.70330  1.0000 -0.2120300576
C   C30       1.0  0.34450  0.67740  0.20330  1.0000 -0.2120300576
C   C31       1.0  0.15550  0.17740  0.20330  1.0000 -0.2120300576
C   C32       1.0  0.84450  0.32260  0.70330  1.0000 -0.2120300576
C   C33       1.0  0.73010  0.82810  0.66770  1.0000 -0.1083435165
C   C34       1.0  0.26990  0.67190  0.16770  1.0000 -0.1083435165
C   C35       1.0  0.23010  0.17190  0.16770  1.0000 -0.1083435165
C   C36       1.0  0.76990  0.32810  0.66770  1.0000 -0.1083435165
C   C37       1.0  0.74540  0.77580  0.62530  1.0000 -0.015847154
C   C38       1.0  0.25460  0.72420  0.12530  1.0000 -0.015847154
C   C39       1.0  0.24540  0.22420  0.12530  1.0000 -0.015847154
C   C40       1.0  0.75460  0.27580  0.62530  1.0000 -0.015847154
C   C41       1.0  0.68370  0.72090  0.61460  1.0000 -0.1164843763
C   C42       1.0  0.31630  0.77910  0.11460  1.0000 -0.1164843763
C   C43       1.0  0.18370  0.27910  0.11460  1.0000 -0.1164843763
C   C44       1.0  0.81630  0.22090  0.61460  1.0000 -0.1164843763
C   C45       1.0  0.60900  0.71490  0.65010  1.0000 -0.191300716
C   C46       1.0  0.39100  0.78510  0.15010  1.0000 -0.191300716
C   C47       1.0  0.10900  0.28510  0.15010  1.0000 -0.191300716
C   C48       1.0  0.89100  0.21490  0.65010  1.0000 -0.191300716
C   C49       1.0  0.18040  0.75910  0.89620  1.0000 0.5235152564
C   C50       1.0  0.81960  0.74090  0.39620  1.0000 0.5235152564
C   C51       1.0  0.68040  0.24090  0.39620  1.0000 0.5235152564
C   C52       1.0  0.31960  0.25910  0.89620  1.0000 0.5235152564
C   C53       1.0  0.82640  0.77880  0.58740  1.0000 0.5352055005
C   C54       1.0  0.17360  0.72120  0.08740  1.0000 0.5352055005
C   C55       1.0  0.32640  0.22120  0.08740  1.0000 0.5352055005
C   C56       1.0  0.67360  0.27880  0.58740  1.0000 0.5352055005
C   C57       1.0  0.46850  0.70460  0.73760  1.0000 0.4580890855
C   C58       1.0  0.53150  0.79540  0.23760  1.0000 0.4580890855
C   C59       1.0  0.96850  0.29540  0.23760  1.0000 0.4580890855
C   C60       1.0  0.03150  0.20460  0.73760  1.0000 0.4580890855
C   C61       1.0  0.01360  0.90100  0.45380  1.0000 0.1095801529
C   C62       1.0  0.98640  0.59900  0.95380  1.0000 0.1095801529
C   C63       1.0  0.51360  0.09900  0.95380  1.0000 0.1095801529
C   C64       1.0  0.48640  0.40100  0.45380  1.0000 0.1095801529
C   C65       1.0  0.07980  0.95840  0.45490  1.0000 -0.2120300576
C   C66       1.0  0.92020  0.54160  0.95490  1.0000 -0.2120300576
C   C67       1.0  0.57980  0.04160  0.95490  1.0000 -0.2120300576
C   C68       1.0  0.42020  0.45840  0.45490  1.0000 -0.2120300576
C   C69       1.0  0.14220  0.95750  0.49680  1.0000 0.1613477489
C   C70       1.0  0.85780  0.54250  0.99680  1.0000 0.1613477489
C   C71       1.0  0.64220  0.04250  0.99680  1.0000 0.1613477489
C   C72       1.0  0.35780  0.45750  0.49680  1.0000 0.1613477489
C   C73       1.0  0.13580  0.89910  0.53720  1.0000 -0.191300716
C   C74       1.0  0.86420  0.60090  0.03720  1.0000 -0.191300716
C   C75       1.0  0.63580  0.10090  0.03720  1.0000 -0.191300716
C   C76       1.0  0.36420  0.39910  0.53720  1.0000 -0.191300716
C   C77       1.0  0.06890  0.84320  0.53440  1.0000 0.0603383684
C   C78       1.0  0.93110  0.65680  0.03440  1.0000 0.0603383684
C   C79       1.0  0.56890  0.15680  0.03440  1.0000 0.0603383684
C   C80       1.0  0.43110  0.34320  0.53440  1.0000 0.0603383684
C   C81       1.0  0.21590  0.01770  0.49820  1.0000 -0.2391976448
C   C82       1.0  0.78410  0.48230  0.99820  1.0000 -0.2391976448
C   C83       1.0  0.71590  0.98230  0.99820  1.0000 -0.2391976448
C   C84       1.0  0.28410  0.51770  0.49820  1.0000 -0.2391976448
C   C85       1.0  0.30570  0.97780  0.49970  1.0000 -0.2454462584
C   C86       1.0  0.69430  0.52220  0.99970  1.0000 -0.2454462584
C   C87       1.0  0.80570  0.02220  0.99970  1.0000 -0.2454462584
C   C88       1.0  0.19430  0.47780  0.49970  1.0000 -0.2454462584
C   C89       1.0  0.37740  0.04090  0.49800  1.0000 0.1613477489
C   C90       1.0  0.62260  0.45910  0.99800  1.0000 0.1613477489
C   C91       1.0  0.87740  0.95910  0.99800  1.0000 0.1613477489
C   C92       1.0  0.12260  0.54090  0.49800  1.0000 0.1613477489
C   C93       1.0  0.40350  0.07220  0.44580  1.0000 -0.1986559711
C   C94       1.0  0.59650  0.42780  0.94580  1.0000 -0.1986559711
C   C95       1.0  0.90350  0.92780  0.94580  1.0000 -0.1986559711
C   C96       1.0  0.09650  0.57220  0.44580  1.0000 -0.1986559711
C   C97       1.0  0.46540  0.13190  0.44430  1.0000 0.0798290468
C   C98       1.0  0.53460  0.36810  0.94430  1.0000 0.0798290468
C   C99       1.0  0.96540  0.86810  0.94430  1.0000 0.0798290468
C   C100      1.0  0.03460  0.63190  0.44430  1.0000 0.0798290468
C   C101      1.0  0.48020  0.12620  0.54080  1.0000 0.0603383684
C   C102      1.0  0.51980  0.37380  0.04080  1.0000 0.0603383684
C   C103      1.0  0.98020  0.87380  0.04080  1.0000 0.0603383684
C   C104      1.0  0.01980  0.62620  0.54080  1.0000 0.0603383684
C   C105      1.0  0.41850  0.06730  0.54640  1.0000 -0.1986559711
C   C106      1.0  0.58150  0.43270  0.04640  1.0000 -0.1986559711
C   C107      1.0  0.91850  0.93270  0.04640  1.0000 -0.1986559711
C   C108      1.0  0.08150  0.56730  0.54640  1.0000 -0.1986559711
C   C109      1.0  0.24570  0.74220  0.64610  1.0000 -0.0070778676
C   C110      1.0  0.75430  0.75780  0.14610  1.0000 -0.0070778676
C   C111      1.0  0.74570  0.25780  0.14610  1.0000 -0.0070778676
C   C112      1.0  0.25430  0.24220  0.64610  1.0000 -0.0070778676
C   C113      1.0  0.20900  0.80460  0.67430  1.0000 -0.1164843763
C   C114      1.0  0.79100  0.69540  0.17430  1.0000 -0.1164843763
C   C115      1.0  0.70900  0.19540  0.17430  1.0000 -0.1164843763
C   C116      1.0  0.29100  0.30460  0.67430  1.0000 -0.1164843763
C   C117      1.0  0.14010  0.79290  0.71200  1.0000 -0.1354236694
C   C118      1.0  0.85990  0.70710  0.21200  1.0000 -0.1354236694
C   C119      1.0  0.64010  0.20710  0.21200  1.0000 -0.1354236694
C   C120      1.0  0.35990  0.29290  0.71200  1.0000 -0.1354236694
C   C121      1.0  0.10770  0.72050  0.72110  1.0000 -0.015847154
C   C122      1.0  0.89230  0.77950  0.22110  1.0000 -0.015847154
C   C123      1.0  0.60770  0.27950  0.22110  1.0000 -0.015847154
C   C124      1.0  0.39230  0.22050  0.72110  1.0000 -0.015847154
C   C125      1.0  0.14580  0.65650  0.69520  1.0000 -0.1164843763
C   C126      1.0  0.85420  0.84350  0.19520  1.0000 -0.1164843763
C   C127      1.0  0.64580  0.34350  0.19520  1.0000 -0.1164843763
C   C128      1.0  0.35420  0.15650  0.69520  1.0000 -0.1164843763
C   C129      1.0  0.21420  0.66770  0.65720  1.0000 -0.1164843763
C   C130      1.0  0.78580  0.83230  0.15720  1.0000 -0.1164843763
C   C131      1.0  0.71420  0.33230  0.15720  1.0000 -0.1083435165
C   C132      1.0  0.28580  0.16770  0.65720  1.0000 -0.1083435165
C   C133      1.0  0.90190  0.76120  0.80440  1.0000 0.2180826685
C   C134      1.0  0.09810  0.73880  0.30440  1.0000 0.2180826685
C   C135      1.0  0.40190  0.23880  0.30440  1.0000 0.2180826685
C   C136      1.0  0.59810  0.26120  0.80440  1.0000 0.2180826685
C   C137      1.0  0.84450  0.82260  0.79670  1.0000 -0.2120300576
C   C138      1.0  0.15550  0.67740  0.29670  1.0000 -0.2120300576
C   C139      1.0  0.34450  0.17740  0.29670  1.0000 -0.2120300576
C   C140      1.0  0.65550  0.32260  0.79670  1.0000 -0.2120300576
C   C141      1.0  0.76990  0.82810  0.83230  1.0000 -0.1083435165
C   C142      1.0  0.23010  0.67190  0.33230  1.0000 -0.1083435165
C   C143      1.0  0.26990  0.17190  0.33230  1.0000 -0.1083435165
C   C144      1.0  0.73010  0.32810  0.83230  1.0000 -0.1083435165
C   C145      1.0  0.75460  0.77580  0.87470  1.0000 -0.015847154
C   C146      1.0  0.24540  0.72420  0.37470  1.0000 -0.015847154
C   C147      1.0  0.25460  0.22420  0.37470  1.0000 -0.015847154
C   C148      1.0  0.74540  0.27580  0.87470  1.0000 -0.015847154
C   C149      1.0  0.81630  0.72090  0.88540  1.0000 -0.1164843763
C   C150      1.0  0.18370  0.77910  0.38540  1.0000 -0.1164843763
C   C151      1.0  0.31630  0.27910  0.38540  1.0000 -0.1164843763
C   C152      1.0  0.68370  0.22090  0.88540  1.0000 -0.1164843763
C   C153      1.0  0.89100  0.71490  0.84990  1.0000 -0.191300716
C   C154      1.0  0.10900  0.78510  0.34990  1.0000 -0.191300716
C   C155      1.0  0.39100  0.28510  0.34990  1.0000 -0.191300716
C   C156      1.0  0.60900  0.21490  0.84990  1.0000 -0.191300716
C   C157      1.0  0.31960  0.75910  0.60380  1.0000 0.5235152564
C   C158      1.0  0.68040  0.74090  0.10380  1.0000 0.5235152564
C   C159      1.0  0.81960  0.24090  0.10380  1.0000 0.5235152564
C   C160      1.0  0.18040  0.25910  0.60380  1.0000 0.5235152564
C   C161      1.0  0.67360  0.77880  0.91260  1.0000 0.5352055005
C   C162      1.0  0.32640  0.72120  0.41260  1.0000 0.5352055005
C   C163      1.0  0.17360  0.22120  0.41260  1.0000 0.5352055005
C   C164      1.0  0.82640  0.27880  0.91260  1.0000 0.5352055005
C   C165      1.0  0.03150  0.70460  0.76240  1.0000 0.4580890855
C   C166      1.0  0.96850  0.79540  0.26240  1.0000 0.4580890855
C   C167      1.0  0.53150  0.29540  0.26240  1.0000 0.4580890855
C   C168      1.0  0.46850  0.20460  0.76240  1.0000 0.4580890855
C   C169      1.0  0.48640  0.90100  0.04620  1.0000 0.1095801529
C   C170      1.0  0.51360  0.59900  0.54620  1.0000 0.1095801529
C   C171      1.0  0.98640  0.09900  0.54620  1.0000 0.1095801529
C   C172      1.0  0.01360  0.40100  0.04620  1.0000 0.1095801529
C   C173      1.0  0.42020  0.95840  0.04510  1.0000 -0.2120300576
C   C174      1.0  0.57980  0.54160  0.54510  1.0000 -0.2120300576
C   C175      1.0  0.92020  0.04160  0.54510  1.0000 -0.2120300576
C   C176      1.0  0.07980  0.45840  0.04510  1.0000 -0.2120300576
C   C177      1.0  0.35780  0.95750  0.00320  1.0000 0.1613477489
C   C178      1.0  0.64220  0.54250  0.50320  1.0000 0.1613477489
C   C179      1.0  0.85780  0.04250  0.50320  1.0000 0.1613477489
C   C180      1.0  0.14220  0.45750  0.00320  1.0000 0.1613477489
C   C181      1.0  0.36420  0.89910  0.96280  1.0000 -0.191300716
C   C182      1.0  0.63580  0.60090  0.46280  1.0000 -0.191300716
C   C183      1.0  0.86420  0.10090  0.46280  1.0000 -0.191300716
C   C184      1.0  0.13580  0.39910  0.96280  1.0000 -0.191300716
C   C185      1.0  0.43110  0.84320  0.96560  1.0000 0.0603383684
C   C186      1.0  0.56890  0.65680  0.46560  1.0000 0.0603383684
C   C187      1.0  0.93110  0.15680  0.46560  1.0000 0.0603383684
C   C188      1.0  0.06890  0.34320  0.96560  1.0000 0.0603383684
C   C189      1.0  0.28410  0.01770  0.00180  1.0000 -0.2391976448
C   C190      1.0  0.71590  0.48230  0.50180  1.0000 -0.2391976448
C   C191      1.0  0.78410  0.98230  0.50180  1.0000 -0.2391976448
C   C192      1.0  0.21590  0.51770  0.00180  1.0000 -0.2391976448
C   C193      1.0  0.19430  0.97780  0.00030  1.0000 -0.2454462584
C   C194      1.0  0.80570  0.52220  0.50030  1.0000 -0.2454462584
C   C195      1.0  0.69430  0.02220  0.50030  1.0000 -0.2391976448
C   C196      1.0  0.30570  0.47780  0.00030  1.0000 -0.2454462584
C   C197      1.0  0.12260  0.04090  0.00200  1.0000 0.1613477489
C   C198      1.0  0.87740  0.45910  0.50200  1.0000 0.1613477489
C   C199      1.0  0.62260  0.95910  0.50200  1.0000 0.1613477489
C   C200      1.0  0.37740  0.54090  0.00200  1.0000 0.1613477489
C   C201      1.0  0.09650  0.07220  0.05420  1.0000 -0.1986559711
C   C202      1.0  0.90350  0.42780  0.55420  1.0000 -0.1986559711
C   C203      1.0  0.59650  0.92780  0.55420  1.0000 -0.1986559711
C   C204      1.0  0.40350  0.57220  0.05420  1.0000 -0.1986559711
C   C205      1.0  0.03460  0.13190  0.05570  1.0000 0.0798290468
C   C206      1.0  0.96540  0.36810  0.55570  1.0000 0.0798290468
C   C207      1.0  0.53460  0.86810  0.55570  1.0000 0.0798290468
C   C208      1.0  0.46540  0.63190  0.05570  1.0000 0.0798290468
C   C209      1.0  0.01980  0.12620  0.95920  1.0000 0.0603383684
C   C210      1.0  0.98020  0.37380  0.45920  1.0000 0.0603383684
C   C211      1.0  0.51980  0.87380  0.45920  1.0000 0.0603383684
C   C212      1.0  0.48020  0.62620  0.95920  1.0000 0.0603383684
C   C213      1.0  0.08150  0.06730  0.95360  1.0000 -0.1986559711
C   C214      1.0  0.91850  0.43270  0.45360  1.0000 -0.1986559711
C   C215      1.0  0.58150  0.93270  0.45360  1.0000 -0.1986559711
C   C216      1.0  0.41850  0.56730  0.95360  1.0000 -0.1986559711
N   N1        1.0  0.52340  0.76200  0.73200  1.0000 -0.3422186577
N   N2        1.0  0.47660  0.73800  0.23200  1.0000 -0.3422186577
N   N3        1.0  0.02340  0.23800  0.23200  1.0000 -0.3422186577
N   N4        1.0  0.97660  0.26200  0.73200  1.0000 -0.3422186577
N   N5        1.0  0.50170  0.16060  0.49210  1.0000 -0.2391976448
N   N6        1.0  0.49830  0.33940  0.99210  1.0000 -0.2391976448
N   N7        1.0  0.00170  0.83940  0.99210  1.0000 -0.2391976448
N   N8        1.0  0.99830  0.66060  0.49210  1.0000 -0.2391976448
N   N9        1.0  0.00790  0.84600  0.49240  1.0000 -0.2340351918
N   N10       1.0  0.99210  0.65400  0.99240  1.0000 -0.2340351918
N   N11       1.0  0.50790  0.15400  0.99240  1.0000 -0.2340351918
N   N12       1.0  0.49210  0.34600  0.49240  1.0000 -0.2340351918
N   N13       1.0  0.97660  0.76200  0.76800  1.0000 -0.3422186577
N   N14       1.0  0.02340  0.73800  0.26800  1.0000 -0.3422186577
N   N15       1.0  0.47660  0.23800  0.26800  1.0000 -0.3422186577
N   N16       1.0  0.52340  0.26200  0.76800  1.0000 -0.3422186577
N   N17       1.0  0.99830  0.16060  0.00790  1.0000 -0.2391976448
N   N18       1.0  0.00170  0.33940  0.50790  1.0000 -0.2391976448
N   N19       1.0  0.49830  0.83940  0.50790  1.0000 -0.2391976448
N   N20       1.0  0.50170  0.66060  0.00790  1.0000 -0.2391976448
N   N21       1.0  0.49210  0.84600  0.00760  1.0000 -0.2340351918
N   N22       1.0  0.50790  0.65400  0.50760  1.0000 -0.2340351918
N   N23       1.0  0.99210  0.15400  0.50760  1.0000 -0.2340351918
N   N24       1.0  0.00790  0.34600  0.00760  1.0000 -0.2340351918
O   O1        1.0  0.83110  0.73430  0.54720  1.0000 -0.4969552101
O   O2        1.0  0.16890  0.76570  0.04720  1.0000 -0.4969552101
O   O3        1.0  0.33110  0.26570  0.04720  1.0000 -0.4969552101
O   O4        1.0  0.66890  0.23430  0.54720  1.0000 -0.4969552101
O   O5        1.0  0.87650  0.83720  0.59610  1.0000 -0.5676303932
O   O6        1.0  0.12350  0.66280  0.09610  1.0000 -0.5676303932
O   O7        1.0  0.37650  0.16280  0.09610  1.0000 -0.5676303932
O   O8        1.0  0.62350  0.33720  0.59610  1.0000 -0.5676303932
O   O9        1.0  0.15060  0.82400  0.90190  1.0000 -0.5135031843
O   O10       1.0  0.84940  0.67600  0.40190  1.0000 -0.5135031843
O   O11       1.0  0.65060  0.17600  0.40190  1.0000 -0.5135031843
O   O12       1.0  0.34940  0.32400  0.90190  1.0000 -0.5135031843
O   O13       1.0  0.15600  0.69880  0.92470  1.0000 -0.5260225066
O   O14       1.0  0.84400  0.80120  0.42470  1.0000 -0.5260225066
O   O15       1.0  0.65600  0.30120  0.42470  1.0000 -0.5260225066
O   O16       1.0  0.34400  0.19880  0.92470  1.0000 -0.5260225066
O   O17       1.0  0.47430  0.63980  0.71190  1.0000 -0.4764397422
O   O18       1.0  0.52570  0.86020  0.21190  1.0000 -0.4764397422
O   O19       1.0  0.97430  0.36020  0.21190  1.0000 -0.4764397422
O   O20       1.0  0.02570  0.13980  0.71190  1.0000 -0.4764397422
O   O21       1.0  0.66890  0.73430  0.95280  1.0000 -0.4969552101
O   O22       1.0  0.33110  0.76570  0.45280  1.0000 -0.4969552101
O   O23       1.0  0.16890  0.26570  0.45280  1.0000 -0.4969552101
O   O24       1.0  0.83110  0.23430  0.95280  1.0000 -0.4969552101
O   O25       1.0  0.62350  0.83720  0.90390  1.0000 -0.5676303932
O   O26       1.0  0.37650  0.66280  0.40390  1.0000 -0.5676303932
O   O27       1.0  0.12350  0.16280  0.40390  1.0000 -0.5676303932
O   O28       1.0  0.87650  0.33720  0.90390  1.0000 -0.5676303932
O   O29       1.0  0.34940  0.82400  0.59810  1.0000 -0.5135031843
O   O30       1.0  0.65060  0.67600  0.09810  1.0000 -0.5135031843
O   O31       1.0  0.84940  0.17600  0.09810  1.0000 -0.5135031843
O   O32       1.0  0.15060  0.32400  0.59810  1.0000 -0.5135031843
O   O33       1.0  0.34400  0.69880  0.57530  1.0000 -0.5260225066
O   O34       1.0  0.65600  0.80120  0.07530  1.0000 -0.5260225066
O   O35       1.0  0.84400  0.30120  0.07530  1.0000 -0.5260225066
O   O36       1.0  0.15600  0.19880  0.57530  1.0000 -0.5260225066
O   O37       1.0  0.02570  0.63980  0.78810  1.0000 -0.4764397422
O   O38       1.0  0.97430  0.86020  0.28810  1.0000 -0.4764397422
O   O39       1.0  0.52570  0.36020  0.28810  1.0000 -0.4764397422
O   O40       1.0  0.47430  0.13980  0.78810  1.0000 -0.4764397422
