# DDEC6 charges by PACMAN v1.1 (https://github.com/mtap-research/PACMAN-charge/)
data_2013[Zn][lvt]3[ASR]1
_chemical_formula_sum              "Zn8 H32 C24 N24"
_cell_length_a       13.7495
_cell_length_b       13.7495
_cell_length_c       13.7495
_cell_angle_alpha    99.8763
_cell_angle_beta     99.8763
_cell_angle_gamma    131.068

_symmetry_space_group_name_H-M    "P 1"
_symmetry_Int_Tables_number       1

loop_
  _symmetry_equiv_pos_as_xyz
  'x, y, z'

loop_
  _atom_site_type_symbol
  _atom_site_label
  _atom_site_symmetry_multiplicity
  _atom_site_fract_x
  _atom_site_fract_y
  _atom_site_fract_z
  _atom_site_occupancy
  _atom_site_charge
Zn  Zn1       1.0  0.73708  0.51414  0.69920  1.0000 0.5251304233
Zn  Zn2       1.0  0.81494  0.03788  0.30080  1.0000 0.5238862657
Zn  Zn3       1.0  0.28788  0.48708  0.72294  1.0000 0.5251304233
Zn  Zn4       1.0  0.76414  0.56494  0.27706  1.0000 0.5251304233
Zn  Zn5       1.0  0.51292  0.23586  0.80080  1.0000 0.5251304233
Zn  Zn6       1.0  0.43506  0.71212  0.19920  1.0000 0.5251304233
Zn  Zn7       1.0  0.96212  0.26292  0.77706  1.0000 0.5251304233
Zn  Zn8       1.0  0.48586  0.18506  0.22294  1.0000 0.5238862657
H   H1        1.0  0.29300  0.20000  0.82820  1.0000 0.1212439114
H   H2        1.0  0.37180  0.46480  0.17180  1.0000 0.1212439114
H   H3        1.0  0.71480  0.04300  0.59300  1.0000 0.1212439114
H   H4        1.0  0.45000  0.12180  0.40700  1.0000 0.1212439114
H   H5        1.0  0.95700  0.55000  0.67180  1.0000 0.1212439114
H   H6        1.0  0.87820  0.28520  0.32820  1.0000 0.1212439114
H   H7        1.0  0.53520  0.70700  0.90700  1.0000 0.1212439114
H   H8        1.0  0.80000  0.62820  0.09300  1.0000 0.1212439114
H   H9        1.0  0.28450  0.30780  0.86530  1.0000 0.1321556331
H   H10       1.0  0.44250  0.41920  0.13470  1.0000 0.1321556331
H   H11       1.0  0.66920  0.03450  0.47670  1.0000 0.1321556331
H   H12       1.0  0.55780  0.19250  0.52330  1.0000 0.1321556331
H   H13       1.0  0.96550  0.44220  0.63470  1.0000 0.1321556331
H   H14       1.0  0.80750  0.33080  0.36530  1.0000 0.1321556331
H   H15       1.0  0.58080  0.71550  0.02330  1.0000 0.1321556331
H   H16       1.0  0.69220  0.55750  0.97670  1.0000 0.1321556331
H   H17       1.0  0.18940  0.19260  0.74920  1.0000 0.1321556331
H   H18       1.0  0.44340  0.44020  0.25080  1.0000 0.1321556331
H   H19       1.0  0.69020  0.93940  0.49680  1.0000 0.1321556331
H   H20       1.0  0.44260  0.19340  0.50320  1.0000 0.1321556331
H   H21       1.0  0.06060  0.55740  0.75080  1.0000 0.1321556331
H   H22       1.0  0.80660  0.30980  0.24920  1.0000 0.1321556331
H   H23       1.0  0.55980  0.81060  0.00320  1.0000 0.1321556331
H   H24       1.0  0.80740  0.55660  0.99680  1.0000 0.1321556331
H   H25       1.0  0.54740  0.57140  0.67640  1.0000 0.0905354866
H   H26       1.0  0.89500  0.87100  0.32360  1.0000 0.0905354866
H   H27       1.0  0.12100  0.29740  0.47600  1.0000 0.0905354866
H   H28       1.0  0.82140  0.64500  0.52400  1.0000 0.0905354866
H   H29       1.0  0.70260  0.17860  0.82360  1.0000 0.0905354866
H   H30       1.0  0.35500  0.87900  0.17640  1.0000 0.0905354866
H   H31       1.0  0.12900  0.45260  0.02400  1.0000 0.0905354866
H   H32       1.0  0.42860  0.10500  0.97600  1.0000 0.0905354866
C   C1        1.0  0.27940  0.25410  0.80590  1.0000 -0.5370872892
C   C2        1.0  0.44820  0.47350  0.19410  1.0000 -0.5370872892
C   C3        1.0  0.72350  0.02940  0.52530  1.0000 -0.5370872892
C   C4        1.0  0.50410  0.19820  0.47470  1.0000 -0.5370872892
C   C5        1.0  0.97060  0.49590  0.69410  1.0000 -0.5370872892
C   C6        1.0  0.80180  0.27650  0.30590  1.0000 -0.5370872892
C   C7        1.0  0.52650  0.72060  0.97470  1.0000 -0.5370872892
C   C8        1.0  0.74590  0.55180  0.02530  1.0000 -0.5370872892
C   C9        1.0  0.39060  0.35030  0.76710  1.0000 0.3487576792
C   C10       1.0  0.58320  0.62350  0.23290  1.0000 0.3487576792
C   C11       1.0  0.87350  0.14060  0.54030  1.0000 0.3487576792
C   C12       1.0  0.60030  0.33320  0.45970  1.0000 0.3487576792
C   C13       1.0  0.85940  0.39970  0.73290  1.0000 0.3487576792
C   C14       1.0  0.66680  0.12650  0.26710  1.0000 0.3487576792
C   C15       1.0  0.37650  0.60940  0.95970  1.0000 0.3487576792
C   C16       1.0  0.64970  0.41680  0.04030  1.0000 0.3487576792
C   C17       1.0  0.51338  0.50287  0.70465  1.0000 0.1017441028
C   C18       1.0  0.79822  0.80873  0.29535  1.0000 0.1017441028
C   C19       1.0  0.05873  0.26338  0.51051  1.0000 0.1017441028
C   C20       1.0  0.75287  0.54822  0.48949  1.0000 0.1017441028
C   C21       1.0  0.73662  0.24713  0.79535  1.0000 0.1017441028
C   C22       1.0  0.45178  0.94127  0.20465  1.0000 0.1017441028
C   C23       1.0  0.19127  0.48662  0.98949  1.0000 0.1017441028
C   C24       1.0  0.49713  0.20178  0.01051  1.0000 0.1017441028
N   N1        1.0  0.56906  0.45574  0.72320  1.0000 -0.2405416197
N   N2        1.0  0.73254  0.84586  0.27680  1.0000 -0.2405416197
N   N3        1.0  0.09586  0.31906  0.61332  1.0000 -0.2405416197
N   N4        1.0  0.70574  0.48254  0.38668  1.0000 -0.2405416197
N   N5        1.0  0.68094  0.29426  0.77680  1.0000 -0.2405416197
N   N6        1.0  0.51746  0.90414  0.22320  1.0000 -0.2405416197
N   N7        1.0  0.15414  0.43094  0.88668  1.0000 -0.2405416197
N   N8        1.0  0.54426  0.26746  0.11332  1.0000 -0.2405416197
N   N9        1.0  0.48880  0.35583  0.76383  1.0000 -0.2713010101
N   N10       1.0  0.59200  0.72497  0.23617  1.0000 -0.2713010101
N   N11       1.0  0.97497  0.23880  0.63297  1.0000 -0.2713010101
N   N12       1.0  0.60583  0.34200  0.36703  1.0000 -0.2713010101
N   N13       1.0  0.76120  0.39417  0.73617  1.0000 -0.2713010101
N   N14       1.0  0.65800  0.02503  0.26383  1.0000 -0.2713010101
N   N15       1.0  0.27503  0.51120  0.86703  1.0000 -0.2713010101
N   N16       1.0  0.64417  0.40800  0.13297  1.0000 -0.2713010101
N   N17       1.0  0.40150  0.44101  0.73111  1.0000 -0.4024819112
N   N18       1.0  0.70990  0.67039  0.26889  1.0000 -0.4024819112
N   N19       1.0  0.92039  0.15150  0.46049  1.0000 -0.4024819112
N   N20       1.0  0.69101  0.45990  0.53951  1.0000 -0.4024819112
N   N21       1.0  0.84850  0.30899  0.76889  1.0000 -0.4024819112
N   N22       1.0  0.54010  0.07961  0.23111  1.0000 -0.4024819112
N   N23       1.0  0.32961  0.59850  0.03951  1.0000 -0.4024819112
N   N24       1.0  0.55899  0.29010  0.96049  1.0000 -0.4024819112
