# DDEC6 charges by PACMAN v1.1 (https://github.com/mtap-research/PACMAN-charge/)
data_2013[Zn][pcu]3[ASR]14
_chemical_formula_sum              "Zn4 H40 C68 N4 O16"
_cell_length_a       10.239
_cell_length_b       12.191
_cell_length_c       13.91
_cell_angle_alpha    94.6
_cell_angle_beta     93.75
_cell_angle_gamma    99.87

_symmetry_space_group_name_H-M    "P 1"
_symmetry_Int_Tables_number       1

loop_
  _symmetry_equiv_pos_as_xyz
  'x, y, z'

loop_
  _atom_site_type_symbol
  _atom_site_label
  _atom_site_symmetry_multiplicity
  _atom_site_fract_x
  _atom_site_fract_y
  _atom_site_fract_z
  _atom_site_occupancy
  _atom_site_charge
Zn  Zn1       1.0  0.22202  0.51909  0.22825  1.0000 0.830758962
Zn  Zn2       1.0  0.26108  0.69619  0.46048  1.0000 0.830758962
Zn  Zn3       1.0  0.77798  0.48091  0.77175  1.0000 0.830758962
Zn  Zn4       1.0  0.73892  0.30381  0.53952  1.0000 0.830758962
H   H1        1.0  0.13750  0.06920  0.46330  1.0000 0.1382344113
H   H2        1.0  0.16130  0.24200  0.40240  1.0000 0.1194774371
H   H3        1.0  0.32010  0.18080  0.09870  1.0000 0.1267613992
H   H4        1.0  0.36380  0.02850  0.01150  1.0000 0.1101375727
H   H5        1.0  0.33810  0.85640  0.07240  1.0000 0.1101375727
H   H6        1.0  0.27110  0.83630  0.22490  1.0000 0.1267613992
H   H7        1.0  0.86650  0.56940  0.47220  1.0000 0.1267613992
H   H8        1.0  0.64270  0.57800  0.47950  1.0000 0.1267613992
H   H9        1.0  0.52720  0.73130  0.19770  1.0000 0.1194774371
H   H10       1.0  0.64080  0.80410  0.07440  1.0000 0.1101375727
H   H11       1.0  0.86800  0.80890  0.07440  1.0000 0.1101375727
H   H12       1.0  0.97950  0.73460  0.19180  1.0000 0.1194774371
H   H13       1.0  0.07660  0.70120  0.61220  1.0000 0.1267613992
H   H14       1.0  0.06130  0.66610  0.77030  1.0000 0.1382344113
H   H15       1.0  0.44560  0.63840  0.78610  1.0000 0.1450385332
H   H16       1.0  0.45220  0.67640  0.62860  1.0000 0.1194774371
H   H17       1.0  0.09440  0.69450  0.93320  1.0000 0.1382344113
H   H18       1.0  0.08160  0.63940  0.08530  1.0000 0.1101375727
H   H19       1.0  0.35800  0.46300  0.05070  1.0000 0.1101375727
H   H20       1.0  0.37990  0.51380  0.89670  1.0000 0.1382344113
H   H21       1.0  0.86250  0.93080  0.53670  1.0000 0.1382344113
H   H22       1.0  0.83870  0.75800  0.59760  1.0000 0.1194774371
H   H23       1.0  0.67990  0.81920  0.90130  1.0000 0.1267613992
H   H24       1.0  0.63620  0.97150  0.98850  1.0000 0.1101375727
H   H25       1.0  0.66190  0.14360  0.92760  1.0000 0.1101375727
H   H26       1.0  0.72890  0.16370  0.77510  1.0000 0.1267613992
H   H27       1.0  0.13350  0.43060  0.52780  1.0000 0.1267613992
H   H28       1.0  0.35730  0.42200  0.52050  1.0000 0.1267613992
H   H29       1.0  0.47280  0.26870  0.80230  1.0000 0.1194774371
H   H30       1.0  0.35920  0.19590  0.92560  1.0000 0.1101375727
H   H31       1.0  0.13200  0.19110  0.92560  1.0000 0.1101375727
H   H32       1.0  0.02050  0.26540  0.80820  1.0000 0.1194774371
H   H33       1.0  0.92340  0.29880  0.38780  1.0000 0.1267613992
H   H34       1.0  0.93870  0.33390  0.22970  1.0000 0.1382344113
H   H35       1.0  0.55440  0.36160  0.21390  1.0000 0.1382344113
H   H36       1.0  0.54780  0.32360  0.37140  1.0000 0.1194774371
H   H37       1.0  0.90560  0.30550  0.06680  1.0000 0.1382344113
H   H38       1.0  0.91840  0.36060  0.91470  1.0000 0.1101375727
H   H39       1.0  0.64200  0.53700  0.94930  1.0000 0.1101375727
H   H40       1.0  0.62010  0.48620  0.10330  1.0000 0.1382344113
C   C1        1.0  0.20680  0.98840  0.35280  1.0000 -0.0408969864
C   C2        1.0  0.17130  0.07770  0.40330  1.0000 -0.1012834411
C   C3        1.0  0.18500  0.18210  0.36600  1.0000 -0.1012834411
C   C4        1.0  0.23280  0.19870  0.27690  1.0000 -0.0899173886
C   C5        1.0  0.30930  0.11250  0.12520  1.0000 -0.1400912027
C   C6        1.0  0.33530  0.02160  0.07320  1.0000 -0.1012834411
C   C7        1.0  0.32050  0.91800  0.10990  1.0000 -0.1118022807
C   C8        1.0  0.28030  0.90600  0.20090  1.0000 -0.1269375801
C   C9        1.0  0.25220  0.99990  0.25930  1.0000 0.0614693874
C   C10       1.0  0.26540  0.10540  0.22050  1.0000 0.0614693874
C   C11       1.0  0.24470  0.31290  0.24450  1.0000 0.5509829551
C   C12       1.0  0.19560  0.88210  0.40300  1.0000 0.5509829551
C   C13       1.0  0.88670  0.62870  0.34280  1.0000 -0.0561568726
C   C14       1.0  0.82080  0.59530  0.42120  1.0000 -0.1012834411
C   C15       1.0  0.68530  0.59980  0.42530  1.0000 -0.1118022807
C   C16       1.0  0.61510  0.63570  0.35050  1.0000 -0.0714147136
C   C17       1.0  0.61760  0.72960  0.19670  1.0000 -0.1400912027
C   C18       1.0  0.68550  0.77460  0.12380  1.0000 -0.1012834411
C   C19       1.0  0.82180  0.77620  0.12330  1.0000 -0.1012834411
C   C20       1.0  0.88820  0.73110  0.19300  1.0000 -0.1400912027
C   C21       1.0  0.82120  0.67850  0.26800  1.0000 0.0614693874
C   C22       1.0  0.68220  0.68050  0.27070  1.0000 0.0516861856
C   C23       1.0  0.02680  0.60620  0.33790  1.0000 0.5827285081
C   C24       1.0  0.46710  0.62500  0.35510  1.0000 0.5948261052
C   C25       1.0  0.15160  0.68790  0.64760  1.0000 0.0989045381
C   C26       1.0  0.14120  0.66550  0.74230  1.0000 -0.1736802727
C   C27       1.0  0.25060  0.64190  0.79620  1.0000 0.1101375727
C   C28       1.0  0.36870  0.64940  0.75170  1.0000 -0.1757933468
C   C29       1.0  0.37220  0.67300  0.65730  1.0000 0.0888711095
C   C30       1.0  0.24120  0.61130  0.89630  1.0000 0.1101375727
C   C31       1.0  0.15040  0.64790  0.95550  1.0000 -0.1905145988
C   C32       1.0  0.14410  0.61480  0.04730  1.0000 0.0614693874
C   C33       1.0  0.30550  0.51180  0.02750  1.0000 0.0888711095
C   C34       1.0  0.31850  0.54150  0.93400  1.0000 -0.1905145988
C   C35       1.0  0.79320  0.01160  0.64720  1.0000 -0.0408969864
C   C36       1.0  0.82870  0.92230  0.59670  1.0000 -0.1012834411
C   C37       1.0  0.81500  0.81790  0.63400  1.0000 -0.1012834411
C   C38       1.0  0.76720  0.80130  0.72310  1.0000 -0.0899173886
C   C39       1.0  0.69070  0.88750  0.87480  1.0000 -0.1400912027
C   C40       1.0  0.66470  0.97840  0.92680  1.0000 -0.1012834411
C   C41       1.0  0.67950  0.08200  0.89010  1.0000 -0.1118022807
C   C42       1.0  0.71970  0.09400  0.79910  1.0000 -0.1269375801
C   C43       1.0  0.74780  0.00010  0.74070  1.0000 0.0614693874
C   C44       1.0  0.73460  0.89460  0.77950  1.0000 0.0614693874
C   C45       1.0  0.75530  0.68710  0.75550  1.0000 0.5509829551
C   C46       1.0  0.80440  0.11790  0.59700  1.0000 0.5509829551
C   C47       1.0  0.11330  0.37130  0.65720  1.0000 -0.0561568726
C   C48       1.0  0.17920  0.40470  0.57880  1.0000 -0.1012834411
C   C49       1.0  0.31470  0.40020  0.57470  1.0000 -0.1118022807
C   C50       1.0  0.38490  0.36430  0.64950  1.0000 -0.0714147136
C   C51       1.0  0.38240  0.27040  0.80330  1.0000 -0.1400912027
C   C52       1.0  0.31450  0.22540  0.87620  1.0000 -0.1012834411
C   C53       1.0  0.17820  0.22380  0.87670  1.0000 -0.1012834411
C   C54       1.0  0.11180  0.26890  0.80700  1.0000 -0.1400912027
C   C55       1.0  0.17880  0.32150  0.73200  1.0000 0.0614693874
C   C56       1.0  0.31780  0.31950  0.72930  1.0000 0.0516861856
C   C57       1.0  0.97320  0.39380  0.66210  1.0000 0.5827285081
C   C58       1.0  0.53290  0.37500  0.64490  1.0000 0.5948261052
C   C59       1.0  0.84840  0.31210  0.35240  1.0000 0.0989045381
C   C60       1.0  0.85880  0.33450  0.25770  1.0000 -0.1736802727
C   C61       1.0  0.74940  0.35810  0.20380  1.0000 0.1101375727
C   C62       1.0  0.63130  0.35060  0.24830  1.0000 -0.1757933468
C   C63       1.0  0.62780  0.32700  0.34270  1.0000 0.0888711095
C   C64       1.0  0.75880  0.38870  0.10370  1.0000 0.1101375727
C   C65       1.0  0.84960  0.35210  0.04450  1.0000 -0.1905145988
C   C66       1.0  0.85590  0.38520  0.95270  1.0000 0.0614693874
C   C67       1.0  0.69450  0.48820  0.97250  1.0000 0.0888711095
C   C68       1.0  0.68150  0.45850  0.06600  1.0000 -0.1905145988
N   N1        1.0  0.26510  0.69140  0.60420  1.0000 -0.240822193
N   N2        1.0  0.22220  0.54940  0.08540  1.0000 -0.2319142491
N   N3        1.0  0.73490  0.30860  0.39580  1.0000 -0.240822193
N   N4        1.0  0.77780  0.45060  0.91460  1.0000 -0.2319142491
O   O1        1.0  0.17530  0.37840  0.28350  1.0000 -0.5390425196
O   O2        1.0  0.32370  0.34840  0.18430  1.0000 -0.5674779684
O   O3        1.0  0.10540  0.85340  0.45240  1.0000 -0.5307614178
O   O4        1.0  0.29260  0.82810  0.39310  1.0000 -0.5499811952
O   O5        1.0  0.09130  0.59800  0.41620  1.0000 -0.5390425196
O   O6        1.0  0.06940  0.59380  0.25600  1.0000 -0.5499811952
O   O7        1.0  0.42360  0.63300  0.43710  1.0000 -0.5307614178
O   O8        1.0  0.39540  0.60410  0.27690  1.0000 -0.5499811952
O   O9        1.0  0.82470  0.62160  0.71650  1.0000 -0.5390425196
O   O10       1.0  0.67630  0.65160  0.81570  1.0000 -0.5674779684
O   O11       1.0  0.89460  0.14660  0.54760  1.0000 -0.5307614178
O   O12       1.0  0.70740  0.17190  0.60690  1.0000 -0.5499811952
O   O13       1.0  0.90870  0.40200  0.58380  1.0000 -0.5499811952
O   O14       1.0  0.93060  0.40620  0.74400  1.0000 -0.5499811952
O   O15       1.0  0.57640  0.36700  0.56290  1.0000 -0.5307614178
O   O16       1.0  0.60460  0.39590  0.72310  1.0000 -0.5499811952
