# DDEC6 charges by PACMAN v1.1 (https://github.com/mtap-research/PACMAN-charge/)
data_2013[Zn][pts]3[ASR]3
_chemical_formula_sum              "Zn16 H64 C144 O96"
_cell_length_a       19.5078
_cell_length_b       19.5078
_cell_length_c       13.815
_cell_angle_alpha    90
_cell_angle_beta     90
_cell_angle_gamma    90

_symmetry_space_group_name_H-M    "P 1"
_symmetry_Int_Tables_number       1

loop_
  _symmetry_equiv_pos_as_xyz
  'x, y, z'

loop_
  _atom_site_type_symbol
  _atom_site_label
  _atom_site_symmetry_multiplicity
  _atom_site_fract_x
  _atom_site_fract_y
  _atom_site_fract_z
  _atom_site_occupancy
  _atom_site_charge
Zn  Zn1       1.0  0.98740  0.47007  0.37155  1.0000 0.9202805751
Zn  Zn2       1.0  0.01260  0.52993  0.87155  1.0000 0.9202805751
Zn  Zn3       1.0  0.02993  0.48740  0.12155  1.0000 0.9202805751
Zn  Zn4       1.0  0.97007  0.51260  0.62155  1.0000 0.9202805751
Zn  Zn5       1.0  0.51260  0.97007  0.37845  1.0000 0.9202805751
Zn  Zn6       1.0  0.48740  0.02993  0.87845  1.0000 0.9202805751
Zn  Zn7       1.0  0.47007  0.98740  0.62845  1.0000 0.9202805751
Zn  Zn8       1.0  0.52993  0.01260  0.12845  1.0000 0.9202805751
Zn  Zn9       1.0  0.48631  0.48631  0.00000  1.0000 0.9037193649
Zn  Zn10      1.0  0.51369  0.51369  0.50000  1.0000 0.9037193649
Zn  Zn11      1.0  0.01369  0.98631  0.75000  1.0000 0.9037193649
Zn  Zn12      1.0  0.98631  0.01369  0.25000  1.0000 0.9037193649
Zn  Zn13      1.0  0.52986  0.47014  0.25000  1.0000 0.9516129785
Zn  Zn14      1.0  0.47014  0.52986  0.75000  1.0000 0.9516129785
Zn  Zn15      1.0  0.02986  0.02986  0.00000  1.0000 0.9516129785
Zn  Zn16      1.0  0.97014  0.97014  0.50000  1.0000 0.9516129785
H   H1        1.0  0.92840  0.16170  0.58270  1.0000 0.1297235528
H   H2        1.0  0.91310  0.27130  0.63230  1.0000 0.1217579406
H   H3        1.0  0.67620  0.41060  0.38620  1.0000 0.1217579406
H   H4        1.0  0.67140  0.49220  0.39870  1.0000 0.1297235528
H   H5        1.0  0.07824  0.31468  0.28288  1.0000 0.0490264755
H   H6        1.0  0.73500  0.48400  0.97190  1.0000 0.1217579406
H   H7        1.0  0.83910  0.47880  0.03760  1.0000 0.139417588
H   H8        1.0  0.49457  0.83926  0.54908  1.0000 0.0663604646
H   H9        1.0  0.07160  0.83830  0.08270  1.0000 0.1297235528
H   H10       1.0  0.08690  0.72870  0.13230  1.0000 0.1217579406
H   H11       1.0  0.32380  0.58940  0.88620  1.0000 0.1217579406
H   H12       1.0  0.32860  0.50780  0.89870  1.0000 0.1297235528
H   H13       1.0  0.92176  0.68532  0.78288  1.0000 0.0490264755
H   H14       1.0  0.26500  0.51600  0.47190  1.0000 0.1217579406
H   H15       1.0  0.16090  0.52120  0.53760  1.0000 0.139417588
H   H16       1.0  0.50543  0.16074  0.04908  1.0000 0.0663604646
H   H17       1.0  0.33830  0.42840  0.33270  1.0000 0.1297235528
H   H18       1.0  0.22870  0.41310  0.38230  1.0000 0.1217579406
H   H19       1.0  0.08940  0.17620  0.13620  1.0000 0.1217579406
H   H20       1.0  0.00780  0.17140  0.14870  1.0000 0.1297235528
H   H21       1.0  0.18532  0.57824  0.03288  1.0000 0.0490264755
H   H22       1.0  0.01600  0.23500  0.72190  1.0000 0.1217579406
H   H23       1.0  0.02120  0.33910  0.78760  1.0000 0.139417588
H   H24       1.0  0.66074  0.99457  0.29908  1.0000 0.0663604646
H   H25       1.0  0.66170  0.57160  0.83270  1.0000 0.1297235528
H   H26       1.0  0.77130  0.58690  0.88230  1.0000 0.1217579406
H   H27       1.0  0.91060  0.82380  0.63620  1.0000 0.1217579406
H   H28       1.0  0.99220  0.82860  0.64870  1.0000 0.1297235528
H   H29       1.0  0.81468  0.42176  0.53288  1.0000 0.0490264755
H   H30       1.0  0.98400  0.76500  0.22190  1.0000 0.1217579406
H   H31       1.0  0.97880  0.66090  0.28760  1.0000 0.139417588
H   H32       1.0  0.33926  0.00543  0.79908  1.0000 0.0663604646
H   H33       1.0  0.57160  0.66170  0.16730  1.0000 0.1297235528
H   H34       1.0  0.58690  0.77130  0.11770  1.0000 0.1217579406
H   H35       1.0  0.82380  0.91060  0.36380  1.0000 0.1217579406
H   H36       1.0  0.82860  0.99220  0.35130  1.0000 0.1297235528
H   H37       1.0  0.42176  0.81468  0.46712  1.0000 0.0490264755
H   H38       1.0  0.76500  0.98400  0.77810  1.0000 0.1217579406
H   H39       1.0  0.66090  0.97880  0.71240  1.0000 0.139417588
H   H40       1.0  0.00543  0.33926  0.20092  1.0000 0.0663604646
H   H41       1.0  0.42840  0.33830  0.66730  1.0000 0.1297235528
H   H42       1.0  0.41310  0.22870  0.61770  1.0000 0.1217579406
H   H43       1.0  0.17620  0.08940  0.86380  1.0000 0.1297235528
H   H44       1.0  0.17140  0.00780  0.85130  1.0000 0.1297235528
H   H45       1.0  0.57824  0.18532  0.96712  1.0000 0.0490264755
H   H46       1.0  0.23500  0.01600  0.27810  1.0000 0.1217579406
H   H47       1.0  0.33910  0.02120  0.21240  1.0000 0.139417588
H   H48       1.0  0.99457  0.66074  0.70092  1.0000 0.0663604646
H   H49       1.0  0.16170  0.92840  0.41730  1.0000 0.1297235528
H   H50       1.0  0.27130  0.91310  0.36770  1.0000 0.1217579406
H   H51       1.0  0.41060  0.67620  0.61380  1.0000 0.1217579406
H   H52       1.0  0.49220  0.67140  0.60130  1.0000 0.1297235528
H   H53       1.0  0.31468  0.07824  0.71712  1.0000 0.0490264755
H   H54       1.0  0.48400  0.73500  0.02810  1.0000 0.1217579406
H   H55       1.0  0.47880  0.83910  0.96240  1.0000 0.139417588
H   H56       1.0  0.83926  0.49457  0.45092  1.0000 0.0663604646
H   H57       1.0  0.83830  0.07160  0.91730  1.0000 0.1297235528
H   H58       1.0  0.72870  0.08690  0.86770  1.0000 0.1217579406
H   H59       1.0  0.58940  0.32380  0.11380  1.0000 0.1217579406
H   H60       1.0  0.50780  0.32860  0.10130  1.0000 0.1297235528
H   H61       1.0  0.68532  0.92176  0.21712  1.0000 0.0490264755
H   H62       1.0  0.51600  0.26500  0.52810  1.0000 0.1217579406
H   H63       1.0  0.52120  0.16090  0.46240  1.0000 0.139417588
H   H64       1.0  0.16074  0.50543  0.95092  1.0000 0.0663604646
C   C1        1.0  0.95630  0.39060  0.56230  1.0000 0.575177192
C   C2        1.0  0.88780  0.47990  0.21680  1.0000 0.6099296503
C   C3        1.0  0.96630  0.11210  0.40970  1.0000 0.6099296503
C   C4        1.0  0.97300  0.24150  0.38570  1.0000 0.1502769099
C   C5        1.0  0.95930  0.18330  0.44260  1.0000 -0.1421605188
C   C6        1.0  0.97040  0.30650  0.42310  1.0000 0.1217579406
C   C7        1.0  0.93830  0.19820  0.53940  1.0000 -0.1154472015
C   C8        1.0  0.95210  0.32080  0.51870  1.0000 -0.1104286716
C   C9        1.0  0.93240  0.26400  0.57010  1.0000 -0.1104286716
C   C10       1.0  0.81460  0.47780  0.17880  1.0000 -0.1104286716
C   C11       1.0  0.69220  0.47000  0.19610  1.0000 0.139417588
C   C12       1.0  0.68530  0.45500  0.35400  1.0000 0.0812908851
C   C13       1.0  0.67970  0.47630  0.09950  1.0000 -0.1336584172
C   C14       1.0  0.60980  0.48020  0.05710  1.0000 0.5859746926
C   C15       1.0  0.75890  0.47020  0.23800  1.0000 0.1502769099
C   C16       1.0  0.02020  0.31540  0.27330  1.0000 0.1814191931
C   C17       1.0  0.73940  0.48030  0.04020  1.0000 -0.1104286716
C   C18       1.0  0.80080  0.47900  0.08010  1.0000 -0.0979468587
C   C19       1.0  0.04370  0.60940  0.06230  1.0000 0.5749408
C   C20       1.0  0.11220  0.52010  0.71680  1.0000 0.6099296503
C   C21       1.0  0.03370  0.88790  0.90970  1.0000 0.6099296503
C   C22       1.0  0.02700  0.75850  0.88570  1.0000 0.1502769099
C   C23       1.0  0.04070  0.81670  0.94260  1.0000 -0.1421605188
C   C24       1.0  0.02960  0.69350  0.92310  1.0000 0.1297235528
C   C25       1.0  0.06170  0.80180  0.03940  1.0000 -0.1154472015
C   C26       1.0  0.04790  0.67920  0.01870  1.0000 -0.1104286716
C   C27       1.0  0.06760  0.73600  0.07010  1.0000 -0.1104286716
C   C28       1.0  0.18540  0.52220  0.67880  1.0000 -0.1104286716
C   C29       1.0  0.30780  0.53000  0.69610  1.0000 0.139417588
C   C30       1.0  0.31470  0.54500  0.85400  1.0000 0.0812908851
C   C31       1.0  0.32030  0.52370  0.59950  1.0000 -0.1336584172
C   C32       1.0  0.39020  0.51980  0.55710  1.0000 0.5859746926
C   C33       1.0  0.24110  0.52980  0.73800  1.0000 0.1502769099
C   C34       1.0  0.97980  0.68460  0.77330  1.0000 0.1814191931
C   C35       1.0  0.26060  0.51970  0.54020  1.0000 -0.1104286716
C   C36       1.0  0.19920  0.52100  0.58010  1.0000 -0.0979468587
C   C37       1.0  0.10940  0.45630  0.31230  1.0000 0.5749408
C   C38       1.0  0.02010  0.38780  0.96680  1.0000 0.6099296503
C   C39       1.0  0.38790  0.46630  0.15970  1.0000 0.6099296503
C   C40       1.0  0.25850  0.47300  0.13570  1.0000 0.1502769099
C   C41       1.0  0.31670  0.45930  0.19260  1.0000 -0.1421605188
C   C42       1.0  0.19350  0.47040  0.17310  1.0000 0.1297235528
C   C43       1.0  0.30180  0.43830  0.28940  1.0000 -0.1154472015
C   C44       1.0  0.17920  0.45210  0.26870  1.0000 -0.1104286716
C   C45       1.0  0.23600  0.43240  0.32010  1.0000 -0.1104286716
C   C46       1.0  0.02220  0.31460  0.92880  1.0000 -0.1104286716
C   C47       1.0  0.03000  0.19220  0.94610  1.0000 0.139417588
C   C48       1.0  0.04500  0.18530  0.10400  1.0000 0.0812908851
C   C49       1.0  0.02370  0.17970  0.84950  1.0000 -0.1336584172
C   C50       1.0  0.01980  0.10980  0.80710  1.0000 0.5859746926
C   C51       1.0  0.02980  0.25890  0.98800  1.0000 0.1502769099
C   C52       1.0  0.18460  0.52020  0.02330  1.0000 0.1814191931
C   C53       1.0  0.01970  0.23940  0.79020  1.0000 -0.1104286716
C   C54       1.0  0.02100  0.30080  0.83010  1.0000 -0.0979468587
C   C55       1.0  0.89060  0.54370  0.81230  1.0000 0.575177192
C   C56       1.0  0.97990  0.61220  0.46680  1.0000 0.6099296503
C   C57       1.0  0.61210  0.53370  0.65970  1.0000 0.6099296503
C   C58       1.0  0.74150  0.52700  0.63570  1.0000 0.1502769099
C   C59       1.0  0.68330  0.54070  0.69260  1.0000 -0.1421605188
C   C60       1.0  0.80650  0.52960  0.67310  1.0000 0.1297235528
C   C61       1.0  0.69820  0.56170  0.78940  1.0000 -0.1154472015
C   C62       1.0  0.82080  0.54790  0.76870  1.0000 -0.1104286716
C   C63       1.0  0.76400  0.56760  0.82010  1.0000 -0.1104286716
C   C64       1.0  0.97780  0.68540  0.42880  1.0000 -0.1104286716
C   C65       1.0  0.97000  0.80780  0.44610  1.0000 0.139417588
C   C66       1.0  0.95500  0.81470  0.60400  1.0000 0.0812908851
C   C67       1.0  0.97630  0.82030  0.34950  1.0000 -0.1336584172
C   C68       1.0  0.98020  0.89020  0.30710  1.0000 0.5859746926
C   C69       1.0  0.97020  0.74110  0.48800  1.0000 0.1502769099
C   C70       1.0  0.81540  0.47980  0.52330  1.0000 0.1814191931
C   C71       1.0  0.98030  0.76060  0.29020  1.0000 -0.1104286716
C   C72       1.0  0.97900  0.69920  0.33010  1.0000 -0.0979468587
C   C73       1.0  0.54370  0.89060  0.18770  1.0000 0.5749408
C   C74       1.0  0.61220  0.97990  0.53320  1.0000 0.6099296503
C   C75       1.0  0.53370  0.61210  0.34030  1.0000 0.6099296503
C   C76       1.0  0.52700  0.74150  0.36430  1.0000 0.1502769099
C   C77       1.0  0.54070  0.68330  0.30740  1.0000 -0.1421605188
C   C78       1.0  0.52960  0.80650  0.32690  1.0000 0.1297235528
C   C79       1.0  0.56170  0.69820  0.21060  1.0000 -0.1154472015
C   C80       1.0  0.54790  0.82080  0.23130  1.0000 -0.1104286716
C   C81       1.0  0.56760  0.76400  0.17990  1.0000 -0.1104286716
C   C82       1.0  0.68540  0.97780  0.57120  1.0000 -0.1104286716
C   C83       1.0  0.80780  0.97000  0.55390  1.0000 0.139417588
C   C84       1.0  0.81470  0.95500  0.39600  1.0000 0.0812908851
C   C85       1.0  0.82030  0.97630  0.65050  1.0000 -0.1336584172
C   C86       1.0  0.89020  0.98020  0.69290  1.0000 0.5859746926
C   C87       1.0  0.74110  0.97020  0.51200  1.0000 0.1502769099
C   C88       1.0  0.47980  0.81540  0.47670  1.0000 0.1814191931
C   C89       1.0  0.76060  0.98030  0.70980  1.0000 -0.1104286716
C   C90       1.0  0.69920  0.97900  0.66990  1.0000 -0.0979468587
C   C91       1.0  0.45630  0.10940  0.68770  1.0000 0.575177192
C   C92       1.0  0.38780  0.02010  0.03320  1.0000 0.6099296503
C   C93       1.0  0.46630  0.38790  0.84030  1.0000 0.6099296503
C   C94       1.0  0.47300  0.25850  0.86430  1.0000 0.1502769099
C   C95       1.0  0.45930  0.31670  0.80740  1.0000 -0.1421605188
C   C96       1.0  0.47040  0.19350  0.82690  1.0000 0.1297235528
C   C97       1.0  0.43830  0.30180  0.71060  1.0000 -0.1154472015
C   C98       1.0  0.45210  0.17920  0.73130  1.0000 -0.1104286716
C   C99       1.0  0.43240  0.23600  0.67990  1.0000 -0.1104286716
C   C100      1.0  0.31460  0.02220  0.07120  1.0000 -0.1104286716
C   C101      1.0  0.19220  0.03000  0.05390  1.0000 0.139417588
C   C102      1.0  0.18530  0.04500  0.89600  1.0000 0.0812908851
C   C103      1.0  0.17970  0.02370  0.15050  1.0000 -0.1336584172
C   C104      1.0  0.10980  0.01980  0.19290  1.0000 0.5859746926
C   C105      1.0  0.25890  0.02980  0.01200  1.0000 0.1502769099
C   C106      1.0  0.52020  0.18460  0.97670  1.0000 0.1814191931
C   C107      1.0  0.23940  0.01970  0.20980  1.0000 -0.1104286716
C   C108      1.0  0.30080  0.02100  0.16990  1.0000 -0.0979468587
C   C109      1.0  0.39060  0.95630  0.43770  1.0000 0.575177192
C   C110      1.0  0.47990  0.88780  0.78320  1.0000 0.6099296503
C   C111      1.0  0.11210  0.96630  0.59030  1.0000 0.6099296503
C   C112      1.0  0.24150  0.97300  0.61430  1.0000 0.1502769099
C   C113      1.0  0.18330  0.95930  0.55740  1.0000 -0.1421605188
C   C114      1.0  0.30650  0.97040  0.57690  1.0000 0.1297235528
C   C115      1.0  0.19820  0.93830  0.46060  1.0000 -0.1154472015
C   C116      1.0  0.32080  0.95210  0.48130  1.0000 -0.1104286716
C   C117      1.0  0.26400  0.93240  0.42990  1.0000 -0.1104286716
C   C118      1.0  0.47780  0.81460  0.82120  1.0000 -0.1104286716
C   C119      1.0  0.47000  0.69220  0.80390  1.0000 0.139417588
C   C120      1.0  0.45500  0.68530  0.64600  1.0000 0.0812908851
C   C121      1.0  0.47630  0.67970  0.90050  1.0000 -0.1336584172
C   C122      1.0  0.48020  0.60980  0.94290  1.0000 0.5859746926
C   C123      1.0  0.47020  0.75890  0.76200  1.0000 0.1502769099
C   C124      1.0  0.31540  0.02020  0.72670  1.0000 0.1814191931
C   C125      1.0  0.48030  0.73940  0.95980  1.0000 -0.1104286716
C   C126      1.0  0.47900  0.80080  0.91990  1.0000 -0.0979468587
C   C127      1.0  0.60940  0.04370  0.93770  1.0000 0.5749408
C   C128      1.0  0.52010  0.11220  0.28320  1.0000 0.6099296503
C   C129      1.0  0.88790  0.03370  0.09030  1.0000 0.6099296503
C   C130      1.0  0.75850  0.02700  0.11430  1.0000 0.1502769099
C   C131      1.0  0.81670  0.04070  0.05740  1.0000 -0.1421605188
C   C132      1.0  0.69350  0.02960  0.07690  1.0000 0.1217579406
C   C133      1.0  0.80180  0.06170  0.96060  1.0000 -0.1154472015
C   C134      1.0  0.67920  0.04790  0.98130  1.0000 -0.1104286716
C   C135      1.0  0.73600  0.06760  0.92990  1.0000 -0.1104286716
C   C136      1.0  0.52220  0.18540  0.32120  1.0000 -0.1104286716
C   C137      1.0  0.53000  0.30780  0.30390  1.0000 0.139417588
C   C138      1.0  0.54500  0.31470  0.14600  1.0000 0.0812908851
C   C139      1.0  0.52370  0.32030  0.40050  1.0000 -0.1336584172
C   C140      1.0  0.51980  0.39020  0.44290  1.0000 0.5859746926
C   C141      1.0  0.52980  0.24110  0.26200  1.0000 0.1502769099
C   C142      1.0  0.68460  0.97980  0.22670  1.0000 0.1814191931
C   C143      1.0  0.51970  0.26060  0.45980  1.0000 -0.1104286716
C   C144      1.0  0.52100  0.19920  0.41990  1.0000 -0.0979468587
O   O1        1.0  0.96344  0.44309  0.50780  1.0000 -0.5602698333
O   O2        1.0  0.98700  0.35341  0.35220  1.0000 -0.2236445646
O   O3        1.0  0.89824  0.47010  0.30280  1.0000 -0.5235984332
O   O4        1.0  0.93175  0.49270  0.15420  1.0000 -0.5362471349
O   O5        1.0  0.55771  0.46799  0.11020  1.0000 -0.5780917785
O   O6        1.0  0.95700  0.06824  0.47060  1.0000 -0.5284330256
O   O7        1.0  0.98990  0.24476  0.29010  1.0000 -0.188064194
O   O8        1.0  0.75493  0.46070  0.33260  1.0000 -0.1552508778
O   O9        1.0  0.60290  0.49150  0.96990  1.0000 -0.4809123561
O   O10       1.0  0.64693  0.45940  0.26720  1.0000 -0.2072869546
O   O11       1.0  0.97830  0.10145  0.32090  1.0000 -0.5451213128
O   O12       1.0  0.94710  0.39810  0.64870  1.0000 -0.4809123561
O   O13       1.0  0.03656  0.55691  0.00780  1.0000 -0.5602698333
O   O14       1.0  0.01300  0.64659  0.85220  1.0000 -0.2236445646
O   O15       1.0  0.10176  0.52990  0.80280  1.0000 -0.5235984332
O   O16       1.0  0.06825  0.50730  0.65420  1.0000 -0.5362471349
O   O17       1.0  0.44229  0.53201  0.61020  1.0000 -0.5780917785
O   O18       1.0  0.04300  0.93176  0.97060  1.0000 -0.5284330256
O   O19       1.0  0.01010  0.75524  0.79010  1.0000 -0.188064194
O   O20       1.0  0.24507  0.53930  0.83260  1.0000 -0.1552508778
O   O21       1.0  0.39710  0.50850  0.46990  1.0000 -0.4809123561
O   O22       1.0  0.35307  0.54060  0.76720  1.0000 -0.2072869546
O   O23       1.0  0.02170  0.89855  0.82090  1.0000 -0.5451213128
O   O24       1.0  0.05290  0.60190  0.14870  1.0000 -0.4809123561
O   O25       1.0  0.05691  0.46344  0.25780  1.0000 -0.5602698333
O   O26       1.0  0.14659  0.48700  0.10220  1.0000 -0.2236445646
O   O27       1.0  0.02990  0.39824  0.05280  1.0000 -0.5235984332
O   O28       1.0  0.00730  0.43175  0.90420  1.0000 -0.5362471349
O   O29       1.0  0.03201  0.05771  0.86020  1.0000 -0.5780917785
O   O30       1.0  0.43176  0.45700  0.22060  1.0000 -0.5284330256
O   O31       1.0  0.25524  0.48990  0.04010  1.0000 -0.188064194
O   O32       1.0  0.03930  0.25493  0.08260  1.0000 -0.1552508778
O   O33       1.0  0.00850  0.10290  0.71990  1.0000 -0.4809123561
O   O34       1.0  0.04060  0.14693  0.01720  1.0000 -0.2072869546
O   O35       1.0  0.39855  0.47830  0.07090  1.0000 -0.5451213128
O   O36       1.0  0.10190  0.44710  0.39870  1.0000 -0.4809123561
O   O37       1.0  0.94309  0.53656  0.75780  1.0000 -0.5602698333
O   O38       1.0  0.85341  0.51300  0.60220  1.0000 -0.2236445646
O   O39       1.0  0.97010  0.60176  0.55280  1.0000 -0.5235984332
O   O40       1.0  0.99270  0.56825  0.40420  1.0000 -0.5362471349
O   O41       1.0  0.96799  0.94229  0.36020  1.0000 -0.5780917785
O   O42       1.0  0.56824  0.54300  0.72060  1.0000 -0.5284330256
O   O43       1.0  0.74476  0.51010  0.54010  1.0000 -0.188064194
O   O44       1.0  0.96070  0.74507  0.58260  1.0000 -0.1546949453
O   O45       1.0  0.99150  0.89710  0.21990  1.0000 -0.4852464206
O   O46       1.0  0.95940  0.85307  0.51720  1.0000 -0.2072869546
O   O47       1.0  0.60145  0.52170  0.57090  1.0000 -0.5451213128
O   O48       1.0  0.89810  0.55290  0.89870  1.0000 -0.4809123561
O   O49       1.0  0.53656  0.94309  0.24220  1.0000 -0.5602698333
O   O50       1.0  0.51300  0.85341  0.39780  1.0000 -0.2236445646
O   O51       1.0  0.60176  0.97010  0.44720  1.0000 -0.5235984332
O   O52       1.0  0.56825  0.99270  0.59580  1.0000 -0.5362471349
O   O53       1.0  0.94229  0.96799  0.63980  1.0000 -0.5780917785
O   O54       1.0  0.54300  0.56824  0.27940  1.0000 -0.5284330256
O   O55       1.0  0.51010  0.74476  0.45990  1.0000 -0.188064194
O   O56       1.0  0.74507  0.96070  0.41740  1.0000 -0.1552508778
O   O57       1.0  0.89710  0.99150  0.78010  1.0000 -0.4852464206
O   O58       1.0  0.85307  0.95940  0.48280  1.0000 -0.2072869546
O   O59       1.0  0.52170  0.60145  0.42910  1.0000 -0.5451213128
O   O60       1.0  0.55290  0.89810  0.10130  1.0000 -0.4809123561
O   O61       1.0  0.46344  0.05691  0.74220  1.0000 -0.5602698333
O   O62       1.0  0.48700  0.14659  0.89780  1.0000 -0.2236445646
O   O63       1.0  0.39824  0.02990  0.94720  1.0000 -0.5235984332
O   O64       1.0  0.43175  0.00730  0.09580  1.0000 -0.5362471349
O   O65       1.0  0.05771  0.03201  0.13980  1.0000 -0.5780917785
O   O66       1.0  0.45700  0.43176  0.77940  1.0000 -0.5284330256
O   O67       1.0  0.48990  0.25524  0.95990  1.0000 -0.188064194
O   O68       1.0  0.25493  0.03930  0.91740  1.0000 -0.1552508778
O   O69       1.0  0.10290  0.00850  0.28010  1.0000 -0.4809123561
O   O70       1.0  0.14693  0.04060  0.98280  1.0000 -0.2072869546
O   O71       1.0  0.47830  0.39855  0.92910  1.0000 -0.5451213128
O   O72       1.0  0.44710  0.10190  0.60130  1.0000 -0.4809123561
O   O73       1.0  0.44309  0.96344  0.49220  1.0000 -0.5602698333
O   O74       1.0  0.35341  0.98700  0.64780  1.0000 -0.2236445646
O   O75       1.0  0.47010  0.89824  0.69720  1.0000 -0.5235984332
O   O76       1.0  0.49270  0.93175  0.84580  1.0000 -0.5362471349
O   O77       1.0  0.46799  0.55771  0.88980  1.0000 -0.5780917785
O   O78       1.0  0.06824  0.95700  0.52940  1.0000 -0.5284330256
O   O79       1.0  0.24476  0.98990  0.70990  1.0000 -0.188064194
O   O80       1.0  0.46070  0.75493  0.66740  1.0000 -0.1552508778
O   O81       1.0  0.49150  0.60290  0.03010  1.0000 -0.4809123561
O   O82       1.0  0.45940  0.64693  0.73280  1.0000 -0.2072869546
O   O83       1.0  0.10145  0.97830  0.67910  1.0000 -0.5451213128
O   O84       1.0  0.39810  0.94710  0.35130  1.0000 -0.4809123561
O   O85       1.0  0.55691  0.03656  0.99220  1.0000 -0.5602698333
O   O86       1.0  0.64659  0.01300  0.14780  1.0000 -0.2236445646
O   O87       1.0  0.52990  0.10176  0.19720  1.0000 -0.5235984332
O   O88       1.0  0.50730  0.06825  0.34580  1.0000 -0.5362471349
O   O89       1.0  0.53201  0.44229  0.38980  1.0000 -0.5780917785
O   O90       1.0  0.93176  0.04300  0.02940  1.0000 -0.5284330256
O   O91       1.0  0.75524  0.01010  0.20990  1.0000 -0.188064194
O   O92       1.0  0.53930  0.24507  0.16740  1.0000 -0.1552508778
O   O93       1.0  0.50850  0.39710  0.53010  1.0000 -0.4809123561
O   O94       1.0  0.54060  0.35307  0.23280  1.0000 -0.2072869546
O   O95       1.0  0.89855  0.02170  0.17910  1.0000 -0.5451213128
O   O96       1.0  0.60190  0.05290  0.85130  1.0000 -0.4809123561
