# DDEC6 charges by PACMAN v1.1 (https://github.com/mtap-research/PACMAN-charge/)
data_2013[Zn][nan]2[ASR]2
_chemical_formula_sum              "Zn6 H48 C96 N12 O36"
_cell_length_a       16.49
_cell_length_b       16.49
_cell_length_c       14.05
_cell_angle_alpha    90
_cell_angle_beta     90
_cell_angle_gamma    120

_symmetry_space_group_name_H-M    "P 1"
_symmetry_Int_Tables_number       1

loop_
  _symmetry_equiv_pos_as_xyz
  'x, y, z'

loop_
  _atom_site_type_symbol
  _atom_site_label
  _atom_site_symmetry_multiplicity
  _atom_site_fract_x
  _atom_site_fract_y
  _atom_site_fract_z
  _atom_site_occupancy
  _atom_site_charge
Zn  Zn1       1.0  0.66667  0.33333  0.75000  1.0000 1.051359003
Zn  Zn2       1.0  0.33333  0.66667  0.25000  1.0000 1.051359003
Zn  Zn3       1.0  0.66667  0.33333  0.52318  1.0000 0.9264045857
Zn  Zn4       1.0  0.33333  0.66667  0.47682  1.0000 0.9264045857
Zn  Zn5       1.0  0.66667  0.33333  0.97682  1.0000 0.9264045857
Zn  Zn6       1.0  0.33333  0.66667  0.02318  1.0000 0.9264045857
H   H1        1.0  0.99858  0.75497  0.77789  1.0000 0.1319738827
H   H2        1.0  0.00142  0.24503  0.22211  1.0000 0.1319738827
H   H3        1.0  0.24503  0.24362  0.77789  1.0000 0.1319738827
H   H4        1.0  0.75497  0.75638  0.22211  1.0000 0.1319738827
H   H5        1.0  0.75638  0.00142  0.77789  1.0000 0.1319738827
H   H6        1.0  0.24362  0.99858  0.22211  1.0000 0.1319738827
H   H7        1.0  0.24503  0.00142  0.72211  1.0000 0.1319738827
H   H8        1.0  0.75497  0.99858  0.27789  1.0000 0.1319738827
H   H9        1.0  0.75638  0.75497  0.72211  1.0000 0.1319738827
H   H10       1.0  0.24362  0.24503  0.27789  1.0000 0.1319738827
H   H11       1.0  0.99858  0.24362  0.72211  1.0000 0.1319738827
H   H12       1.0  0.00142  0.75638  0.27789  1.0000 0.1319738827
H   H13       1.0  0.97441  0.79303  0.47741  1.0000 0.1199058777
H   H14       1.0  0.02559  0.20697  0.52259  1.0000 0.1199058777
H   H15       1.0  0.20697  0.18138  0.47741  1.0000 0.1199058777
H   H16       1.0  0.79303  0.81862  0.52259  1.0000 0.1199058777
H   H17       1.0  0.81862  0.02559  0.47741  1.0000 0.1199058777
H   H18       1.0  0.18138  0.97441  0.52259  1.0000 0.1199058777
H   H19       1.0  0.20697  0.02559  0.02259  1.0000 0.1199058777
H   H20       1.0  0.79303  0.97441  0.97741  1.0000 0.1199058777
H   H21       1.0  0.81862  0.79303  0.02259  1.0000 0.1199058777
H   H22       1.0  0.18138  0.20697  0.97741  1.0000 0.1199058777
H   H23       1.0  0.97441  0.18138  0.02259  1.0000 0.1199058777
H   H24       1.0  0.02559  0.81862  0.97741  1.0000 0.1199058777
H   H25       1.0  0.88533  0.57999  0.75978  1.0000 0.1199058777
H   H26       1.0  0.11467  0.42001  0.24022  1.0000 0.1199058777
H   H27       1.0  0.42001  0.30534  0.75978  1.0000 0.1199058777
H   H28       1.0  0.57999  0.69466  0.24022  1.0000 0.1199058777
H   H29       1.0  0.69466  0.11467  0.75978  1.0000 0.1199058777
H   H30       1.0  0.30534  0.88533  0.24022  1.0000 0.1199058777
H   H31       1.0  0.42001  0.11467  0.74022  1.0000 0.1199058777
H   H32       1.0  0.57999  0.88533  0.25978  1.0000 0.1199058777
H   H33       1.0  0.69466  0.57999  0.74022  1.0000 0.1199058777
H   H34       1.0  0.30534  0.42001  0.25978  1.0000 0.1199058777
H   H35       1.0  0.88533  0.30534  0.74022  1.0000 0.1199058777
H   H36       1.0  0.11467  0.69466  0.25978  1.0000 0.1199058777
H   H37       1.0  0.85551  0.61982  0.46105  1.0000 0.1199058777
H   H38       1.0  0.14449  0.38018  0.53895  1.0000 0.1199058777
H   H39       1.0  0.38018  0.23569  0.46105  1.0000 0.1199058777
H   H40       1.0  0.61982  0.76431  0.53895  1.0000 0.1199058777
H   H41       1.0  0.76431  0.14449  0.46105  1.0000 0.1199058777
H   H42       1.0  0.23569  0.85551  0.53895  1.0000 0.1199058777
H   H43       1.0  0.38018  0.14449  0.03895  1.0000 0.1199058777
H   H44       1.0  0.61982  0.85551  0.96105  1.0000 0.1199058777
H   H45       1.0  0.76431  0.61982  0.03895  1.0000 0.1199058777
H   H46       1.0  0.23569  0.38018  0.96105  1.0000 0.1199058777
H   H47       1.0  0.85551  0.23569  0.03895  1.0000 0.1199058777
H   H48       1.0  0.14449  0.76431  0.96105  1.0000 0.1199058777
C   C1        1.0  0.96876  0.72333  0.70878  1.0000 -0.1882113638
C   C2        1.0  0.03124  0.27667  0.29122  1.0000 -0.1882113638
C   C3        1.0  0.27667  0.24543  0.70878  1.0000 -0.1882113638
C   C4        1.0  0.72333  0.75457  0.29122  1.0000 -0.1882113638
C   C5        1.0  0.75457  0.03124  0.70878  1.0000 -0.1882113638
C   C6        1.0  0.24543  0.96876  0.29122  1.0000 -0.1882113638
C   C7        1.0  0.27667  0.03124  0.79122  1.0000 -0.1882113638
C   C8        1.0  0.72333  0.96876  0.20878  1.0000 -0.1882113638
C   C9        1.0  0.75457  0.72333  0.79122  1.0000 -0.1882113638
C   C10       1.0  0.24543  0.27667  0.20878  1.0000 -0.1882113638
C   C11       1.0  0.96876  0.24543  0.79122  1.0000 -0.1882113638
C   C12       1.0  0.03124  0.75457  0.20878  1.0000 -0.1882113638
C   C13       1.0  0.95349  0.74524  0.53803  1.0000 -0.1882113638
C   C14       1.0  0.04651  0.25476  0.46197  1.0000 -0.1882113638
C   C15       1.0  0.25476  0.20825  0.53803  1.0000 -0.1882113638
C   C16       1.0  0.74524  0.79175  0.46197  1.0000 -0.1882113638
C   C17       1.0  0.79175  0.04651  0.53803  1.0000 -0.1882113638
C   C18       1.0  0.20825  0.95349  0.46197  1.0000 -0.1882113638
C   C19       1.0  0.25476  0.04651  0.96197  1.0000 -0.1882113638
C   C20       1.0  0.74524  0.95349  0.03803  1.0000 -0.1882113638
C   C21       1.0  0.79175  0.74524  0.96197  1.0000 -0.1882113638
C   C22       1.0  0.20825  0.25476  0.03803  1.0000 -0.1882113638
C   C23       1.0  0.95349  0.20825  0.96197  1.0000 -0.1882113638
C   C24       1.0  0.04651  0.79175  0.03803  1.0000 -0.1882113638
C   C25       1.0  0.02545  0.93747  0.63352  1.0000 0.5875219854
C   C26       1.0  0.97455  0.06253  0.36648  1.0000 0.5875219854
C   C27       1.0  0.06253  0.08798  0.63352  1.0000 0.5875219854
C   C28       1.0  0.93747  0.91202  0.36648  1.0000 0.5875219854
C   C29       1.0  0.91202  0.97455  0.63352  1.0000 0.5875219854
C   C30       1.0  0.08798  0.02545  0.36648  1.0000 0.5875219854
C   C31       1.0  0.06253  0.97455  0.86648  1.0000 0.5875219854
C   C32       1.0  0.93747  0.02545  0.13352  1.0000 0.5875219854
C   C33       1.0  0.91202  0.93747  0.86648  1.0000 0.5875219854
C   C34       1.0  0.08798  0.06253  0.13352  1.0000 0.5875219854
C   C35       1.0  0.02545  0.08798  0.86648  1.0000 0.5875219854
C   C36       1.0  0.97455  0.91202  0.13352  1.0000 0.5875219854
C   C37       1.0  0.90563  0.62779  0.69873  1.0000 -0.0617818396
C   C38       1.0  0.09437  0.37221  0.30127  1.0000 -0.0617818396
C   C39       1.0  0.37221  0.27784  0.69873  1.0000 -0.0617818396
C   C40       1.0  0.62779  0.72216  0.30127  1.0000 -0.0617818396
C   C41       1.0  0.72216  0.09437  0.69873  1.0000 -0.0617818396
C   C42       1.0  0.27784  0.90563  0.30127  1.0000 -0.0617818396
C   C43       1.0  0.37221  0.09437  0.80127  1.0000 -0.0617818396
C   C44       1.0  0.62779  0.90563  0.19873  1.0000 -0.0617818396
C   C45       1.0  0.72216  0.62779  0.80127  1.0000 -0.0617818396
C   C46       1.0  0.27784  0.37221  0.19873  1.0000 -0.0617818396
C   C47       1.0  0.90563  0.27784  0.80127  1.0000 -0.0617818396
C   C48       1.0  0.09437  0.72216  0.19873  1.0000 -0.0617818396
C   C49       1.0  0.79488  0.49131  0.59828  1.0000 0.5962755533
C   C50       1.0  0.20512  0.50869  0.40172  1.0000 0.5962755533
C   C51       1.0  0.50869  0.30358  0.59828  1.0000 0.5962755533
C   C52       1.0  0.49131  0.69642  0.40172  1.0000 0.5962755533
C   C53       1.0  0.69642  0.20512  0.59828  1.0000 0.5962755533
C   C54       1.0  0.30358  0.79488  0.40172  1.0000 0.5962755533
C   C55       1.0  0.50869  0.20512  0.90172  1.0000 0.5962755533
C   C56       1.0  0.49131  0.79488  0.09828  1.0000 0.5962755533
C   C57       1.0  0.69642  0.49131  0.90172  1.0000 0.5962755533
C   C58       1.0  0.30358  0.50869  0.09828  1.0000 0.5962755533
C   C59       1.0  0.79488  0.30358  0.90172  1.0000 0.5962755533
C   C60       1.0  0.20512  0.69642  0.09828  1.0000 0.5962755533
C   C61       1.0  0.86497  0.59181  0.60935  1.0000 -0.0476578633
C   C62       1.0  0.13503  0.40819  0.39065  1.0000 -0.0476578633
C   C63       1.0  0.40819  0.27316  0.60935  1.0000 -0.0476578633
C   C64       1.0  0.59181  0.72684  0.39065  1.0000 -0.0476578633
C   C65       1.0  0.72684  0.13503  0.60935  1.0000 -0.0476578633
C   C66       1.0  0.27316  0.86497  0.39065  1.0000 -0.0476578633
C   C67       1.0  0.40819  0.13503  0.89065  1.0000 -0.0476578633
C   C68       1.0  0.59181  0.86497  0.10935  1.0000 -0.0476578633
C   C69       1.0  0.72684  0.59181  0.89065  1.0000 -0.0476578633
C   C70       1.0  0.27316  0.40819  0.10935  1.0000 -0.0476578633
C   C71       1.0  0.86497  0.27316  0.89065  1.0000 -0.0476578633
C   C72       1.0  0.13503  0.72684  0.10935  1.0000 -0.0476578633
C   C73       1.0  0.99069  0.77958  0.62813  1.0000 0.2667464443
C   C74       1.0  0.00931  0.22042  0.37187  1.0000 0.2667464443
C   C75       1.0  0.22042  0.21111  0.62813  1.0000 0.2667464443
C   C76       1.0  0.77958  0.78889  0.37187  1.0000 0.2667464443
C   C77       1.0  0.78889  0.00931  0.62813  1.0000 0.2667464443
C   C78       1.0  0.21111  0.99069  0.37187  1.0000 0.2667464443
C   C79       1.0  0.22042  0.00931  0.87187  1.0000 0.2667464443
C   C80       1.0  0.77958  0.99069  0.12813  1.0000 0.2667464443
C   C81       1.0  0.78889  0.77958  0.87187  1.0000 0.2667464443
C   C82       1.0  0.21111  0.22042  0.12813  1.0000 0.2667464443
C   C83       1.0  0.99069  0.21111  0.87187  1.0000 0.2667464443
C   C84       1.0  0.00931  0.78889  0.12813  1.0000 0.2667464443
C   C85       1.0  0.88896  0.65039  0.52928  1.0000 -0.0617818396
C   C86       1.0  0.11104  0.34961  0.47072  1.0000 -0.0617818396
C   C87       1.0  0.34961  0.23858  0.52928  1.0000 -0.0617818396
C   C88       1.0  0.65039  0.76142  0.47072  1.0000 -0.0617818396
C   C89       1.0  0.76142  0.11104  0.52928  1.0000 -0.0617818396
C   C90       1.0  0.23858  0.88896  0.47072  1.0000 -0.0617818396
C   C91       1.0  0.34961  0.11104  0.97072  1.0000 -0.0617818396
C   C92       1.0  0.65039  0.88896  0.02928  1.0000 -0.0617818396
C   C93       1.0  0.76142  0.65039  0.97072  1.0000 -0.0617818396
C   C94       1.0  0.23858  0.34961  0.02928  1.0000 -0.0617818396
C   C95       1.0  0.88896  0.23858  0.97072  1.0000 -0.0617818396
C   C96       1.0  0.11104  0.76142  0.02928  1.0000 -0.0617818396
N   N1        1.0  0.93267  0.90496  0.63310  1.0000 -0.5185578016
N   N2        1.0  0.06733  0.09504  0.36690  1.0000 -0.5185578016
N   N3        1.0  0.09504  0.02770  0.63310  1.0000 -0.5185578016
N   N4        1.0  0.90496  0.97230  0.36690  1.0000 -0.5185578016
N   N5        1.0  0.97230  0.06733  0.63310  1.0000 -0.5185578016
N   N6        1.0  0.02770  0.93267  0.36690  1.0000 -0.5185578016
N   N7        1.0  0.09504  0.06733  0.86690  1.0000 -0.5185578016
N   N8        1.0  0.90496  0.93267  0.13310  1.0000 -0.5185578016
N   N9        1.0  0.97230  0.90496  0.86690  1.0000 -0.5185578016
N   N10       1.0  0.02770  0.09504  0.13310  1.0000 -0.5185578016
N   N11       1.0  0.93267  0.02770  0.86690  1.0000 -0.5185578016
N   N12       1.0  0.06733  0.97230  0.13310  1.0000 -0.5185578016
O   O1        1.0  0.05742  0.87626  0.63636  1.0000 -0.23052072
O   O2        1.0  0.94258  0.12374  0.36364  1.0000 -0.23052072
O   O3        1.0  0.12374  0.18116  0.63636  1.0000 -0.23052072
O   O4        1.0  0.87626  0.81884  0.36364  1.0000 -0.23052072
O   O5        1.0  0.81884  0.94258  0.63636  1.0000 -0.23052072
O   O6        1.0  0.18116  0.05742  0.36364  1.0000 -0.23052072
O   O7        1.0  0.12374  0.94258  0.86364  1.0000 -0.23052072
O   O8        1.0  0.87626  0.05742  0.13636  1.0000 -0.23052072
O   O9        1.0  0.81884  0.87626  0.86364  1.0000 -0.23052072
O   O10       1.0  0.18116  0.12374  0.13636  1.0000 -0.23052072
O   O11       1.0  0.05742  0.18116  0.86364  1.0000 -0.23052072
O   O12       1.0  0.94258  0.81884  0.13636  1.0000 -0.23052072
O   O13       1.0  0.77703  0.43600  0.66819  1.0000 -0.5743159053
O   O14       1.0  0.22297  0.56400  0.33181  1.0000 -0.5743159053
O   O15       1.0  0.56400  0.34103  0.66819  1.0000 -0.5743159053
O   O16       1.0  0.43600  0.65897  0.33181  1.0000 -0.5743159053
O   O17       1.0  0.65897  0.22297  0.66819  1.0000 -0.5743159053
O   O18       1.0  0.34103  0.77703  0.33181  1.0000 -0.5743159053
O   O19       1.0  0.56400  0.22297  0.83181  1.0000 -0.5743159053
O   O20       1.0  0.43600  0.77703  0.16819  1.0000 -0.5743159053
O   O21       1.0  0.65897  0.43600  0.83181  1.0000 -0.5743159053
O   O22       1.0  0.34103  0.56400  0.16819  1.0000 -0.5743159053
O   O23       1.0  0.77703  0.34103  0.83181  1.0000 -0.5743159053
O   O24       1.0  0.22297  0.65897  0.16819  1.0000 -0.5743159053
O   O25       1.0  0.75568  0.46511  0.51484  1.0000 -0.5552248307
O   O26       1.0  0.24432  0.53489  0.48516  1.0000 -0.5552248307
O   O27       1.0  0.53489  0.29057  0.51484  1.0000 -0.5552248307
O   O28       1.0  0.46511  0.70943  0.48516  1.0000 -0.5552248307
O   O29       1.0  0.70943  0.24432  0.51484  1.0000 -0.5552248307
O   O30       1.0  0.29057  0.75568  0.48516  1.0000 -0.5552248307
O   O31       1.0  0.53489  0.24432  0.98516  1.0000 -0.5552248307
O   O32       1.0  0.46511  0.75568  0.01484  1.0000 -0.5552248307
O   O33       1.0  0.70943  0.46511  0.98516  1.0000 -0.5552248307
O   O34       1.0  0.29057  0.53489  0.01484  1.0000 -0.5552248307
O   O35       1.0  0.75568  0.29057  0.98516  1.0000 -0.5552248307
O   O36       1.0  0.24432  0.70943  0.01484  1.0000 -0.5552248307
