# DDEC6 charges by PACMAN v1.1 (https://github.com/mtap-research/PACMAN-charge/)
data_2013[Tm][pcu]3[ASR]1
_chemical_formula_sum              "Tm2 H36 C36 O12"
_cell_length_a       9.955
_cell_length_b       12.795
_cell_length_c       13.801
_cell_angle_alpha    69.415
_cell_angle_beta     82.562
_cell_angle_gamma    83.117

_symmetry_space_group_name_H-M    "P 1"
_symmetry_Int_Tables_number       1

loop_
  _symmetry_equiv_pos_as_xyz
  'x, y, z'

loop_
  _atom_site_type_symbol
  _atom_site_label
  _atom_site_symmetry_multiplicity
  _atom_site_fract_x
  _atom_site_fract_y
  _atom_site_fract_z
  _atom_site_occupancy
  _atom_site_charge
Tm  Tm1       1.0  0.46981  0.35965  0.62519  1.0000 1.9923739148
Tm  Tm2       1.0  0.53019  0.64035  0.37481  1.0000 1.9923739148
H   H1        1.0  0.81030  0.06200  0.51350  1.0000 0.130073648
H   H2        1.0  0.18970  0.93800  0.48650  1.0000 0.130073648
H   H3        1.0  0.73860  0.04550  0.62540  1.0000 0.130073648
H   H4        1.0  0.26140  0.95450  0.37460  1.0000 0.130073648
H   H5        1.0  0.71450  0.15950  0.53500  1.0000 0.130073648
H   H6        1.0  0.28550  0.84050  0.46500  1.0000 0.130073648
H   H7        1.0  0.31070  0.23310  0.38240  1.0000 0.1220522834
H   H8        1.0  0.68930  0.76690  0.61760  1.0000 0.1220522834
H   H9        1.0  0.20510  0.14220  0.42530  1.0000 0.1220522834
H   H10       1.0  0.79490  0.85780  0.57470  1.0000 0.1220522834
H   H11       1.0  0.29480  0.15420  0.32040  1.0000 0.130073648
H   H12       1.0  0.70520  0.84580  0.67960  1.0000 0.130073648
H   H13       1.0  0.73170  0.56410  0.64660  1.0000 0.130073648
H   H14       1.0  0.26830  0.43590  0.35340  1.0000 0.130073648
H   H15       1.0  0.85410  0.59400  0.69020  1.0000 0.1100442882
H   H16       1.0  0.14590  0.40600  0.30980  1.0000 0.1100442882
H   H17       1.0  0.81630  0.46960  0.72700  1.0000 0.1455318792
H   H18       1.0  0.18370  0.53040  0.27300  1.0000 0.1455318792
H   H19       1.0  0.82070  0.35280  0.41280  1.0000 0.1361740617
H   H20       1.0  0.17930  0.64720  0.58720  1.0000 0.1361740617
H   H21       1.0  0.97020  0.32820  0.36970  1.0000 0.1220522834
H   H22       1.0  0.02980  0.67180  0.63030  1.0000 0.1220522834
H   H23       1.0  0.88540  0.43870  0.31060  1.0000 0.1361740617
H   H24       1.0  0.11460  0.56130  0.68940  1.0000 0.1361740617
H   H25       1.0  0.72490  0.10390  0.79800  1.0000 0.1361740617
H   H26       1.0  0.27510  0.89610  0.20200  1.0000 0.1361740617
H   H27       1.0  0.74580  0.97470  0.81870  1.0000 0.1220522834
H   H28       1.0  0.25420  0.02530  0.18130  1.0000 0.1220522834
H   H29       1.0  0.81390  0.02650  0.88580  1.0000 0.1220522834
H   H30       1.0  0.18610  0.97350  0.11420  1.0000 0.1220522834
H   H31       1.0  0.28480  0.22470  0.90590  1.0000 0.1100442882
H   H32       1.0  0.71520  0.77530  0.09410  1.0000 0.1100442882
H   H33       1.0  0.21950  0.16580  0.01910  1.0000 0.1100442882
H   H34       1.0  0.78050  0.83420  0.98090  1.0000 0.1100442882
H   H35       1.0  0.19640  0.12360  0.92920  1.0000 0.130073648
H   H36       1.0  0.80360  0.87640  0.07080  1.0000 0.130073648
C   C1        1.0  0.52560  0.23580  0.44370  1.0000 0.6066091968
C   C2        1.0  0.47440  0.76420  0.55630  1.0000 0.6066091968
C   C3        1.0  0.51140  0.11190  0.47350  1.0000 -0.1075417684
C   C4        1.0  0.48860  0.88810  0.52650  1.0000 -0.1075417684
C   C5        1.0  0.61250  0.03750  0.52640  1.0000 0.0870899273
C   C6        1.0  0.38750  0.96250  0.47360  1.0000 0.0870899273
C   C7        1.0  0.72910  0.07980  0.55230  1.0000 -0.4465239035
C   C8        1.0  0.27090  0.92020  0.44770  1.0000 -0.4465239035
C   C9        1.0  0.39920  0.07640  0.44680  1.0000 0.0870899273
C   C10       1.0  0.60080  0.92360  0.55320  1.0000 0.0870899273
C   C11       1.0  0.29290  0.15890  0.38850  1.0000 -0.437560259
C   C12       1.0  0.70710  0.84110  0.61150  1.0000 -0.437560259
C   C13       1.0  0.73170  0.42700  0.54850  1.0000 0.6013606203
C   C14       1.0  0.26830  0.57300  0.45150  1.0000 0.6013606203
C   C15       1.0  0.87160  0.46570  0.52190  1.0000 -0.1161418693
C   C16       1.0  0.12840  0.53430  0.47810  1.0000 -0.1161418693
C   C17       1.0  0.91490  0.51990  0.58170  1.0000 0.0821765376
C   C18       1.0  0.08510  0.48010  0.41830  1.0000 0.0821765376
C   C19       1.0  0.82070  0.53860  0.66930  1.0000 -0.4292094396
C   C20       1.0  0.17930  0.46140  0.33070  1.0000 -0.4292094396
C   C21       1.0  0.95440  0.44440  0.44040  1.0000 0.0821765376
C   C22       1.0  0.04560  0.55560  0.55960  1.0000 0.0821765376
C   C23       1.0  0.90310  0.38580  0.37780  1.0000 -0.4292094396
C   C24       1.0  0.09690  0.61420  0.62220  1.0000 -0.4292094396
C   C25       1.0  0.49480  0.18250  0.80630  1.0000 0.5565331889
C   C26       1.0  0.50520  0.81750  0.19370  1.0000 0.5565331889
C   C27       1.0  0.49820  0.08690  0.90800  1.0000 -0.1028315338
C   C28       1.0  0.50180  0.91310  0.09200  1.0000 -0.1028315338
C   C29       1.0  0.61300  0.01390  0.92640  1.0000 0.0870899273
C   C30       1.0  0.38700  0.98610  0.07360  1.0000 0.0870899273
C   C31       1.0  0.73510  0.03130  0.85050  1.0000 -0.4292094396
C   C32       1.0  0.26490  0.96870  0.14950  1.0000 -0.4292094396
C   C33       1.0  0.38610  0.07400  0.97920  1.0000 0.0870899273
C   C34       1.0  0.61390  0.92600  0.02080  1.0000 0.0870899273
C   C35       1.0  0.26010  0.15440  0.95630  1.0000 -0.4135918753
C   C36       1.0  0.73990  0.84560  0.04370  1.0000 -0.4135918753
O   O1        1.0  0.47150  0.28490  0.50560  1.0000 -0.7088541078
O   O2        1.0  0.52850  0.71510  0.49440  1.0000 -0.7088541078
O   O3        1.0  0.58930  0.28440  0.36130  1.0000 -0.4465239035
O   O4        1.0  0.41070  0.71560  0.63870  1.0000 -0.4465239035
O   O5        1.0  0.71030  0.33590  0.61750  1.0000 -0.5591754602
O   O6        1.0  0.28970  0.66410  0.38250  1.0000 -0.5591754602
O   O7        1.0  0.63320  0.48690  0.50330  1.0000 -0.7221222209
O   O8        1.0  0.36680  0.51310  0.49670  1.0000 -0.7221222209
O   O9        1.0  0.49210  0.16360  0.72350  1.0000 -0.5866235482
O   O10       1.0  0.50790  0.83640  0.27650  1.0000 -0.5866235482
O   O11       1.0  0.49430  0.28060  0.80360  1.0000 -0.6093611704
O   O12       1.0  0.50570  0.71940  0.19640  1.0000 -0.6093611704
