# DDEC6 charges by PACMAN v1.1 (https://github.com/mtap-research/PACMAN-charge/)
data_2013[Co][nan]3[ASR]20
_chemical_formula_sum              "Co8 H168 C224 N16 O48"
_cell_length_a       8.855
_cell_length_b       17.267
_cell_length_c       34.25
_cell_angle_alpha    90
_cell_angle_beta     102.274
_cell_angle_gamma    90

_symmetry_space_group_name_H-M    "P 1"
_symmetry_Int_Tables_number       1

loop_
  _symmetry_equiv_pos_as_xyz
  'x, y, z'

loop_
  _atom_site_type_symbol
  _atom_site_label
  _atom_site_symmetry_multiplicity
  _atom_site_fract_x
  _atom_site_fract_y
  _atom_site_fract_z
  _atom_site_occupancy
  _atom_site_charge
Co  Co1       1.0  0.51905  0.21388  0.19664  1.0000 0.9244741842
Co  Co2       1.0  0.48095  0.71388  0.30336  1.0000 0.9244741842
Co  Co3       1.0  0.48095  0.78612  0.80336  1.0000 0.9244741842
Co  Co4       1.0  0.51905  0.28612  0.69664  1.0000 0.9244741842
Co  Co5       1.0  0.87134  0.17790  0.16261  1.0000 0.9462615296
Co  Co6       1.0  0.12866  0.67790  0.33739  1.0000 0.9462615296
Co  Co7       1.0  0.12866  0.82210  0.83739  1.0000 0.9462615296
Co  Co8       1.0  0.87134  0.32210  0.66261  1.0000 0.9462615296
H   H1        1.0  0.88160  0.62700  0.21680  1.0000 0.1101674652
H   H2        1.0  0.11840  0.12700  0.28320  1.0000 0.1101674652
H   H3        1.0  0.11840  0.37300  0.78320  1.0000 0.1101674652
H   H4        1.0  0.88160  0.87300  0.71680  1.0000 0.1101674652
H   H5        1.0  0.73590  0.63600  0.15240  1.0000 0.1397382016
H   H6        1.0  0.26410  0.13600  0.34760  1.0000 0.1397382016
H   H7        1.0  0.26410  0.36400  0.84760  1.0000 0.1397382016
H   H8        1.0  0.73590  0.86400  0.65240  1.0000 0.1397382016
H   H9        1.0  0.01600  0.80390  0.12880  1.0000 0.1204693472
H   H10       1.0  0.98400  0.30390  0.37120  1.0000 0.1204693472
H   H11       1.0  0.98400  0.19610  0.87120  1.0000 0.1204693472
H   H12       1.0  0.01600  0.69610  0.62880  1.0000 0.1204693472
H   H13       1.0  0.16310  0.79250  0.19270  1.0000 0.1204693472
H   H14       1.0  0.83690  0.29250  0.30730  1.0000 0.1101674652
H   H15       1.0  0.83690  0.20750  0.80730  1.0000 0.1204693472
H   H16       1.0  0.16310  0.70750  0.69270  1.0000 0.1204693472
H   H17       1.0  0.84820  0.81490  0.07380  1.0000 0.0992665662
H   H18       1.0  0.15180  0.31490  0.42620  1.0000 0.0992665662
H   H19       1.0  0.15180  0.18510  0.92620  1.0000 0.0992665662
H   H20       1.0  0.84820  0.68510  0.57380  1.0000 0.0992665662
H   H21       1.0  0.91230  0.73590  0.06120  1.0000 0.1101674652
H   H22       1.0  0.08770  0.23590  0.43880  1.0000 0.1101674652
H   H23       1.0  0.08770  0.26410  0.93880  1.0000 0.1101674652
H   H24       1.0  0.91230  0.76410  0.56120  1.0000 0.1101674652
H   H25       1.0  0.57630  0.26380  0.91670  1.0000 0.0992665662
H   H26       1.0  0.42370  0.76380  0.58330  1.0000 0.0992665662
H   H27       1.0  0.42370  0.73620  0.08330  1.0000 0.0992665662
H   H28       1.0  0.57630  0.23620  0.41670  1.0000 0.0992665662
H   H29       1.0  0.51260  0.26760  0.87020  1.0000 0.1101674652
H   H30       1.0  0.48740  0.76760  0.62980  1.0000 0.1101674652
H   H31       1.0  0.48740  0.73240  0.12980  1.0000 0.1101674652
H   H32       1.0  0.51260  0.23240  0.37020  1.0000 0.1101674652
H   H33       1.0  0.42030  0.16190  0.90440  1.0000 0.1204693472
H   H34       1.0  0.57970  0.66190  0.59560  1.0000 0.1204693472
H   H35       1.0  0.57970  0.83810  0.09560  1.0000 0.1204693472
H   H36       1.0  0.42030  0.33810  0.40440  1.0000 0.1204693472
H   H37       1.0  0.28800  0.04760  0.89330  1.0000 0.1283981437
H   H38       1.0  0.71200  0.54760  0.60670  1.0000 0.1283981437
H   H39       1.0  0.71200  0.95240  0.10670  1.0000 0.1283981437
H   H40       1.0  0.28800  0.45240  0.39330  1.0000 0.1283981437
H   H41       1.0  0.63200  0.95200  0.85090  1.0000 0.1283981437
H   H42       1.0  0.36800  0.45200  0.64910  1.0000 0.1283981437
H   H43       1.0  0.36800  0.04800  0.14910  1.0000 0.1283981437
H   H44       1.0  0.63200  0.54800  0.35090  1.0000 0.1283981437
H   H45       1.0  0.76760  0.06740  0.86250  1.0000 0.1397382016
H   H46       1.0  0.23240  0.56740  0.63750  1.0000 0.1397382016
H   H47       1.0  0.23240  0.93260  0.13750  1.0000 0.1397382016
H   H48       1.0  0.76760  0.43260  0.36250  1.0000 0.1397382016
H   H49       1.0  0.74410  0.42470  0.20600  1.0000 0.1283981437
H   H50       1.0  0.25590  0.92470  0.29400  1.0000 0.1283981437
H   H51       1.0  0.25590  0.57530  0.79400  1.0000 0.1283981437
H   H52       1.0  0.74410  0.07530  0.70600  1.0000 0.1283981437
H   H53       1.0  0.95580  0.52110  0.30910  1.0000 0.1397382016
H   H54       1.0  0.04420  0.02110  0.19090  1.0000 0.1397382016
H   H55       1.0  0.04420  0.47890  0.69090  1.0000 0.1397382016
H   H56       1.0  0.95580  0.97890  0.80910  1.0000 0.1397382016
H   H57       1.0  0.50740  0.45010  0.23520  1.0000 0.1204693472
H   H58       1.0  0.49260  0.95010  0.26480  1.0000 0.1204693472
H   H59       1.0  0.49260  0.54990  0.76480  1.0000 0.1204693472
H   H60       1.0  0.50740  0.04990  0.73520  1.0000 0.1204693472
H   H61       1.0  0.34370  0.55330  0.25140  1.0000 0.1204693472
H   H62       1.0  0.65630  0.05330  0.24860  1.0000 0.1204693472
H   H63       1.0  0.65630  0.44670  0.74860  1.0000 0.1204693472
H   H64       1.0  0.34370  0.94670  0.75140  1.0000 0.1204693472
H   H65       1.0  0.77120  0.62370  0.28430  1.0000 0.1204693472
H   H66       1.0  0.22880  0.12370  0.21570  1.0000 0.1204693472
H   H67       1.0  0.22880  0.37630  0.71570  1.0000 0.1204693472
H   H68       1.0  0.77120  0.87630  0.78430  1.0000 0.1204693472
H   H69       1.0  0.96720  0.35560  0.20370  1.0000 0.1283981437
H   H70       1.0  0.03280  0.85560  0.29630  1.0000 0.1283981437
H   H71       1.0  0.03280  0.64440  0.79630  1.0000 0.1283981437
H   H72       1.0  0.96720  0.14440  0.70370  1.0000 0.1283981437
H   H73       1.0  0.17900  0.45590  0.30560  1.0000 0.1283981437
H   H74       1.0  0.82100  0.95590  0.19440  1.0000 0.1283981437
H   H75       1.0  0.82100  0.54410  0.69440  1.0000 0.1283981437
H   H76       1.0  0.17900  0.04410  0.80560  1.0000 0.1283981437
H   H77       1.0  0.22140  0.33060  0.19560  1.0000 0.1204693472
H   H78       1.0  0.77860  0.83060  0.30440  1.0000 0.1204693472
H   H79       1.0  0.77860  0.66940  0.80440  1.0000 0.1204693472
H   H80       1.0  0.22140  0.16940  0.69560  1.0000 0.1204693472
H   H81       1.0  0.34550  0.34820  0.31260  1.0000 0.1204693472
H   H82       1.0  0.65450  0.84820  0.18740  1.0000 0.1204693472
H   H83       1.0  0.65450  0.65180  0.68740  1.0000 0.1204693472
H   H84       1.0  0.34550  0.15180  0.81260  1.0000 0.1204693472
H   H85       1.0  0.54150  0.27450  0.28840  1.0000 0.1204693472
H   H86       1.0  0.45850  0.77450  0.21160  1.0000 0.1204693472
H   H87       1.0  0.45850  0.72550  0.71160  1.0000 0.1204693472
H   H88       1.0  0.54150  0.22550  0.78840  1.0000 0.1204693472
H   H89       1.0  0.92630  0.17580  0.08260  1.0000 0.1204693472
H   H90       1.0  0.07370  0.67580  0.41740  1.0000 0.1204693472
H   H91       1.0  0.07370  0.82420  0.91740  1.0000 0.1204693472
H   H92       1.0  0.92630  0.32420  0.58260  1.0000 0.1204693472
H   H93       1.0  0.82620  0.23280  0.02170  1.0000 0.1204693472
H   H94       1.0  0.17380  0.73280  0.47830  1.0000 0.1283981437
H   H95       1.0  0.17380  0.76720  0.97830  1.0000 0.1283981437
H   H96       1.0  0.82620  0.26720  0.52170  1.0000 0.1204693472
H   H97       1.0  0.15860  0.39320  0.04500  1.0000 0.1283981437
H   H98       1.0  0.84140  0.89320  0.45500  1.0000 0.1283981437
H   H99       1.0  0.84140  0.60680  0.95500  1.0000 0.1283981437
H   H100      1.0  0.15860  0.10680  0.54500  1.0000 0.1283981437
H   H101      1.0  0.26900  0.32970  0.10310  1.0000 0.1204693472
H   H102      1.0  0.73100  0.82970  0.39690  1.0000 0.1204693472
H   H103      1.0  0.73100  0.67030  0.89690  1.0000 0.1204693472
H   H104      1.0  0.26900  0.17030  0.60310  1.0000 0.1204693472
H   H105      1.0  0.83120  0.26690  0.95960  1.0000 0.0992665662
H   H106      1.0  0.16880  0.76690  0.54040  1.0000 0.0992665662
H   H107      1.0  0.16880  0.73310  0.04040  1.0000 0.0992665662
H   H108      1.0  0.83120  0.23310  0.45960  1.0000 0.0992665662
H   H109      1.0  0.71870  0.32930  0.97120  1.0000 0.1101674652
H   H110      1.0  0.28130  0.82930  0.52880  1.0000 0.1101674652
H   H111      1.0  0.28130  0.67070  0.02880  1.0000 0.1101674652
H   H112      1.0  0.71870  0.17070  0.47120  1.0000 0.1101674652
H   H113      1.0  0.63890  0.34890  0.82900  1.0000 0.1204693472
H   H114      1.0  0.36110  0.84890  0.67100  1.0000 0.1204693472
H   H115      1.0  0.36110  0.65110  0.17100  1.0000 0.1204693472
H   H116      1.0  0.63890  0.15110  0.32900  1.0000 0.1204693472
H   H117      1.0  0.78250  0.45710  0.82470  1.0000 0.1101674652
H   H118      1.0  0.21750  0.95710  0.67530  1.0000 0.1101674652
H   H119      1.0  0.21750  0.54290  0.17530  1.0000 0.1101674652
H   H120      1.0  0.78250  0.04290  0.32470  1.0000 0.1101674652
H   H121      1.0  0.94410  0.50710  0.88080  1.0000 0.1101674652
H   H122      1.0  0.05590  0.00710  0.61920  1.0000 0.1101674652
H   H123      1.0  0.05590  0.49290  0.11920  1.0000 0.1101674652
H   H124      1.0  0.94410  0.99290  0.38080  1.0000 0.1101674652
H   H125      1.0  0.95670  0.44790  0.94190  1.0000 0.1204693472
H   H126      1.0  0.04330  0.94790  0.55810  1.0000 0.1204693472
H   H127      1.0  0.04330  0.55210  0.05810  1.0000 0.1204693472
H   H128      1.0  0.95670  0.05210  0.44190  1.0000 0.1204693472
H   H129      1.0  0.46760  0.42950  0.13700  1.0000 0.1101674652
H   H130      1.0  0.53240  0.92950  0.36300  1.0000 0.1204693472
H   H131      1.0  0.53240  0.57050  0.86300  1.0000 0.1204693472
H   H132      1.0  0.46760  0.07050  0.63700  1.0000 0.1101674652
H   H133      1.0  0.42260  0.53460  0.09610  1.0000 0.1204693472
H   H134      1.0  0.57740  0.03460  0.40390  1.0000 0.1204693472
H   H135      1.0  0.57740  0.46540  0.90390  1.0000 0.1204693472
H   H136      1.0  0.42260  0.96540  0.59610  1.0000 0.1204693472
H   H137      1.0  0.79560  0.48610  0.05250  1.0000 0.1283981437
H   H138      1.0  0.20440  0.98610  0.44750  1.0000 0.1283981437
H   H139      1.0  0.20440  0.51390  0.94750  1.0000 0.1283981437
H   H140      1.0  0.79560  0.01390  0.55250  1.0000 0.1283981437
H   H141      1.0  0.83940  0.37720  0.09310  1.0000 0.1101674652
H   H142      1.0  0.16060  0.87720  0.40690  1.0000 0.1101674652
H   H143      1.0  0.16060  0.62280  0.90690  1.0000 0.1101674652
H   H144      1.0  0.83940  0.12280  0.59310  1.0000 0.1101674652
H   H145      1.0  0.78290  0.61760  0.04310  1.0000 0.0992665662
H   H146      1.0  0.21710  0.11760  0.45690  1.0000 0.0992665662
H   H147      1.0  0.21710  0.38240  0.95690  1.0000 0.0992665662
H   H148      1.0  0.78290  0.88240  0.54310  1.0000 0.0992665662
H   H149      1.0  0.68340  0.57910  0.00450  1.0000 0.1101674652
H   H150      1.0  0.31660  0.07910  0.49550  1.0000 0.1101674652
H   H151      1.0  0.31660  0.42090  0.99550  1.0000 0.1101674652
H   H152      1.0  0.68340  0.92090  0.50450  1.0000 0.1101674652
H   H153      1.0  0.48130  0.65350  0.96200  1.0000 0.1204693472
H   H154      1.0  0.51870  0.15350  0.53800  1.0000 0.1204693472
H   H155      1.0  0.51870  0.34650  0.03800  1.0000 0.1204693472
H   H156      1.0  0.48130  0.84650  0.46200  1.0000 0.1204693472
H   H157      1.0  0.41100  0.76900  0.93150  1.0000 0.1204693472
H   H158      1.0  0.58900  0.26900  0.56850  1.0000 0.1204693472
H   H159      1.0  0.58900  0.23100  0.06850  1.0000 0.1204693472
H   H160      1.0  0.41100  0.73100  0.43150  1.0000 0.1204693472
H   H161      1.0  0.51300  0.88260  0.96220  1.0000 0.1204693472
H   H162      1.0  0.48700  0.38260  0.53780  1.0000 0.1204693472
H   H163      1.0  0.48700  0.11740  0.03780  1.0000 0.1204693472
H   H164      1.0  0.51300  0.61740  0.46220  1.0000 0.1204693472
H   H165      1.0  0.68730  0.87740  0.02230  1.0000 0.1204693472
H   H166      1.0  0.31270  0.37740  0.47770  1.0000 0.1204693472
H   H167      1.0  0.31270  0.12260  0.97770  1.0000 0.1204693472
H   H168      1.0  0.68730  0.62260  0.52230  1.0000 0.1204693472
C   C1        1.0  0.13770  0.70020  0.25292  1.0000 0.5766412213
C   C2        1.0  0.86230  0.20020  0.24708  1.0000 0.5766412213
C   C3        1.0  0.86230  0.29980  0.74708  1.0000 0.5766412213
C   C4        1.0  0.13770  0.79980  0.75292  1.0000 0.5766412213
C   C5        1.0  0.03970  0.70870  0.21145  1.0000 -0.0529304202
C   C6        1.0  0.96030  0.20870  0.28855  1.0000 -0.0529304202
C   C7        1.0  0.96030  0.29130  0.78855  1.0000 -0.0529304202
C   C8        1.0  0.03970  0.79130  0.71145  1.0000 -0.0529304202
C   C9        1.0  0.90960  0.66220  0.19900  1.0000 -0.0904609678
C   C10       1.0  0.09040  0.16220  0.30100  1.0000 -0.0904609678
C   C11       1.0  0.09040  0.33780  0.80100  1.0000 -0.0904609678
C   C12       1.0  0.90960  0.83780  0.69900  1.0000 -0.0904609678
C   C13       1.0  0.82160  0.66780  0.16055  1.0000 -0.2303197451
C   C14       1.0  0.17840  0.16780  0.33945  1.0000 -0.2303197451
C   C15       1.0  0.17840  0.33220  0.83945  1.0000 -0.2303197451
C   C16       1.0  0.82160  0.83220  0.66055  1.0000 -0.2303197451
C   C17       1.0  0.86160  0.72080  0.13425  1.0000 0.2427281037
C   C18       1.0  0.13840  0.22080  0.36575  1.0000 0.2427281037
C   C19       1.0  0.13840  0.27920  0.86575  1.0000 0.2427281037
C   C20       1.0  0.86160  0.77920  0.63425  1.0000 0.2427281037
C   C21       1.0  0.98930  0.76780  0.14635  1.0000 -0.237300412
C   C22       1.0  0.01070  0.26780  0.35365  1.0000 -0.237300412
C   C23       1.0  0.01070  0.23220  0.85365  1.0000 -0.237300412
C   C24       1.0  0.98930  0.73220  0.64635  1.0000 -0.237300412
C   C25       1.0  0.07690  0.76090  0.18473  1.0000 -0.0904609678
C   C26       1.0  0.92310  0.26090  0.31527  1.0000 -0.0904609678
C   C27       1.0  0.92310  0.23910  0.81527  1.0000 -0.0904609678
C   C28       1.0  0.07690  0.73910  0.68473  1.0000 -0.0904609678
C   C29       1.0  0.82070  0.76190  0.06593  1.0000 -0.0812246345
C   C30       1.0  0.17930  0.26190  0.43407  1.0000 -0.0812246345
C   C31       1.0  0.17930  0.23810  0.93407  1.0000 -0.0812246345
C   C32       1.0  0.82070  0.73810  0.56593  1.0000 -0.0812246345
C   C33       1.0  0.60580  0.26420  0.89100  1.0000 -0.0812246345
C   C34       1.0  0.39420  0.76420  0.60900  1.0000 -0.0812246345
C   C35       1.0  0.39420  0.73580  0.10900  1.0000 -0.0812246345
C   C36       1.0  0.60580  0.23580  0.39100  1.0000 -0.0812246345
C   C37       1.0  0.60380  0.12770  0.88280  1.0000 0.2538906976
C   C38       1.0  0.39620  0.62770  0.61720  1.0000 0.2538906976
C   C39       1.0  0.39620  0.87230  0.11720  1.0000 0.2538906976
C   C40       1.0  0.60380  0.37230  0.38280  1.0000 0.2538906976
C   C41       1.0  0.46230  0.12040  0.89300  1.0000 -0.237300412
C   C42       1.0  0.53770  0.62040  0.60700  1.0000 -0.237300412
C   C43       1.0  0.53770  0.87960  0.10700  1.0000 -0.237300412
C   C44       1.0  0.46230  0.37960  0.39300  1.0000 -0.237300412
C   C45       1.0  0.38400  0.05180  0.88650  1.0000 -0.0997913687
C   C46       1.0  0.61600  0.55180  0.61350  1.0000 -0.0997913687
C   C47       1.0  0.61600  0.94820  0.11350  1.0000 -0.0997913687
C   C48       1.0  0.38400  0.44820  0.38650  1.0000 -0.0997913687
C   C49       1.0  0.44300  0.98850  0.87017  1.0000 -0.0529304202
C   C50       1.0  0.55700  0.48850  0.62983  1.0000 -0.0529304202
C   C51       1.0  0.55700  0.01150  0.12983  1.0000 -0.0529304202
C   C52       1.0  0.44300  0.51150  0.37017  1.0000 -0.0529304202
C   C53       1.0  0.58890  0.99440  0.86130  1.0000 -0.0812246345
C   C54       1.0  0.41110  0.49440  0.63870  1.0000 -0.0812246345
C   C55       1.0  0.41110  0.00560  0.13870  1.0000 -0.0812246345
C   C56       1.0  0.58890  0.50560  0.36130  1.0000 -0.0812246345
C   C57       1.0  0.66940  0.06360  0.86790  1.0000 -0.2204250847
C   C58       1.0  0.33060  0.56360  0.63210  1.0000 -0.2204250847
C   C59       1.0  0.33060  0.93640  0.13210  1.0000 -0.2204250847
C   C60       1.0  0.66940  0.43640  0.36790  1.0000 -0.2204250847
C   C61       1.0  0.34430  0.91910  0.85882  1.0000 0.5545228168
C   C62       1.0  0.65570  0.41910  0.64118  1.0000 0.5545228168
C   C63       1.0  0.65570  0.08090  0.14118  1.0000 0.5545228168
C   C64       1.0  0.34430  0.58090  0.35882  1.0000 0.5545228168
C   C65       1.0  0.83190  0.43060  0.22620  1.0000 -0.1482194607
C   C66       1.0  0.16810  0.93060  0.27380  1.0000 -0.1482194607
C   C67       1.0  0.16810  0.56940  0.77380  1.0000 -0.1482194607
C   C68       1.0  0.83190  0.06940  0.72620  1.0000 -0.1482194607
C   C69       1.0  0.82920  0.47990  0.25741  1.0000 0.1469536394
C   C70       1.0  0.17080  0.97990  0.24259  1.0000 0.1469536394
C   C71       1.0  0.17080  0.52010  0.74259  1.0000 0.1469536394
C   C72       1.0  0.82920  0.02010  0.75741  1.0000 0.1469536394
C   C73       1.0  0.95840  0.48860  0.28758  1.0000 -0.1482194607
C   C74       1.0  0.04160  0.98860  0.21242  1.0000 -0.1482194607
C   C75       1.0  0.04160  0.51140  0.71242  1.0000 -0.1482194607
C   C76       1.0  0.95840  0.01140  0.78758  1.0000 -0.1482194607
C   C77       1.0  0.54050  0.49720  0.24710  1.0000 -0.1093775549
C   C78       1.0  0.45950  0.99720  0.25290  1.0000 -0.1093775549
C   C79       1.0  0.45950  0.50280  0.75290  1.0000 -0.1093775549
C   C80       1.0  0.54050  0.00280  0.74710  1.0000 -0.1093775549
C   C81       1.0  0.45100  0.55440  0.25610  1.0000 -0.0405717475
C   C82       1.0  0.54900  0.05440  0.24390  1.0000 -0.0405717475
C   C83       1.0  0.54900  0.44560  0.74390  1.0000 -0.0405717475
C   C84       1.0  0.45100  0.94560  0.75610  1.0000 -0.0405717475
C   C85       1.0  0.68480  0.59340  0.27430  1.0000 0.1101674652
C   C86       1.0  0.31520  0.09340  0.22570  1.0000 0.1101674652
C   C87       1.0  0.31520  0.40660  0.72570  1.0000 0.1101674652
C   C88       1.0  0.68480  0.90660  0.77430  1.0000 0.1101674652
C   C89       1.0  0.96540  0.38950  0.22470  1.0000 -0.1595830534
C   C90       1.0  0.03460  0.88950  0.27530  1.0000 -0.1595830534
C   C91       1.0  0.03460  0.61050  0.77530  1.0000 -0.1595830534
C   C92       1.0  0.96540  0.11050  0.72470  1.0000 -0.1595830534
C   C93       1.0  0.09410  0.39920  0.25430  1.0000 0.1469536394
C   C94       1.0  0.90590  0.89920  0.24570  1.0000 0.1469536394
C   C95       1.0  0.90590  0.60080  0.74570  1.0000 0.1469536394
C   C96       1.0  0.09410  0.10080  0.75430  1.0000 0.1469536394
C   C97       1.0  0.09060  0.44910  0.28563  1.0000 -0.1595830534
C   C98       1.0  0.90940  0.94910  0.21437  1.0000 -0.1595830534
C   C99       1.0  0.90940  0.55090  0.71437  1.0000 -0.1595830534
C   C100      1.0  0.09060  0.05090  0.78563  1.0000 -0.1595830534
C   C101      1.0  0.27700  0.32570  0.22174  1.0000 0.1101674652
C   C102      1.0  0.72300  0.82570  0.27826  1.0000 0.1101674652
C   C103      1.0  0.72300  0.67430  0.77826  1.0000 0.1101674652
C   C104      1.0  0.27700  0.17430  0.72174  1.0000 0.1101674652
C   C105      1.0  0.34430  0.33590  0.28610  1.0000 -0.1093775549
C   C106      1.0  0.65570  0.83590  0.21390  1.0000 -0.1093775549
C   C107      1.0  0.65570  0.66410  0.71390  1.0000 -0.1093775549
C   C108      1.0  0.34430  0.16410  0.78610  1.0000 -0.1093775549
C   C109      1.0  0.45180  0.29490  0.27260  1.0000 -0.0405717475
C   C110      1.0  0.54820  0.79490  0.22740  1.0000 -0.0405717475
C   C111      1.0  0.54820  0.70510  0.72740  1.0000 -0.0405717475
C   C112      1.0  0.45180  0.20510  0.77260  1.0000 -0.0405717475
C   C113      1.0  0.17680  0.20780  0.13862  1.0000 0.5766412213
C   C114      1.0  0.82320  0.70780  0.36138  1.0000 0.5766412213
C   C115      1.0  0.82320  0.79220  0.86138  1.0000 0.5766412213
C   C116      1.0  0.17680  0.29220  0.63862  1.0000 0.5766412213
C   C117      1.0  0.10890  0.24570  0.09928  1.0000 -0.0529304202
C   C118      1.0  0.89110  0.74570  0.40072  1.0000 -0.0529304202
C   C119      1.0  0.89110  0.75430  0.90072  1.0000 -0.0529304202
C   C120      1.0  0.10890  0.25430  0.59928  1.0000 -0.0529304202
C   C121      1.0  0.97630  0.21850  0.07455  1.0000 -0.0904609678
C   C122      1.0  0.02370  0.71850  0.42545  1.0000 -0.0904609678
C   C123      1.0  0.02370  0.78150  0.92545  1.0000 -0.0904609678
C   C124      1.0  0.97630  0.28150  0.57455  1.0000 -0.0904609678
C   C125      1.0  0.91500  0.25270  0.03814  1.0000 -0.2303197451
C   C126      1.0  0.08500  0.75270  0.46186  1.0000 -0.2303197451
C   C127      1.0  0.08500  0.74730  0.96186  1.0000 -0.2303197451
C   C128      1.0  0.91500  0.24730  0.53814  1.0000 -0.2303197451
C   C129      1.0  0.98660  0.31620  0.02660  1.0000 0.2427281037
C   C130      1.0  0.01340  0.81620  0.47340  1.0000 0.2427281037
C   C131      1.0  0.01340  0.68380  0.97340  1.0000 0.2427281037
C   C132      1.0  0.98660  0.18380  0.52660  1.0000 0.2427281037
C   C133      1.0  0.11520  0.34750  0.05180  1.0000 -0.2204250847
C   C134      1.0  0.88480  0.84750  0.44820  1.0000 -0.2204250847
C   C135      1.0  0.88480  0.65250  0.94820  1.0000 -0.2204250847
C   C136      1.0  0.11520  0.15250  0.55180  1.0000 -0.2204250847
C   C137      1.0  0.17830  0.31070  0.08710  1.0000 -0.0904609678
C   C138      1.0  0.82170  0.81070  0.41290  1.0000 -0.0904609678
C   C139      1.0  0.82170  0.68930  0.91290  1.0000 -0.0904609678
C   C140      1.0  0.17830  0.18930  0.58710  1.0000 -0.0904609678
C   C141      1.0  0.81490  0.32210  0.96235  1.0000 -0.0812246345
C   C142      1.0  0.18510  0.82210  0.53765  1.0000 -0.0812246345
C   C143      1.0  0.18510  0.67790  0.03765  1.0000 -0.0812246345
C   C144      1.0  0.81490  0.17790  0.46235  1.0000 -0.0812246345
C   C145      1.0  0.80680  0.36190  0.92296  1.0000 0.0426592387
C   C146      1.0  0.19320  0.86190  0.57704  1.0000 0.0426592387
C   C147      1.0  0.19320  0.63810  0.07704  1.0000 0.0426592387
C   C148      1.0  0.80680  0.13810  0.42296  1.0000 0.0426592387
C   C149      1.0  0.70810  0.33250  0.88846  1.0000 0.0426592387
C   C150      1.0  0.29190  0.83250  0.61154  1.0000 0.0426592387
C   C151      1.0  0.29190  0.66750  0.11154  1.0000 0.0426592387
C   C152      1.0  0.70810  0.16750  0.38846  1.0000 0.0426592387
C   C153      1.0  0.70250  0.36880  0.85200  1.0000 -0.1482194607
C   C154      1.0  0.29750  0.86880  0.64800  1.0000 -0.1482194607
C   C155      1.0  0.29750  0.63120  0.14800  1.0000 -0.1435677454
C   C156      1.0  0.70250  0.13120  0.35200  1.0000 -0.1482194607
C   C157      1.0  0.78880  0.43320  0.84930  1.0000 -0.0904609678
C   C158      1.0  0.21120  0.93320  0.65070  1.0000 -0.0904609678
C   C159      1.0  0.21120  0.56680  0.15070  1.0000 -0.0904609678
C   C160      1.0  0.78880  0.06680  0.34930  1.0000 -0.0904609678
C   C161      1.0  0.88500  0.46330  0.88270  1.0000 -0.0997913687
C   C162      1.0  0.11500  0.96330  0.61730  1.0000 -0.0997913687
C   C163      1.0  0.11500  0.53670  0.11730  1.0000 -0.0997913687
C   C164      1.0  0.88500  0.03670  0.38270  1.0000 -0.0997913687
C   C165      1.0  0.89230  0.42740  0.91920  1.0000 -0.1482194607
C   C166      1.0  0.10770  0.92740  0.58080  1.0000 -0.1482194607
C   C167      1.0  0.10770  0.57260  0.08080  1.0000 -0.1482194607
C   C168      1.0  0.89230  0.07260  0.41920  1.0000 -0.1482194607
C   C169      1.0  0.68110  0.31960  0.14465  1.0000 0.5719430938
C   C170      1.0  0.31890  0.81960  0.35535  1.0000 0.5719430938
C   C171      1.0  0.31890  0.68040  0.85535  1.0000 0.5719430938
C   C172      1.0  0.68110  0.18040  0.64465  1.0000 0.5719430938
C   C173      1.0  0.65890  0.39130  0.11959  1.0000 -0.0620392479
C   C174      1.0  0.34110  0.89130  0.38041  1.0000 -0.0620392479
C   C175      1.0  0.34110  0.60870  0.88041  1.0000 -0.0620392479
C   C176      1.0  0.65890  0.10870  0.61959  1.0000 -0.0620392479
C   C177      1.0  0.53400  0.44030  0.11999  1.0000 -0.0904609678
C   C178      1.0  0.46600  0.94030  0.38001  1.0000 -0.0904609678
C   C179      1.0  0.46600  0.55970  0.88001  1.0000 -0.0904609678
C   C180      1.0  0.53400  0.05970  0.61999  1.0000 -0.0904609678
C   C181      1.0  0.50800  0.50340  0.09590  1.0000 -0.2204250847
C   C182      1.0  0.49200  0.00340  0.40410  1.0000 -0.2204250847
C   C183      1.0  0.49200  0.49660  0.90410  1.0000 -0.2204250847
C   C184      1.0  0.50800  0.99660  0.59590  1.0000 -0.2204250847
C   C185      1.0  0.60740  0.52180  0.07091  1.0000 0.2538906976
C   C186      1.0  0.39260  0.02180  0.42909  1.0000 0.2538906976
C   C187      1.0  0.39260  0.47820  0.92909  1.0000 0.2538906976
C   C188      1.0  0.60740  0.97820  0.57091  1.0000 0.2538906976
C   C189      1.0  0.72980  0.47470  0.06958  1.0000 -0.2512165264
C   C190      1.0  0.27020  0.97470  0.43042  1.0000 -0.2512165264
C   C191      1.0  0.27020  0.52530  0.93042  1.0000 -0.2512165264
C   C192      1.0  0.72980  0.02530  0.56958  1.0000 -0.2512165264
C   C193      1.0  0.75580  0.40920  0.09404  1.0000 -0.0904609678
C   C194      1.0  0.24420  0.90920  0.40596  1.0000 -0.0904609678
C   C195      1.0  0.24420  0.59080  0.90596  1.0000 -0.0904609678
C   C196      1.0  0.75580  0.09080  0.59404  1.0000 -0.0904609678
C   C197      1.0  0.68030  0.61490  0.02610  1.0000 -0.0697706372
C   C198      1.0  0.31970  0.11490  0.47390  1.0000 -0.0697706372
C   C199      1.0  0.31970  0.38510  0.97390  1.0000 -0.0697706372
C   C200      1.0  0.68030  0.88510  0.52610  1.0000 -0.0697706372
C   C201      1.0  0.63250  0.69310  0.00958  1.0000 0.0482984155
C   C202      1.0  0.36750  0.19310  0.49042  1.0000 0.0482984155
C   C203      1.0  0.36750  0.30690  0.99042  1.0000 0.0482984155
C   C204      1.0  0.63250  0.80690  0.50958  1.0000 0.0482984155
C   C205      1.0  0.52540  0.69880  0.97410  1.0000 -0.1435677454
C   C206      1.0  0.47460  0.19880  0.52590  1.0000 -0.1435677454
C   C207      1.0  0.47460  0.30120  0.02590  1.0000 -0.1435677454
C   C208      1.0  0.52540  0.80120  0.47410  1.0000 -0.1435677454
C   C209      1.0  0.48140  0.76760  0.95590  1.0000 -0.0904609678
C   C210      1.0  0.51860  0.26760  0.54410  1.0000 -0.0904609678
C   C211      1.0  0.51860  0.23240  0.04410  1.0000 -0.0904609678
C   C212      1.0  0.48140  0.73240  0.45590  1.0000 -0.0904609678
C   C213      1.0  0.54250  0.83500  0.97410  1.0000 -0.0904609678
C   C214      1.0  0.45750  0.33500  0.52590  1.0000 -0.0904609678
C   C215      1.0  0.45750  0.16500  0.02590  1.0000 -0.0904609678
C   C216      1.0  0.54250  0.66500  0.47410  1.0000 -0.0904609678
C   C217      1.0  0.64760  0.83160  0.01000  1.0000 -0.1595830534
C   C218      1.0  0.35240  0.33160  0.49000  1.0000 -0.1653194681
C   C219      1.0  0.35240  0.16840  0.99000  1.0000 -0.1595830534
C   C220      1.0  0.64760  0.66840  0.51000  1.0000 -0.1595830534
C   C221      1.0  0.69570  0.76130  0.02817  1.0000 0.0426592387
C   C222      1.0  0.30430  0.26130  0.47183  1.0000 0.0426592387
C   C223      1.0  0.30430  0.23870  0.97183  1.0000 0.0426592387
C   C224      1.0  0.69570  0.73870  0.52817  1.0000 0.0426592387
N   N1        1.0  0.40810  0.28800  0.23173  1.0000 -0.2977836386
N   N2        1.0  0.59190  0.78800  0.26827  1.0000 -0.2977836386
N   N3        1.0  0.59190  0.71200  0.76827  1.0000 -0.2977836386
N   N4        1.0  0.40810  0.21200  0.73173  1.0000 -0.2977836386
N   N5        1.0  0.23230  0.35610  0.25336  1.0000 0.0029693129
N   N6        1.0  0.76770  0.85610  0.24664  1.0000 0.0029693129
N   N7        1.0  0.76770  0.64390  0.74664  1.0000 0.0029693129
N   N8        1.0  0.23230  0.14390  0.75336  1.0000 0.0029693129
N   N9        1.0  0.54240  0.61500  0.27334  1.0000 -0.3082414225
N   N10       1.0  0.45760  0.11500  0.22666  1.0000 -0.3082414225
N   N11       1.0  0.45760  0.38500  0.72666  1.0000 -0.3082414225
N   N12       1.0  0.54240  0.88500  0.77334  1.0000 -0.3082414225
N   N13       1.0  0.69090  0.52210  0.25903  1.0000 0.0029693129
N   N14       1.0  0.30910  0.02210  0.24097  1.0000 0.0029693129
N   N15       1.0  0.30910  0.47790  0.74097  1.0000 0.0029693129
N   N16       1.0  0.69090  0.97790  0.75903  1.0000 0.0029693129
O   O1        1.0  0.08910  0.17200  0.15725  1.0000 -0.573351863
O   O2        1.0  0.91090  0.67200  0.34275  1.0000 -0.573351863
O   O3        1.0  0.91090  0.82800  0.84275  1.0000 -0.573351863
O   O4        1.0  0.08910  0.32800  0.65725  1.0000 -0.573351863
O   O5        1.0  0.79910  0.27870  0.14202  1.0000 -0.5909472361
O   O6        1.0  0.20090  0.77870  0.35798  1.0000 -0.5909472361
O   O7        1.0  0.20090  0.72130  0.85798  1.0000 -0.5909472361
O   O8        1.0  0.79910  0.22130  0.64202  1.0000 -0.5909472361
O   O9        1.0  0.58720  0.30660  0.16598  1.0000 -0.5397181963
O   O10       1.0  0.41280  0.80660  0.33402  1.0000 -0.5397181963
O   O11       1.0  0.41280  0.69340  0.83402  1.0000 -0.5397181963
O   O12       1.0  0.58720  0.19340  0.66598  1.0000 -0.5397181963
O   O13       1.0  0.57170  0.58790  0.04887  1.0000 -0.18792108
O   O14       1.0  0.42830  0.08790  0.45113  1.0000 -0.18792108
O   O15       1.0  0.42830  0.41210  0.95113  1.0000 -0.18792108
O   O16       1.0  0.57170  0.91210  0.54887  1.0000 -0.18792108
O   O17       1.0  0.07130  0.67160  0.27888  1.0000 -0.573351863
O   O18       1.0  0.92870  0.17160  0.22112  1.0000 -0.573351863
O   O19       1.0  0.92870  0.32840  0.72112  1.0000 -0.573351863
O   O20       1.0  0.07130  0.82840  0.77888  1.0000 -0.573351863
O   O21       1.0  0.27500  0.72180  0.25880  1.0000 -0.560009028
O   O22       1.0  0.72500  0.22180  0.24120  1.0000 -0.560009028
O   O23       1.0  0.72500  0.27820  0.74120  1.0000 -0.560009028
O   O24       1.0  0.27500  0.77820  0.75880  1.0000 -0.560009028
O   O25       1.0  0.76480  0.72310  0.09701  1.0000 -0.2084343985
O   O26       1.0  0.23520  0.22310  0.40299  1.0000 -0.2084343985
O   O27       1.0  0.23520  0.27690  0.90299  1.0000 -0.2084343985
O   O28       1.0  0.76480  0.77690  0.59701  1.0000 -0.2084343985
O   O29       1.0  0.21250  0.91750  0.86806  1.0000 -0.5491855696
O   O30       1.0  0.78750  0.41750  0.63194  1.0000 -0.5491855696
O   O31       1.0  0.78750  0.08250  0.13194  1.0000 -0.5491855696
O   O32       1.0  0.21250  0.58250  0.36806  1.0000 -0.5491855696
O   O33       1.0  0.38390  0.86410  0.84010  1.0000 -0.5397181963
O   O34       1.0  0.61610  0.36410  0.65990  1.0000 -0.5397181963
O   O35       1.0  0.61610  0.13590  0.15990  1.0000 -0.5397181963
O   O36       1.0  0.38390  0.63590  0.34010  1.0000 -0.5397181963
O   O37       1.0  0.68750  0.19480  0.88619  1.0000 -0.1829984293
O   O38       1.0  0.31250  0.69480  0.61381  1.0000 -0.1829984293
O   O39       1.0  0.31250  0.80520  0.11381  1.0000 -0.1829984293
O   O40       1.0  0.68750  0.30520  0.38619  1.0000 -0.1829984293
O   O41       1.0  0.31880  0.21520  0.15140  1.0000 -0.5397181963
O   O42       1.0  0.68120  0.71520  0.34860  1.0000 -0.5397181963
O   O43       1.0  0.68120  0.78480  0.84860  1.0000 -0.5397181963
O   O44       1.0  0.31880  0.28480  0.65140  1.0000 -0.5397181963
O   O45       1.0  0.94040  0.35480  0.99081  1.0000 -0.1985042945
O   O46       1.0  0.05960  0.85480  0.50919  1.0000 -0.1985042945
O   O47       1.0  0.05960  0.64520  0.00919  1.0000 -0.1985042945
O   O48       1.0  0.94040  0.14520  0.49081  1.0000 -0.1985042945
