# DDEC6 charges by PACMAN v1.1 (https://github.com/mtap-research/PACMAN-charge/)
data_2013[Cu][hms]3[ASR]1
_chemical_formula_sum              "Cu8 H48 C140 N8 O32 F64"
_cell_length_a       23.065
_cell_length_b       19.498
_cell_length_c       9.529
_cell_angle_alpha    90
_cell_angle_beta     94.91
_cell_angle_gamma    90

_symmetry_space_group_name_H-M    "P 1"
_symmetry_Int_Tables_number       1

loop_
  _symmetry_equiv_pos_as_xyz
  'x, y, z'

loop_
  _atom_site_type_symbol
  _atom_site_label
  _atom_site_symmetry_multiplicity
  _atom_site_fract_x
  _atom_site_fract_y
  _atom_site_fract_z
  _atom_site_occupancy
  _atom_site_charge
Cu  Cu1       1.0  0.48983  0.20741  0.59323  1.0000 0.5858727705
Cu  Cu2       1.0  0.51017  0.79259  0.40677  1.0000 0.5858727705
Cu  Cu3       1.0  0.51017  0.20741  0.90677  1.0000 0.5858727705
Cu  Cu4       1.0  0.48983  0.79259  0.09323  1.0000 0.5858727705
Cu  Cu5       1.0  0.98983  0.70741  0.59323  1.0000 0.5858727705
Cu  Cu6       1.0  0.01017  0.29259  0.40677  1.0000 0.5858727705
Cu  Cu7       1.0  0.01017  0.70741  0.90677  1.0000 0.5858727705
Cu  Cu8       1.0  0.98983  0.29259  0.09323  1.0000 0.5858727705
H   H1        1.0  0.59299  0.19363  0.14662  1.0000 0.1084859383
H   H2        1.0  0.40701  0.80637  0.85338  1.0000 0.1084859383
H   H3        1.0  0.40701  0.19363  0.35338  1.0000 0.1084859383
H   H4        1.0  0.59299  0.80637  0.64662  1.0000 0.1084859383
H   H5        1.0  0.09299  0.69363  0.14662  1.0000 0.1084859383
H   H6        1.0  0.90701  0.30637  0.85338  1.0000 0.1084859383
H   H7        1.0  0.90701  0.69363  0.35338  1.0000 0.1084859383
H   H8        1.0  0.09299  0.30637  0.64662  1.0000 0.1084859383
H   H9        1.0  0.54198  0.12599  0.16404  1.0000 0.0950437647
H   H10       1.0  0.45802  0.87401  0.83596  1.0000 0.0950437647
H   H11       1.0  0.45802  0.12599  0.33596  1.0000 0.0950437647
H   H12       1.0  0.54198  0.87401  0.66404  1.0000 0.0950437647
H   H13       1.0  0.04198  0.62599  0.16404  1.0000 0.0950437647
H   H14       1.0  0.95802  0.37401  0.83596  1.0000 0.0950437647
H   H15       1.0  0.95802  0.62599  0.33596  1.0000 0.0950437647
H   H16       1.0  0.04198  0.37401  0.66404  1.0000 0.0950437647
H   H17       1.0  0.43737  0.14604  0.09044  1.0000 0.0950437647
H   H18       1.0  0.56263  0.85396  0.90956  1.0000 0.0950437647
H   H19       1.0  0.56263  0.14604  0.40956  1.0000 0.0950437647
H   H20       1.0  0.43737  0.85396  0.59044  1.0000 0.0950437647
H   H21       1.0  0.93737  0.64604  0.09044  1.0000 0.0950437647
H   H22       1.0  0.06263  0.35396  0.90956  1.0000 0.0950437647
H   H23       1.0  0.06263  0.64604  0.40956  1.0000 0.0950437647
H   H24       1.0  0.93737  0.35396  0.59044  1.0000 0.0950437647
H   H25       1.0  0.41246  0.23136  0.11510  1.0000 0.0950437647
H   H26       1.0  0.58754  0.76864  0.88490  1.0000 0.0950437647
H   H27       1.0  0.58754  0.23136  0.38490  1.0000 0.0950437647
H   H28       1.0  0.41246  0.76864  0.61510  1.0000 0.0950437647
H   H29       1.0  0.91246  0.73136  0.11510  1.0000 0.0950437647
H   H30       1.0  0.08754  0.26864  0.88490  1.0000 0.0950437647
H   H31       1.0  0.08754  0.73136  0.38490  1.0000 0.0950437647
H   H32       1.0  0.91246  0.26864  0.61510  1.0000 0.0950437647
H   H33       1.0  0.47863  0.32720  0.10591  1.0000 0.0940084991
H   H34       1.0  0.52137  0.67280  0.89409  1.0000 0.0940084991
H   H35       1.0  0.52137  0.32720  0.39409  1.0000 0.0940084991
H   H36       1.0  0.47863  0.67280  0.60591  1.0000 0.0940084991
H   H37       1.0  0.97863  0.82720  0.10591  1.0000 0.0940084991
H   H38       1.0  0.02137  0.17280  0.89409  1.0000 0.0940084991
H   H39       1.0  0.02137  0.82720  0.39409  1.0000 0.0940084991
H   H40       1.0  0.97863  0.17280  0.60591  1.0000 0.0940084991
H   H41       1.0  0.55285  0.31199  0.16457  1.0000 0.1084859383
H   H42       1.0  0.44715  0.68801  0.83543  1.0000 0.1084859383
H   H43       1.0  0.44715  0.31199  0.33543  1.0000 0.1084859383
H   H44       1.0  0.55285  0.68801  0.66457  1.0000 0.1084859383
H   H45       1.0  0.05285  0.81199  0.16457  1.0000 0.1084859383
H   H46       1.0  0.94715  0.18801  0.83543  1.0000 0.1084859383
H   H47       1.0  0.94715  0.81199  0.33543  1.0000 0.1084859383
H   H48       1.0  0.05285  0.18801  0.66457  1.0000 0.1084859383
C   C1        1.0  0.58255  0.32622  0.82549  1.0000 0.5609493789
C   C2        1.0  0.41745  0.67378  0.17451  1.0000 0.5609493789
C   C3        1.0  0.41745  0.32622  0.67451  1.0000 0.5609493789
C   C4        1.0  0.58255  0.67378  0.32549  1.0000 0.5609493789
C   C5        1.0  0.08255  0.82622  0.82549  1.0000 0.5609493789
C   C6        1.0  0.91745  0.17378  0.17451  1.0000 0.5609493789
C   C7        1.0  0.91745  0.82622  0.67451  1.0000 0.5609493789
C   C8        1.0  0.08255  0.17378  0.32549  1.0000 0.5609493789
C   C9        1.0  0.91642  0.62974  0.74328  1.0000 0.6256095033
C   C10       1.0  0.08358  0.37026  0.25672  1.0000 0.6256095033
C   C11       1.0  0.08358  0.62974  0.75672  1.0000 0.6256095033
C   C12       1.0  0.91642  0.37026  0.24328  1.0000 0.6256095033
C   C13       1.0  0.41642  0.12974  0.74328  1.0000 0.6256095033
C   C14       1.0  0.58358  0.87026  0.25672  1.0000 0.6256095033
C   C15       1.0  0.58358  0.12974  0.75672  1.0000 0.6256095033
C   C16       1.0  0.41642  0.87026  0.24328  1.0000 0.6256095033
C   C17       1.0  0.63302  0.36279  0.78362  1.0000 -0.2279772449
C   C18       1.0  0.36698  0.63721  0.21638  1.0000 -0.2279772449
C   C19       1.0  0.36698  0.36279  0.71638  1.0000 -0.2279772449
C   C20       1.0  0.63302  0.63721  0.28362  1.0000 -0.2279772449
C   C21       1.0  0.13302  0.86279  0.78362  1.0000 -0.2279772449
C   C22       1.0  0.86698  0.13721  0.21638  1.0000 -0.2279772449
C   C23       1.0  0.86698  0.86279  0.71638  1.0000 -0.2279772449
C   C24       1.0  0.13302  0.13721  0.28362  1.0000 -0.2279772449
C   C25       1.0  0.62509  0.42107  0.69867  1.0000 0.1638261734
C   C26       1.0  0.37491  0.57893  0.30133  1.0000 0.1638261734
C   C27       1.0  0.37491  0.42107  0.80133  1.0000 0.1638261734
C   C28       1.0  0.62509  0.57893  0.19867  1.0000 0.1638261734
C   C29       1.0  0.12509  0.92107  0.69867  1.0000 0.1638261734
C   C30       1.0  0.87491  0.07893  0.30133  1.0000 0.1638261734
C   C31       1.0  0.87491  0.92107  0.80133  1.0000 0.1638261734
C   C32       1.0  0.12509  0.07893  0.19867  1.0000 0.1638261734
C   C33       1.0  0.67158  0.46540  0.69178  1.0000 0.1282375318
C   C34       1.0  0.32842  0.53460  0.30822  1.0000 0.1282375318
C   C35       1.0  0.32842  0.46540  0.80822  1.0000 0.1282375318
C   C36       1.0  0.67158  0.53460  0.19178  1.0000 0.1282375318
C   C37       1.0  0.17158  0.96540  0.69178  1.0000 0.1282375318
C   C38       1.0  0.82842  0.03460  0.30822  1.0000 0.1282375318
C   C39       1.0  0.82842  0.96540  0.80822  1.0000 0.1282375318
C   C40       1.0  0.17158  0.03460  0.19178  1.0000 0.1282375318
C   C41       1.0  0.72566  0.44857  0.75994  1.0000 -0.0709940928
C   C42       1.0  0.27434  0.55143  0.24006  1.0000 -0.0709940928
C   C43       1.0  0.27434  0.44857  0.74006  1.0000 -0.0709940928
C   C44       1.0  0.72566  0.55143  0.25994  1.0000 -0.0709940928
C   C45       1.0  0.22566  0.94857  0.75994  1.0000 -0.0709940928
C   C46       1.0  0.77434  0.05143  0.24006  1.0000 -0.0709940928
C   C47       1.0  0.77434  0.94857  0.74006  1.0000 -0.0709940928
C   C48       1.0  0.22566  0.05143  0.25994  1.0000 -0.0709940928
C   C49       1.0  0.73404  0.38736  0.83548  1.0000 0.1246311974
C   C50       1.0  0.26596  0.61264  0.16452  1.0000 0.1246311974
C   C51       1.0  0.26596  0.38736  0.66452  1.0000 0.1246311974
C   C52       1.0  0.73404  0.61264  0.33548  1.0000 0.1246311974
C   C53       1.0  0.23404  0.88736  0.83548  1.0000 0.1246311974
C   C54       1.0  0.76596  0.11264  0.16452  1.0000 0.1246311974
C   C55       1.0  0.76596  0.88736  0.66452  1.0000 0.1246311974
C   C56       1.0  0.23404  0.11264  0.33548  1.0000 0.1246311974
C   C57       1.0  0.68733  0.34433  0.84874  1.0000 0.1638261734
C   C58       1.0  0.31267  0.65567  0.15126  1.0000 0.1638261734
C   C59       1.0  0.31267  0.34433  0.65126  1.0000 0.1638261734
C   C60       1.0  0.68733  0.65567  0.34874  1.0000 0.1638261734
C   C61       1.0  0.18733  0.84433  0.84874  1.0000 0.1638261734
C   C62       1.0  0.81267  0.15567  0.15126  1.0000 0.1638261734
C   C63       1.0  0.81267  0.84433  0.65126  1.0000 0.1638261734
C   C64       1.0  0.18733  0.15567  0.34874  1.0000 0.1638261734
C   C65       1.0  0.86681  0.58228  0.75021  1.0000 -0.21808534
C   C66       1.0  0.13319  0.41772  0.24979  1.0000 -0.21808534
C   C67       1.0  0.13319  0.58228  0.74979  1.0000 -0.21808534
C   C68       1.0  0.86681  0.41772  0.25021  1.0000 -0.21808534
C   C69       1.0  0.36681  0.08228  0.75021  1.0000 -0.21808534
C   C70       1.0  0.63319  0.91772  0.24979  1.0000 -0.21808534
C   C71       1.0  0.63319  0.08228  0.74979  1.0000 -0.21808534
C   C72       1.0  0.36681  0.91772  0.25021  1.0000 -0.21808534
C   C73       1.0  0.87039  0.51789  0.68980  1.0000 0.1543629218
C   C74       1.0  0.12961  0.48211  0.31020  1.0000 0.1543629218
C   C75       1.0  0.12961  0.51789  0.81020  1.0000 0.1543629218
C   C76       1.0  0.87039  0.48211  0.18980  1.0000 0.1543629218
C   C77       1.0  0.37039  0.01789  0.68980  1.0000 0.1543629218
C   C78       1.0  0.62961  0.98211  0.31020  1.0000 0.1543629218
C   C79       1.0  0.62961  0.01789  0.81020  1.0000 0.1543629218
C   C80       1.0  0.37039  0.98211  0.18980  1.0000 0.1543629218
C   C81       1.0  0.82349  0.47418  0.69206  1.0000 0.1084859383
C   C82       1.0  0.17651  0.52582  0.30794  1.0000 0.1084859383
C   C83       1.0  0.17651  0.47418  0.80794  1.0000 0.1084859383
C   C84       1.0  0.82349  0.52582  0.19206  1.0000 0.1084859383
C   C85       1.0  0.32349  0.97418  0.69206  1.0000 0.1084859383
C   C86       1.0  0.67651  0.02582  0.30794  1.0000 0.1084859383
C   C87       1.0  0.67651  0.97418  0.80794  1.0000 0.1084859383
C   C88       1.0  0.32349  0.02582  0.19206  1.0000 0.1084859383
C   C89       1.0  0.77381  0.49591  0.75356  1.0000 -0.0813951156
C   C90       1.0  0.22619  0.50409  0.24644  1.0000 -0.0813951156
C   C91       1.0  0.22619  0.49591  0.74644  1.0000 -0.0813951156
C   C92       1.0  0.77381  0.50409  0.25356  1.0000 -0.0813951156
C   C93       1.0  0.27381  0.99591  0.75356  1.0000 -0.0813951156
C   C94       1.0  0.72619  0.00409  0.24644  1.0000 -0.0813951156
C   C95       1.0  0.72619  0.99591  0.74644  1.0000 -0.0813951156
C   C96       1.0  0.27381  0.00409  0.25356  1.0000 -0.0813951156
C   C97       1.0  0.77087  0.56107  0.81422  1.0000 0.1246311974
C   C98       1.0  0.22913  0.43893  0.18578  1.0000 0.1246311974
C   C99       1.0  0.22913  0.56107  0.68578  1.0000 0.1246311974
C   C100      1.0  0.77087  0.43893  0.31422  1.0000 0.1246311974
C   C101      1.0  0.27087  0.06107  0.81422  1.0000 0.1246311974
C   C102      1.0  0.72913  0.93893  0.18578  1.0000 0.1246311974
C   C103      1.0  0.72913  0.06107  0.68578  1.0000 0.1246311974
C   C104      1.0  0.27087  0.93893  0.31422  1.0000 0.1246311974
C   C105      1.0  0.81821  0.60441  0.81339  1.0000 0.1543629218
C   C106      1.0  0.18179  0.39559  0.18661  1.0000 0.1543629218
C   C107      1.0  0.18179  0.60441  0.68661  1.0000 0.1543629218
C   C108      1.0  0.81821  0.39559  0.31339  1.0000 0.1543629218
C   C109      1.0  0.31821  0.10441  0.81339  1.0000 0.1543629218
C   C110      1.0  0.68179  0.89559  0.18661  1.0000 0.1543629218
C   C111      1.0  0.68179  0.10441  0.68661  1.0000 0.1543629218
C   C112      1.0  0.31821  0.89559  0.31339  1.0000 0.1543629218
C   C113      1.0  0.50000  0.26715  0.75000  1.0000 -0.0813951156
C   C114      1.0  0.50000  0.73285  0.25000  1.0000 -0.0813951156
C   C115      1.0  0.00000  0.76715  0.75000  1.0000 -0.0813951156
C   C116      1.0  0.00000  0.23285  0.25000  1.0000 -0.0813951156
C   C117      1.0  0.55154  0.18039  0.18972  1.0000 -0.0813951156
C   C118      1.0  0.44846  0.81961  0.81028  1.0000 -0.0813951156
C   C119      1.0  0.44846  0.18039  0.31028  1.0000 -0.0813951156
C   C120      1.0  0.55154  0.81961  0.68972  1.0000 -0.0813951156
C   C121      1.0  0.05154  0.68039  0.18972  1.0000 -0.0813951156
C   C122      1.0  0.94846  0.31961  0.81028  1.0000 -0.0813951156
C   C123      1.0  0.94846  0.68039  0.31028  1.0000 -0.0813951156
C   C124      1.0  0.05154  0.31961  0.68972  1.0000 -0.0813951156
C   C125      1.0  0.44625  0.19347  0.15136  1.0000 -0.0920820265
C   C126      1.0  0.55375  0.80653  0.84864  1.0000 -0.0920820265
C   C127      1.0  0.55375  0.19347  0.34864  1.0000 -0.0920820265
C   C128      1.0  0.44625  0.80653  0.65136  1.0000 -0.0920820265
C   C129      1.0  0.94625  0.69347  0.15136  1.0000 -0.0920820265
C   C130      1.0  0.05375  0.30653  0.84864  1.0000 -0.0920820265
C   C131      1.0  0.05375  0.69347  0.34864  1.0000 -0.0920820265
C   C132      1.0  0.94625  0.30653  0.65136  1.0000 -0.0920820265
C   C133      1.0  0.50808  0.29394  0.17343  1.0000 -0.0920820265
C   C134      1.0  0.49192  0.70606  0.82657  1.0000 -0.0920820265
C   C135      1.0  0.49192  0.29394  0.32657  1.0000 -0.0920820265
C   C136      1.0  0.50808  0.70606  0.67343  1.0000 -0.0920820265
C   C137      1.0  0.00808  0.79394  0.17343  1.0000 -0.0920820265
C   C138      1.0  0.99192  0.20606  0.82657  1.0000 -0.0920820265
C   C139      1.0  0.99192  0.79394  0.32657  1.0000 -0.0920820265
C   C140      1.0  0.00808  0.20606  0.67343  1.0000 -0.0920820265
N   N1        1.0  0.49658  0.22246  0.38420  1.0000 -0.0813951156
N   N2        1.0  0.50342  0.77754  0.61580  1.0000 -0.0813951156
N   N3        1.0  0.50342  0.22246  0.11580  1.0000 -0.0813951156
N   N4        1.0  0.49658  0.77754  0.88420  1.0000 -0.0813951156
N   N5        1.0  0.99658  0.72246  0.38420  1.0000 -0.0813951156
N   N6        1.0  0.00342  0.27754  0.61580  1.0000 -0.0813951156
N   N7        1.0  0.00342  0.72246  0.11580  1.0000 -0.0813951156
N   N8        1.0  0.99658  0.27754  0.88420  1.0000 -0.0813951156
O   O1        1.0  0.54493  0.31157  0.71320  1.0000 -0.21808534
O   O2        1.0  0.45507  0.68843  0.28680  1.0000 -0.21808534
O   O3        1.0  0.45507  0.31157  0.78680  1.0000 -0.21808534
O   O4        1.0  0.54493  0.68843  0.21320  1.0000 -0.21808534
O   O5        1.0  0.04493  0.81157  0.71320  1.0000 -0.21808534
O   O6        1.0  0.95507  0.18843  0.28680  1.0000 -0.21808534
O   O7        1.0  0.95507  0.81157  0.78680  1.0000 -0.21808534
O   O8        1.0  0.04493  0.18843  0.21320  1.0000 -0.21808534
O   O9        1.0  0.57494  0.31077  0.94737  1.0000 -0.4428911384
O   O10       1.0  0.42506  0.68923  0.05263  1.0000 -0.4428911384
O   O11       1.0  0.42506  0.31077  0.55263  1.0000 -0.4428911384
O   O12       1.0  0.57494  0.68923  0.44737  1.0000 -0.4428911384
O   O13       1.0  0.07494  0.81077  0.94737  1.0000 -0.4428911384
O   O14       1.0  0.92506  0.18923  0.05263  1.0000 -0.4428911384
O   O15       1.0  0.92506  0.81077  0.55263  1.0000 -0.4428911384
O   O16       1.0  0.07494  0.18923  0.44737  1.0000 -0.4428911384
O   O17       1.0  0.91823  0.65885  0.62446  1.0000 -0.4937759924
O   O18       1.0  0.08177  0.34115  0.37554  1.0000 -0.4937759924
O   O19       1.0  0.08177  0.65885  0.87554  1.0000 -0.4937759924
O   O20       1.0  0.91823  0.34115  0.12446  1.0000 -0.4937759924
O   O21       1.0  0.41823  0.15885  0.62446  1.0000 -0.4937759924
O   O22       1.0  0.58177  0.84115  0.37554  1.0000 -0.4937759924
O   O23       1.0  0.58177  0.15885  0.87554  1.0000 -0.4937759924
O   O24       1.0  0.41823  0.84115  0.12446  1.0000 -0.4937759924
O   O25       1.0  0.94924  0.63443  0.85598  1.0000 -0.5072856161
O   O26       1.0  0.05076  0.36557  0.14402  1.0000 -0.5072856161
O   O27       1.0  0.05076  0.63443  0.64402  1.0000 -0.5072856161
O   O28       1.0  0.94924  0.36557  0.35598  1.0000 -0.5072856161
O   O29       1.0  0.44924  0.13443  0.85598  1.0000 -0.5072856161
O   O30       1.0  0.55076  0.86557  0.14402  1.0000 -0.5072856161
O   O31       1.0  0.55076  0.13443  0.64402  1.0000 -0.5072856161
O   O32       1.0  0.44924  0.86557  0.35598  1.0000 -0.5072856161
F   F1        1.0  0.57278  0.43778  0.63058  1.0000 -0.1076710451
F   F2        1.0  0.42722  0.56222  0.36942  1.0000 -0.1076710451
F   F3        1.0  0.42722  0.43778  0.86942  1.0000 -0.1076710451
F   F4        1.0  0.57278  0.56222  0.13058  1.0000 -0.1076710451
F   F5        1.0  0.07278  0.93778  0.63058  1.0000 -0.1076710451
F   F6        1.0  0.92722  0.06222  0.36942  1.0000 -0.1076710451
F   F7        1.0  0.92722  0.93778  0.86942  1.0000 -0.1076710451
F   F8        1.0  0.07278  0.06222  0.13058  1.0000 -0.1076710451
F   F9        1.0  0.66452  0.52500  0.61890  1.0000 -0.1076710451
F   F10       1.0  0.33548  0.47500  0.38110  1.0000 -0.1076710451
F   F11       1.0  0.33548  0.52500  0.88110  1.0000 -0.1076710451
F   F12       1.0  0.66452  0.47500  0.11890  1.0000 -0.1076710451
F   F13       1.0  0.16452  0.02500  0.61890  1.0000 -0.1076710451
F   F14       1.0  0.83548  0.97500  0.38110  1.0000 -0.1076710451
F   F15       1.0  0.83548  0.02500  0.88110  1.0000 -0.1076710451
F   F16       1.0  0.16452  0.97500  0.11890  1.0000 -0.1076710451
F   F17       1.0  0.78677  0.37096  0.90082  1.0000 -0.1076710451
F   F18       1.0  0.21323  0.62904  0.09918  1.0000 -0.1076710451
F   F19       1.0  0.21323  0.37096  0.59918  1.0000 -0.1076710451
F   F20       1.0  0.78677  0.62904  0.40082  1.0000 -0.1076710451
F   F21       1.0  0.28677  0.87096  0.90082  1.0000 -0.1076710451
F   F22       1.0  0.71323  0.12904  0.09918  1.0000 -0.1076710451
F   F23       1.0  0.71323  0.87096  0.59918  1.0000 -0.1076710451
F   F24       1.0  0.28677  0.12904  0.40082  1.0000 -0.1076710451
F   F25       1.0  0.69397  0.28578  0.92485  1.0000 -0.0920820265
F   F26       1.0  0.30603  0.71422  0.07515  1.0000 -0.0920820265
F   F27       1.0  0.30603  0.28578  0.57515  1.0000 -0.0920820265
F   F28       1.0  0.69397  0.71422  0.42485  1.0000 -0.0920820265
F   F29       1.0  0.19397  0.78578  0.92485  1.0000 -0.0920820265
F   F30       1.0  0.80603  0.21422  0.07515  1.0000 -0.0920820265
F   F31       1.0  0.80603  0.78578  0.57515  1.0000 -0.0920820265
F   F32       1.0  0.19397  0.21422  0.42485  1.0000 -0.0920820265
F   F33       1.0  0.91832  0.49889  0.62553  1.0000 -0.1076710451
F   F34       1.0  0.08168  0.50111  0.37447  1.0000 -0.1076710451
F   F35       1.0  0.08168  0.49889  0.87447  1.0000 -0.1076710451
F   F36       1.0  0.91832  0.50111  0.12553  1.0000 -0.1076710451
F   F37       1.0  0.41832  0.99889  0.62553  1.0000 -0.1076710451
F   F38       1.0  0.58168  0.00111  0.37447  1.0000 -0.1076710451
F   F39       1.0  0.58168  0.99889  0.87447  1.0000 -0.1076710451
F   F40       1.0  0.41832  0.00111  0.12553  1.0000 -0.1076710451
F   F41       1.0  0.82533  0.41102  0.63136  1.0000 -0.1076710451
F   F42       1.0  0.17467  0.58898  0.36864  1.0000 -0.1076710451
F   F43       1.0  0.17467  0.41102  0.86864  1.0000 -0.1076710451
F   F44       1.0  0.82533  0.58898  0.13136  1.0000 -0.1076710451
F   F45       1.0  0.32533  0.91102  0.63136  1.0000 -0.1076710451
F   F46       1.0  0.67467  0.08898  0.36864  1.0000 -0.1076710451
F   F47       1.0  0.67467  0.91102  0.86864  1.0000 -0.1076710451
F   F48       1.0  0.32533  0.08898  0.13136  1.0000 -0.1076710451
F   F49       1.0  0.72289  0.58144  0.87677  1.0000 -0.1076710451
F   F50       1.0  0.27711  0.41856  0.12323  1.0000 -0.1076710451
F   F51       1.0  0.27711  0.58144  0.62323  1.0000 -0.1076710451
F   F52       1.0  0.72289  0.41856  0.37677  1.0000 -0.1076710451
F   F53       1.0  0.22289  0.08144  0.87677  1.0000 -0.1076710451
F   F54       1.0  0.77711  0.91856  0.12323  1.0000 -0.1076710451
F   F55       1.0  0.77711  0.08144  0.62323  1.0000 -0.1076710451
F   F56       1.0  0.22289  0.91856  0.37677  1.0000 -0.1076710451
F   F57       1.0  0.81708  0.66830  0.87094  1.0000 -0.1046573583
F   F58       1.0  0.18292  0.33170  0.12906  1.0000 -0.1046573583
F   F59       1.0  0.18292  0.66830  0.62906  1.0000 -0.1046573583
F   F60       1.0  0.81708  0.33170  0.37094  1.0000 -0.1046573583
F   F61       1.0  0.31708  0.16830  0.87094  1.0000 -0.1046573583
F   F62       1.0  0.68292  0.83170  0.12906  1.0000 -0.1046573583
F   F63       1.0  0.68292  0.16830  0.62906  1.0000 -0.1046573583
F   F64       1.0  0.31708  0.83170  0.37094  1.0000 -0.1046573583
