# DDEC6 charges by PACMAN v1.1 (https://github.com/mtap-research/PACMAN-charge/)
data_2013[Zn][nan]3[ASR]37
_chemical_formula_sum              "Zn5 H26 C42 O20"
_cell_length_a       6.3303
_cell_length_b       12.6819
_cell_length_c       15.6877
_cell_angle_alpha    95.711
_cell_angle_beta     99.773
_cell_angle_gamma    97.973

_symmetry_space_group_name_H-M    "P 1"
_symmetry_Int_Tables_number       1

loop_
  _symmetry_equiv_pos_as_xyz
  'x, y, z'

loop_
  _atom_site_type_symbol
  _atom_site_label
  _atom_site_symmetry_multiplicity
  _atom_site_fract_x
  _atom_site_fract_y
  _atom_site_fract_z
  _atom_site_occupancy
  _atom_site_charge
Zn  Zn1       1.0  0.51997  0.95383  0.10046  1.0000 1.0324630098
Zn  Zn2       1.0  0.05860  0.96181  0.18612  1.0000 0.949936922
Zn  Zn3       1.0  0.48003  0.04617  0.89954  1.0000 1.0324630098
Zn  Zn4       1.0  0.94140  0.03819  0.81388  1.0000 0.949936922
Zn  Zn5       1.0  0.00000  0.00000  0.00000  1.0000 0.9848217921
H   H1        1.0  0.18820  0.73210  0.35650  1.0000 0.147115703
H   H2        1.0  0.57910  0.51410  0.41200  1.0000 0.160083677
H   H3        1.0  0.64050  0.68350  0.21130  1.0000 0.1402880456
H   H4        1.0  0.11800  0.45970  0.25310  1.0000 0.1402880456
H   H5        1.0  0.10440  0.30720  0.15830  1.0000 0.1186301553
H   H6        1.0  0.45590  0.27030  0.10830  1.0000 0.1186301553
H   H7        1.0  0.46900  0.42400  0.20370  1.0000 0.1280145353
H   H8        1.0  0.93250  0.61570  0.52780  1.0000 0.1402880456
H   H9        1.0  0.89730  0.74600  0.63610  1.0000 0.1147515581
H   H10       1.0  0.52020  0.87400  0.65610  1.0000 0.1280145353
H   H11       1.0  0.55150  0.74730  0.54320  1.0000 0.1280145353
H   H12       1.0  0.71100  0.91350  0.87600  1.0000 0.3830742643
H   H13       1.0  0.81300  0.83865  0.08063  1.0000 0.3918458478
H   H14       1.0  0.81180  0.26790  0.64350  1.0000 0.147115703
H   H15       1.0  0.42090  0.48590  0.58800  1.0000 0.160083677
H   H16       1.0  0.35950  0.31650  0.78870  1.0000 0.1402880456
H   H17       1.0  0.88200  0.54030  0.74690  1.0000 0.1402880456
H   H18       1.0  0.89560  0.69280  0.84170  1.0000 0.1186301553
H   H19       1.0  0.54410  0.72970  0.89170  1.0000 0.1186301553
H   H20       1.0  0.53100  0.57600  0.79630  1.0000 0.1280145353
H   H21       1.0  0.06750  0.38430  0.47220  1.0000 0.1402880456
H   H22       1.0  0.10270  0.25400  0.36390  1.0000 0.1147515581
H   H23       1.0  0.47980  0.12600  0.34390  1.0000 0.1280145353
H   H24       1.0  0.44850  0.25270  0.45680  1.0000 0.1280145353
H   H25       1.0  0.28900  0.08650  0.12400  1.0000 0.3830742643
H   H26       1.0  0.18700  0.16135  0.91937  1.0000 0.3918458478
C   C1        1.0  0.32980  0.80320  0.22010  1.0000 0.6051706628
C   C2        1.0  0.40190  0.72010  0.27510  1.0000 0.0147469056
C   C3        1.0  0.30040  0.69650  0.34430  1.0000 -0.2316705926
C   C4        1.0  0.36700  0.61980  0.39480  1.0000 0.2593045787
C   C5        1.0  0.53510  0.56600  0.37810  1.0000 -0.3193007155
C   C6        1.0  0.63580  0.59210  0.30910  1.0000 0.2593045787
C   C7        1.0  0.57150  0.66770  0.25730  1.0000 -0.2375645383
C   C8        1.0  0.79390  0.45600  0.23830  1.0000 0.2667096214
C   C9        1.0  0.98470  0.42150  0.22430  1.0000 -0.2111385807
C   C10       1.0  0.97600  0.33040  0.16740  1.0000 -0.0796537201
C   C11       1.0  0.77880  0.27270  0.12340  1.0000 -0.0467904887
C   C12       1.0  0.58930  0.30820  0.13740  1.0000 -0.0796537201
C   C13       1.0  0.59700  0.40020  0.19470  1.0000 -0.2316705926
C   C14       1.0  0.77490  0.17300  0.06360  1.0000 0.5995014266
C   C15       1.0  0.24430  0.67080  0.52460  1.0000 0.2452457355
C   C16       1.0  0.04970  0.66870  0.55260  1.0000 -0.2024701877
C   C17       1.0  0.02990  0.74590  0.61810  1.0000 -0.0796537201
C   C18       1.0  0.20520  0.82300  0.65710  1.0000 -0.0391531556
C   C19       1.0  0.40100  0.82300  0.62960  1.0000 -0.0796537201
C   C20       1.0  0.42030  0.74680  0.56240  1.0000 -0.2217401533
C   C21       1.0  0.18520  0.90660  0.72890  1.0000 0.5910461501
C   C22       1.0  0.67020  0.19680  0.77990  1.0000 0.6051706628
C   C23       1.0  0.59810  0.27990  0.72490  1.0000 0.0147469056
C   C24       1.0  0.69960  0.30350  0.65570  1.0000 -0.2316705926
C   C25       1.0  0.63300  0.38020  0.60520  1.0000 0.2593045787
C   C26       1.0  0.46490  0.43400  0.62190  1.0000 -0.3193007155
C   C27       1.0  0.36420  0.40790  0.69090  1.0000 0.2593045787
C   C28       1.0  0.42850  0.33230  0.74270  1.0000 -0.2375645383
C   C29       1.0  0.20610  0.54400  0.76170  1.0000 0.2667096214
C   C30       1.0  0.01530  0.57850  0.77570  1.0000 -0.2111385807
C   C31       1.0  0.02400  0.66960  0.83260  1.0000 -0.0796537201
C   C32       1.0  0.22120  0.72730  0.87660  1.0000 -0.0467904887
C   C33       1.0  0.41070  0.69180  0.86260  1.0000 -0.0796537201
C   C34       1.0  0.40300  0.59980  0.80530  1.0000 -0.2316705926
C   C35       1.0  0.22510  0.82700  0.93640  1.0000 0.5995014266
C   C36       1.0  0.75570  0.32920  0.47540  1.0000 0.2452457355
C   C37       1.0  0.95030  0.33130  0.44740  1.0000 -0.2024701877
C   C38       1.0  0.97010  0.25410  0.38190  1.0000 -0.0796537201
C   C39       1.0  0.79480  0.17700  0.34290  1.0000 -0.0391531556
C   C40       1.0  0.59900  0.17700  0.37040  1.0000 -0.0796537201
C   C41       1.0  0.57970  0.25320  0.43760  1.0000 -0.2217401533
C   C42       1.0  0.81480  0.09340  0.27110  1.0000 0.5910461501
O   O1        1.0  0.74970  0.98040  0.89220  1.0000 -0.8254707499
O   O2        1.0  0.18700  0.08210  0.91300  1.0000 -0.8542720719
O   O3        1.0  0.42010  0.81840  0.15580  1.0000 -0.5662569447
O   O4        1.0  0.18160  0.85150  0.24300  1.0000 -0.5527896925
O   O5        1.0  0.81910  0.54620  0.29740  1.0000 -0.2111385807
O   O6        1.0  0.95280  0.15120  0.04790  1.0000 -0.544013147
O   O7        1.0  0.59110  0.11520  0.03250  1.0000 -0.6008774682
O   O8        1.0  0.26140  0.58900  0.46110  1.0000 -0.2217401533
O   O9        1.0  0.35400  0.95480  0.77690  1.0000 -0.5591034486
O   O10       1.0  0.99200  0.92230  0.73430  1.0000 -0.5591034486
O   O11       1.0  0.25030  0.01960  0.10780  1.0000 -0.8254707499
O   O12       1.0  0.81300  0.91790  0.08700  1.0000 -0.8542720719
O   O13       1.0  0.57990  0.18160  0.84420  1.0000 -0.5662569447
O   O14       1.0  0.81840  0.14850  0.75700  1.0000 -0.5527896925
O   O15       1.0  0.18090  0.45380  0.70260  1.0000 -0.2111385807
O   O16       1.0  0.04720  0.84880  0.95210  1.0000 -0.544013147
O   O17       1.0  0.40890  0.88480  0.96750  1.0000 -0.6008774682
O   O18       1.0  0.73860  0.41100  0.53890  1.0000 -0.2217401533
O   O19       1.0  0.64600  0.04520  0.22310  1.0000 -0.5591034486
O   O20       1.0  0.00800  0.07770  0.26570  1.0000 -0.5591034486
