# DDEC6 charges by PACMAN v1.1 (https://github.com/mtap-research/PACMAN-charge/)
data_2013[Cu][nan]3[ASR]1
_chemical_formula_sum              "Cu24 H352 C400 N64 O64"
_cell_length_a       19.4251
_cell_length_b       36.589
_cell_length_c       37.762
_cell_angle_alpha    90
_cell_angle_beta     114.202
_cell_angle_gamma    90

_symmetry_space_group_name_H-M    "P 1"
_symmetry_Int_Tables_number       1

loop_
  _symmetry_equiv_pos_as_xyz
  'x, y, z'

loop_
  _atom_site_type_symbol
  _atom_site_label
  _atom_site_symmetry_multiplicity
  _atom_site_fract_x
  _atom_site_fract_y
  _atom_site_fract_z
  _atom_site_occupancy
  _atom_site_charge
Cu  Cu1       1.0  0.90359  0.81071  0.75297  1.0000 0.8514696451
Cu  Cu2       1.0  0.09641  0.31071  0.74703  1.0000 0.8514696451
Cu  Cu3       1.0  0.09641  0.18929  0.24703  1.0000 0.8514696451
Cu  Cu4       1.0  0.90359  0.68929  0.25297  1.0000 0.8514696451
Cu  Cu5       1.0  0.83799  0.81124  0.67661  1.0000 0.8514696451
Cu  Cu6       1.0  0.16201  0.31124  0.82339  1.0000 0.8514696451
Cu  Cu7       1.0  0.16201  0.18876  0.32339  1.0000 0.8514696451
Cu  Cu8       1.0  0.83799  0.68876  0.17661  1.0000 0.8514696451
Cu  Cu9       1.0  0.59307  0.79486  0.05284  1.0000 0.8514696451
Cu  Cu10      1.0  0.40693  0.29486  0.44716  1.0000 0.8514696451
Cu  Cu11      1.0  0.40693  0.20514  0.94716  1.0000 0.8514696451
Cu  Cu12      1.0  0.59307  0.70514  0.55284  1.0000 0.8514696451
Cu  Cu13      1.0  0.44506  0.79910  0.02691  1.0000 0.8436021499
Cu  Cu14      1.0  0.55494  0.29910  0.47309  1.0000 0.8436021499
Cu  Cu15      1.0  0.55494  0.20090  0.97309  1.0000 0.8436021499
Cu  Cu16      1.0  0.44506  0.70090  0.52691  1.0000 0.8436021499
Cu  Cu17      1.0  0.45211  0.54333  0.23778  1.0000 0.2239533357
Cu  Cu18      1.0  0.54789  0.04333  0.26222  1.0000 0.2239533357
Cu  Cu19      1.0  0.54789  0.45667  0.76222  1.0000 0.2239533357
Cu  Cu20      1.0  0.45211  0.95667  0.73778  1.0000 0.2239533357
Cu  Cu21      1.0  0.39499  0.60782  0.75078  1.0000 0.2101818092
Cu  Cu22      1.0  0.60501  0.10782  0.74922  1.0000 0.2101818092
Cu  Cu23      1.0  0.60501  0.39218  0.24922  1.0000 0.2101818092
Cu  Cu24      1.0  0.39499  0.89218  0.25078  1.0000 0.2101818092
H   H1        1.0  0.28430  0.02930  0.67580  1.0000 0.1293254323
H   H2        1.0  0.71570  0.52930  0.82420  1.0000 0.1293254323
H   H3        1.0  0.71570  0.97070  0.32420  1.0000 0.1293254323
H   H4        1.0  0.28430  0.47070  0.17580  1.0000 0.1293254323
H   H5        1.0  0.35240  0.00590  0.67400  1.0000 0.1293254323
H   H6        1.0  0.64760  0.50590  0.82600  1.0000 0.1293254323
H   H7        1.0  0.64760  0.99410  0.32600  1.0000 0.1293254323
H   H8        1.0  0.35240  0.49410  0.17400  1.0000 0.1293254323
H   H9        1.0  0.30760  0.65640  0.64350  1.0000 0.1293254323
H   H10       1.0  0.69240  0.15640  0.85650  1.0000 0.1293254323
H   H11       1.0  0.69240  0.34360  0.35650  1.0000 0.1293254323
H   H12       1.0  0.30760  0.84360  0.14350  1.0000 0.1293254323
H   H13       1.0  0.32990  0.61750  0.66450  1.0000 0.1407168886
H   H14       1.0  0.67010  0.11750  0.83550  1.0000 0.1407168886
H   H15       1.0  0.67010  0.38250  0.33550  1.0000 0.1407168886
H   H16       1.0  0.32990  0.88250  0.16450  1.0000 0.1407168886
H   H17       1.0  0.55020  0.55240  0.84230  1.0000 0.1195739089
H   H18       1.0  0.44980  0.05240  0.65770  1.0000 0.1195739089
H   H19       1.0  0.44980  0.44760  0.15770  1.0000 0.1195739089
H   H20       1.0  0.55020  0.94760  0.34230  1.0000 0.1195739089
H   H21       1.0  0.53510  0.57310  0.80250  1.0000 0.1293254323
H   H22       1.0  0.46490  0.07310  0.69750  1.0000 0.1293254323
H   H23       1.0  0.46490  0.42690  0.19750  1.0000 0.1293254323
H   H24       1.0  0.53510  0.92690  0.30250  1.0000 0.1293254323
H   H25       1.0  0.61690  0.55470  0.27910  1.0000 0.1293254323
H   H26       1.0  0.38310  0.05470  0.22090  1.0000 0.1293254323
H   H27       1.0  0.38310  0.44530  0.72090  1.0000 0.1293254323
H   H28       1.0  0.61690  0.94530  0.77910  1.0000 0.1293254323
H   H29       1.0  0.65650  0.59330  0.29480  1.0000 0.1195739089
H   H30       1.0  0.34350  0.09330  0.20520  1.0000 0.1195739089
H   H31       1.0  0.34350  0.40670  0.70520  1.0000 0.1195739089
H   H32       1.0  0.65650  0.90670  0.79480  1.0000 0.1195739089
H   H33       1.0  0.59020  0.03930  0.80790  1.0000 0.1407168886
H   H34       1.0  0.40980  0.53930  0.69210  1.0000 0.1407168886
H   H35       1.0  0.40980  0.96070  0.19210  1.0000 0.1407168886
H   H36       1.0  0.59020  0.46070  0.30790  1.0000 0.1407168886
H   H37       1.0  0.55600  0.01750  0.83380  1.0000 0.1486989542
H   H38       1.0  0.44400  0.51750  0.66620  1.0000 0.1486989542
H   H39       1.0  0.44400  0.98250  0.16620  1.0000 0.1486989542
H   H40       1.0  0.55600  0.48250  0.33380  1.0000 0.1486989542
H   H41       1.0  0.57030  0.99680  0.80010  1.0000 0.1293254323
H   H42       1.0  0.42970  0.49680  0.69990  1.0000 0.1293254323
H   H43       1.0  0.42970  0.00320  0.19990  1.0000 0.1293254323
H   H44       1.0  0.57030  0.50320  0.30010  1.0000 0.1293254323
H   H45       1.0  0.24550  0.63690  0.78750  1.0000 0.1407168886
H   H46       1.0  0.75450  0.13690  0.71250  1.0000 0.1407168886
H   H47       1.0  0.75450  0.36310  0.21250  1.0000 0.1407168886
H   H48       1.0  0.24550  0.86310  0.28750  1.0000 0.1407168886
H   H49       1.0  0.17190  0.61630  0.75760  1.0000 0.1486989542
H   H50       1.0  0.82810  0.11630  0.74240  1.0000 0.1486989542
H   H51       1.0  0.82810  0.38370  0.24240  1.0000 0.1486989542
H   H52       1.0  0.17190  0.88370  0.25760  1.0000 0.1486989542
H   H53       1.0  0.25340  0.59810  0.77000  1.0000 0.1486989542
H   H54       1.0  0.74660  0.09810  0.73000  1.0000 0.1486989542
H   H55       1.0  0.74660  0.40190  0.23000  1.0000 0.1486989542
H   H56       1.0  0.25340  0.90190  0.27000  1.0000 0.1486989542
H   H57       1.0  0.27610  0.51740  0.69780  1.0000 0.1486989542
H   H58       1.0  0.72390  0.01740  0.80220  1.0000 0.1486989542
H   H59       1.0  0.72390  0.48260  0.30220  1.0000 0.1486989542
H   H60       1.0  0.27610  0.98260  0.19780  1.0000 0.1486989542
H   H61       1.0  0.22700  0.52810  0.72150  1.0000 0.1486989542
H   H62       1.0  0.77300  0.02810  0.77850  1.0000 0.1486989542
H   H63       1.0  0.77300  0.47190  0.27850  1.0000 0.1486989542
H   H64       1.0  0.22700  0.97190  0.22150  1.0000 0.1486989542
H   H65       1.0  0.26960  0.55920  0.70840  1.0000 0.1407168886
H   H66       1.0  0.73040  0.05920  0.79160  1.0000 0.1407168886
H   H67       1.0  0.73040  0.44080  0.29160  1.0000 0.1407168886
H   H68       1.0  0.26960  0.94080  0.20840  1.0000 0.1407168886
H   H69       1.0  0.39120  0.53260  0.30140  1.0000 0.1407168886
H   H70       1.0  0.60880  0.03260  0.19860  1.0000 0.1407168886
H   H71       1.0  0.60880  0.46740  0.69860  1.0000 0.1407168886
H   H72       1.0  0.39120  0.96740  0.80140  1.0000 0.1407168886
H   H73       1.0  0.41080  0.54340  0.34560  1.0000 0.1486989542
H   H74       1.0  0.58920  0.04340  0.15440  1.0000 0.1486989542
H   H75       1.0  0.58920  0.45660  0.65440  1.0000 0.1486989542
H   H76       1.0  0.41080  0.95660  0.84560  1.0000 0.1486989542
H   H77       1.0  0.36190  0.57060  0.31120  1.0000 0.1407168886
H   H78       1.0  0.63810  0.07060  0.18880  1.0000 0.1407168886
H   H79       1.0  0.63810  0.42940  0.68880  1.0000 0.1407168886
H   H80       1.0  0.36190  0.92940  0.81120  1.0000 0.1407168886
H   H81       1.0  0.25220  0.06320  0.73620  1.0000 0.1486989542
H   H82       1.0  0.74780  0.56320  0.76380  1.0000 0.1486989542
H   H83       1.0  0.74780  0.93680  0.26380  1.0000 0.1486989542
H   H84       1.0  0.25220  0.43680  0.23620  1.0000 0.1486989542
H   H85       1.0  0.30090  0.10010  0.74500  1.0000 0.1486989542
H   H86       1.0  0.69910  0.60010  0.75500  1.0000 0.1486989542
H   H87       1.0  0.69910  0.89990  0.25500  1.0000 0.1486989542
H   H88       1.0  0.30090  0.39990  0.24500  1.0000 0.1486989542
H   H89       1.0  0.27670  0.08000  0.70400  1.0000 0.1407168886
H   H90       1.0  0.72330  0.58000  0.79600  1.0000 0.1407168886
H   H91       1.0  0.72330  0.92000  0.29600  1.0000 0.1407168886
H   H92       1.0  0.27670  0.42000  0.20400  1.0000 0.1407168886
H   H93       1.0  0.17920  0.68940  0.62280  1.0000 0.1293254323
H   H94       1.0  0.82080  0.18940  0.87720  1.0000 0.1293254323
H   H95       1.0  0.82080  0.31060  0.37720  1.0000 0.1293254323
H   H96       1.0  0.17920  0.81060  0.12280  1.0000 0.1293254323
H   H97       1.0  0.16760  0.72010  0.65000  1.0000 0.1407168886
H   H98       1.0  0.83240  0.22010  0.85000  1.0000 0.1407168886
H   H99       1.0  0.83240  0.27990  0.35000  1.0000 0.1407168886
H   H100      1.0  0.16760  0.77990  0.15000  1.0000 0.1407168886
H   H101      1.0  0.24900  0.71410  0.64980  1.0000 0.1293254323
H   H102      1.0  0.75100  0.21410  0.85020  1.0000 0.1293254323
H   H103      1.0  0.75100  0.28590  0.35020  1.0000 0.1293254323
H   H104      1.0  0.24900  0.78590  0.14980  1.0000 0.1293254323
H   H105      1.0  0.46740  0.50140  0.86970  1.0000 0.1486989542
H   H106      1.0  0.53260  0.00140  0.63030  1.0000 0.1486989542
H   H107      1.0  0.53260  0.49860  0.13030  1.0000 0.1486989542
H   H108      1.0  0.46740  0.99860  0.36970  1.0000 0.1486989542
H   H109      1.0  0.46900  0.46610  0.84510  1.0000 0.1486989542
H   H110      1.0  0.53100  0.96610  0.65490  1.0000 0.1486989542
H   H111      1.0  0.53100  0.53390  0.15490  1.0000 0.1486989542
H   H112      1.0  0.46900  0.03390  0.34510  1.0000 0.1486989542
H   H113      1.0  0.53090  0.49750  0.85320  1.0000 0.1293254323
H   H114      1.0  0.46910  0.99750  0.64680  1.0000 0.1293254323
H   H115      1.0  0.46910  0.50250  0.14680  1.0000 0.1293254323
H   H116      1.0  0.53090  0.00250  0.35320  1.0000 0.1293254323
H   H117      1.0  0.64980  0.64310  0.33880  1.0000 0.1407168886
H   H118      1.0  0.35020  0.14310  0.16120  1.0000 0.1407168886
H   H119      1.0  0.35020  0.35690  0.66120  1.0000 0.1407168886
H   H120      1.0  0.64980  0.85690  0.83880  1.0000 0.1407168886
H   H121      1.0  0.65160  0.63560  0.38100  1.0000 0.1407168886
H   H122      1.0  0.34840  0.13560  0.11900  1.0000 0.1407168886
H   H123      1.0  0.34840  0.36440  0.61900  1.0000 0.1407168886
H   H124      1.0  0.65160  0.86440  0.88100  1.0000 0.1407168886
H   H125      1.0  0.69590  0.60900  0.36390  1.0000 0.1407168886
H   H126      1.0  0.30410  0.10900  0.13610  1.0000 0.1407168886
H   H127      1.0  0.30410  0.39100  0.63610  1.0000 0.1407168886
H   H128      1.0  0.69590  0.89100  0.86390  1.0000 0.1407168886
H   H129      1.0  0.55270  0.08680  0.83530  1.0000 0.112124627
H   H130      1.0  0.44730  0.58680  0.66470  1.0000 0.112124627
H   H131      1.0  0.44730  0.91320  0.16470  1.0000 0.112124627
H   H132      1.0  0.55270  0.41320  0.33530  1.0000 0.112124627
H   H133      1.0  0.16580  0.69120  0.76720  1.0000 0.112124627
H   H134      1.0  0.83420  0.19120  0.73280  1.0000 0.112124627
H   H135      1.0  0.83420  0.30880  0.23280  1.0000 0.112124627
H   H136      1.0  0.16580  0.80880  0.26720  1.0000 0.112124627
H   H137      1.0  0.26250  0.46200  0.72360  1.0000 0.112124627
H   H138      1.0  0.73750  0.96200  0.77640  1.0000 0.112124627
H   H139      1.0  0.73750  0.53800  0.27640  1.0000 0.112124627
H   H140      1.0  0.26250  0.03800  0.22360  1.0000 0.112124627
H   H141      1.0  0.41050  0.61690  0.36530  1.0000 0.112124627
H   H142      1.0  0.58950  0.11690  0.13470  1.0000 0.112124627
H   H143      1.0  0.58950  0.38310  0.63470  1.0000 0.112124627
H   H144      1.0  0.41050  0.88310  0.86530  1.0000 0.112124627
H   H145      1.0  0.56940  0.12510  0.88740  1.0000 0.112124627
H   H146      1.0  0.43060  0.62510  0.61260  1.0000 0.112124627
H   H147      1.0  0.43060  0.87490  0.11260  1.0000 0.112124627
H   H148      1.0  0.56940  0.37490  0.38740  1.0000 0.112124627
H   H149      1.0  0.06830  0.72690  0.76980  1.0000 0.1293254323
H   H150      1.0  0.93170  0.22690  0.73020  1.0000 0.1293254323
H   H151      1.0  0.93170  0.27310  0.23020  1.0000 0.1293254323
H   H152      1.0  0.06830  0.77310  0.26980  1.0000 0.1293254323
H   H153      1.0  0.19700  0.40870  0.72390  1.0000 0.1195739089
H   H154      1.0  0.80300  0.90870  0.77610  1.0000 0.1195739089
H   H155      1.0  0.80300  0.59130  0.27610  1.0000 0.1195739089
H   H156      1.0  0.19700  0.09130  0.22390  1.0000 0.1195739089
H   H157      1.0  0.40580  0.64110  0.42180  1.0000 0.1293254323
H   H158      1.0  0.59420  0.14110  0.07820  1.0000 0.1293254323
H   H159      1.0  0.59420  0.35890  0.57820  1.0000 0.1293254323
H   H160      1.0  0.40580  0.85890  0.92180  1.0000 0.1293254323
H   H161      1.0  0.34360  0.12310  0.85810  1.0000 0.1293254323
H   H162      1.0  0.65640  0.62310  0.64190  1.0000 0.1293254323
H   H163      1.0  0.65640  0.87690  0.14190  1.0000 0.1293254323
H   H164      1.0  0.34360  0.37690  0.35810  1.0000 0.1293254323
H   H165      1.0  0.96470  0.72530  0.65230  1.0000 0.1293254323
H   H166      1.0  0.03530  0.22530  0.84770  1.0000 0.1293254323
H   H167      1.0  0.03530  0.27470  0.34770  1.0000 0.1293254323
H   H168      1.0  0.96470  0.77470  0.15230  1.0000 0.1293254323
H   H169      1.0  0.28860  0.40910  0.84090  1.0000 0.1293254323
H   H170      1.0  0.71140  0.90910  0.65910  1.0000 0.1293254323
H   H171      1.0  0.71140  0.59090  0.15910  1.0000 0.1293254323
H   H172      1.0  0.28860  0.09090  0.34090  1.0000 0.1293254323
H   H173      1.0  0.63140  0.62420  0.47920  1.0000 0.1293254323
H   H174      1.0  0.36860  0.12420  0.02080  1.0000 0.1293254323
H   H175      1.0  0.36860  0.37580  0.52080  1.0000 0.1293254323
H   H176      1.0  0.63140  0.87580  0.97920  1.0000 0.1293254323
H   H177      1.0  0.32870  0.08220  0.80850  1.0000 0.112124627
H   H178      1.0  0.67130  0.58220  0.69150  1.0000 0.112124627
H   H179      1.0  0.67130  0.91780  0.19150  1.0000 0.112124627
H   H180      1.0  0.32870  0.41780  0.30850  1.0000 0.112124627
H   H181      1.0  0.05910  0.68810  0.65050  1.0000 0.112124627
H   H182      1.0  0.94090  0.18810  0.84950  1.0000 0.112124627
H   H183      1.0  0.94090  0.31190  0.34950  1.0000 0.112124627
H   H184      1.0  0.05910  0.81190  0.15050  1.0000 0.112124627
H   H185      1.0  0.34890  0.46450  0.84160  1.0000 0.112124627
H   H186      1.0  0.65110  0.96450  0.65840  1.0000 0.112124627
H   H187      1.0  0.65110  0.53550  0.15840  1.0000 0.112124627
H   H188      1.0  0.34890  0.03550  0.34160  1.0000 0.112124627
H   H189      1.0  0.63360  0.59740  0.42410  1.0000 0.1195739089
H   H190      1.0  0.36640  0.09740  0.07590  1.0000 0.1195739089
H   H191      1.0  0.36640  0.40260  0.57590  1.0000 0.1195739089
H   H192      1.0  0.63360  0.90260  0.92410  1.0000 0.1195739089
H   H193      1.0  0.33700  0.88430  0.75950  1.0000 0.1407168886
H   H194      1.0  0.66300  0.38430  0.74050  1.0000 0.1407168886
H   H195      1.0  0.66300  0.11570  0.24050  1.0000 0.1407168886
H   H196      1.0  0.33700  0.61570  0.25950  1.0000 0.1407168886
H   H197      1.0  0.28900  0.86710  0.71760  1.0000 0.1486989542
H   H198      1.0  0.71100  0.36710  0.78240  1.0000 0.1486989542
H   H199      1.0  0.71100  0.13290  0.28240  1.0000 0.1486989542
H   H200      1.0  0.28900  0.63290  0.21760  1.0000 0.1486989542
H   H201      1.0  0.37220  0.88240  0.72790  1.0000 0.1407168886
H   H202      1.0  0.62780  0.38240  0.77210  1.0000 0.1407168886
H   H203      1.0  0.62780  0.11760  0.27210  1.0000 0.1407168886
H   H204      1.0  0.37220  0.61760  0.22790  1.0000 0.1407168886
H   H205      1.0  0.57730  0.61760  0.77740  1.0000 0.1293254323
H   H206      1.0  0.42270  0.11760  0.72260  1.0000 0.1293254323
H   H207      1.0  0.42270  0.38240  0.22260  1.0000 0.1293254323
H   H208      1.0  0.57730  0.88240  0.27740  1.0000 0.1293254323
H   H209      1.0  0.62550  0.65260  0.77630  1.0000 0.1486989542
H   H210      1.0  0.37450  0.15260  0.72370  1.0000 0.1486989542
H   H211      1.0  0.37450  0.34740  0.22370  1.0000 0.1486989542
H   H212      1.0  0.62550  0.84740  0.27630  1.0000 0.1486989542
H   H213      1.0  0.56950  0.65490  0.79760  1.0000 0.1486989542
H   H214      1.0  0.43050  0.15490  0.70240  1.0000 0.1486989542
H   H215      1.0  0.43050  0.34510  0.20240  1.0000 0.1486989542
H   H216      1.0  0.56950  0.84510  0.29760  1.0000 0.1486989542
H   H217      1.0  0.33790  0.68040  0.80830  1.0000 0.1407168886
H   H218      1.0  0.66210  0.18040  0.69170  1.0000 0.1407168886
H   H219      1.0  0.66210  0.31960  0.19170  1.0000 0.1407168886
H   H220      1.0  0.33790  0.81960  0.30830  1.0000 0.1407168886
H   H221      1.0  0.41190  0.70560  0.82430  1.0000 0.1486989542
H   H222      1.0  0.58810  0.20560  0.67570  1.0000 0.1486989542
H   H223      1.0  0.58810  0.29440  0.17570  1.0000 0.1486989542
H   H224      1.0  0.41190  0.79440  0.32430  1.0000 0.1486989542
H   H225      1.0  0.38710  0.68530  0.78340  1.0000 0.1407168886
H   H226      1.0  0.61290  0.18530  0.71660  1.0000 0.1407168886
H   H227      1.0  0.61290  0.31470  0.21660  1.0000 0.1407168886
H   H228      1.0  0.38710  0.81470  0.28340  1.0000 0.1407168886
H   H229      1.0  0.37030  0.60400  0.14900  1.0000 0.1486989542
H   H230      1.0  0.62970  0.10400  0.35100  1.0000 0.1486989542
H   H231      1.0  0.62970  0.39600  0.85100  1.0000 0.1486989542
H   H232      1.0  0.37030  0.89600  0.64900  1.0000 0.1486989542
H   H233      1.0  0.42180  0.59320  0.12660  1.0000 0.1486989542
H   H234      1.0  0.57820  0.09320  0.37340  1.0000 0.1486989542
H   H235      1.0  0.57820  0.40680  0.87340  1.0000 0.1486989542
H   H236      1.0  0.42180  0.90680  0.62660  1.0000 0.1486989542
H   H237      1.0  0.40160  0.56310  0.15160  1.0000 0.1407168886
H   H238      1.0  0.59840  0.06310  0.34840  1.0000 0.1407168886
H   H239      1.0  0.59840  0.43690  0.84840  1.0000 0.1407168886
H   H240      1.0  0.40160  0.93690  0.65160  1.0000 0.1407168886
H   H241      1.0  0.14260  0.00170  0.64770  1.0000 0.1293254323
H   H242      1.0  0.85740  0.50170  0.85230  1.0000 0.1293254323
H   H243      1.0  0.85740  0.99830  0.35230  1.0000 0.1293254323
H   H244      1.0  0.14260  0.49830  0.14770  1.0000 0.1293254323
H   H245      1.0  0.11360  0.99120  0.68040  1.0000 0.1407168886
H   H246      1.0  0.88640  0.49120  0.81960  1.0000 0.1407168886
H   H247      1.0  0.88640  0.00880  0.31960  1.0000 0.1407168886
H   H248      1.0  0.11360  0.50880  0.18040  1.0000 0.1407168886
H   H249      1.0  0.17500  0.02290  0.68840  1.0000 0.1195739089
H   H250      1.0  0.82500  0.52290  0.81160  1.0000 0.1195739089
H   H251      1.0  0.82500  0.97710  0.31160  1.0000 0.1195739089
H   H252      1.0  0.17500  0.47710  0.18840  1.0000 0.1195739089
H   H253      1.0  0.36080  0.71610  0.64380  1.0000 0.1407168886
H   H254      1.0  0.63920  0.21610  0.85620  1.0000 0.1407168886
H   H255      1.0  0.63920  0.28390  0.35620  1.0000 0.1407168886
H   H256      1.0  0.36080  0.78390  0.14380  1.0000 0.1407168886
H   H257      1.0  0.44340  0.72720  0.64790  1.0000 0.1486989542
H   H258      1.0  0.55660  0.22720  0.85210  1.0000 0.1486989542
H   H259      1.0  0.55660  0.27280  0.35210  1.0000 0.1486989542
H   H260      1.0  0.44340  0.77280  0.14790  1.0000 0.1486989542
H   H261      1.0  0.40250  0.69180  0.62340  1.0000 0.1486989542
H   H262      1.0  0.59750  0.19180  0.87660  1.0000 0.1486989542
H   H263      1.0  0.59750  0.30820  0.37660  1.0000 0.1486989542
H   H264      1.0  0.40250  0.80820  0.12340  1.0000 0.1486989542
H   H265      1.0  0.61420  0.58980  0.90840  1.0000 0.1293254323
H   H266      1.0  0.38580  0.08980  0.59160  1.0000 0.1293254323
H   H267      1.0  0.38580  0.41020  0.09160  1.0000 0.1293254323
H   H268      1.0  0.61420  0.91020  0.40840  1.0000 0.1293254323
H   H269      1.0  0.56150  0.59980  0.93030  1.0000 0.1407168886
H   H270      1.0  0.43850  0.09980  0.56970  1.0000 0.1407168886
H   H271      1.0  0.43850  0.40020  0.06970  1.0000 0.1407168886
H   H272      1.0  0.56150  0.90020  0.43030  1.0000 0.1407168886
H   H273      1.0  0.54490  0.56390  0.90390  1.0000 0.1293254323
H   H274      1.0  0.45510  0.06390  0.59610  1.0000 0.1293254323
H   H275      1.0  0.45510  0.43610  0.09610  1.0000 0.1293254323
H   H276      1.0  0.54490  0.93610  0.40390  1.0000 0.1293254323
H   H277      1.0  0.69410  0.63930  0.26110  1.0000 0.1407168886
H   H278      1.0  0.30590  0.13930  0.23890  1.0000 0.1407168886
H   H279      1.0  0.30590  0.36070  0.73890  1.0000 0.1407168886
H   H280      1.0  0.69410  0.86070  0.76110  1.0000 0.1407168886
H   H281      1.0  0.64870  0.67270  0.23430  1.0000 0.1486989542
H   H282      1.0  0.35130  0.17270  0.26570  1.0000 0.1486989542
H   H283      1.0  0.35130  0.32730  0.76570  1.0000 0.1486989542
H   H284      1.0  0.64870  0.82730  0.73430  1.0000 0.1486989542
H   H285      1.0  0.63690  0.66270  0.27270  1.0000 0.1486989542
H   H286      1.0  0.36310  0.16270  0.22730  1.0000 0.1486989542
H   H287      1.0  0.36310  0.33730  0.72730  1.0000 0.1486989542
H   H288      1.0  0.63690  0.83730  0.77270  1.0000 0.1486989542
H   H289      1.0  0.08000  0.92290  0.64960  1.0000 0.1195739089
H   H290      1.0  0.92000  0.42290  0.85040  1.0000 0.1195739089
H   H291      1.0  0.92000  0.07710  0.35040  1.0000 0.1195739089
H   H292      1.0  0.08000  0.57710  0.14960  1.0000 0.1195739089
H   H293      1.0  0.56710  0.69700  0.65870  1.0000 0.1195739089
H   H294      1.0  0.43290  0.19700  0.84130  1.0000 0.1195739089
H   H295      1.0  0.43290  0.30300  0.34130  1.0000 0.1195739089
H   H296      1.0  0.56710  0.80300  0.15870  1.0000 0.1195739089
H   H297      1.0  0.37380  0.67750  0.88630  1.0000 0.1195739089
H   H298      1.0  0.62620  0.17750  0.61370  1.0000 0.1195739089
H   H299      1.0  0.62620  0.32250  0.11370  1.0000 0.1195739089
H   H300      1.0  0.37380  0.82250  0.38630  1.0000 0.1195739089
H   H301      1.0  0.41260  0.66990  0.14370  1.0000 0.1195739089
H   H302      1.0  0.58740  0.16990  0.35630  1.0000 0.1195739089
H   H303      1.0  0.58740  0.33010  0.85630  1.0000 0.1195739089
H   H304      1.0  0.41260  0.83010  0.64370  1.0000 0.1195739089
H   H305      1.0  0.98390  0.88710  0.65220  1.0000 0.1293254323
H   H306      1.0  0.01610  0.38710  0.84780  1.0000 0.1293254323
H   H307      1.0  0.01610  0.11290  0.34780  1.0000 0.1293254323
H   H308      1.0  0.98390  0.61290  0.15220  1.0000 0.1293254323
H   H309      1.0  0.66710  0.73270  0.66080  1.0000 0.1293254323
H   H310      1.0  0.33290  0.23270  0.83920  1.0000 0.1293254323
H   H311      1.0  0.33290  0.26730  0.33920  1.0000 0.1293254323
H   H312      1.0  0.66710  0.76730  0.16080  1.0000 0.1293254323
H   H313      1.0  0.38500  0.72090  0.93430  1.0000 0.1293254323
H   H314      1.0  0.61500  0.22090  0.56570  1.0000 0.1293254323
H   H315      1.0  0.61500  0.27910  0.06570  1.0000 0.1293254323
H   H316      1.0  0.38500  0.77910  0.43430  1.0000 0.1293254323
H   H317      1.0  0.40880  0.71670  0.10050  1.0000 0.1195739089
H   H318      1.0  0.59120  0.21670  0.39950  1.0000 0.1195739089
H   H319      1.0  0.59120  0.28330  0.89950  1.0000 0.1195739089
H   H320      1.0  0.40880  0.78330  0.60050  1.0000 0.1195739089
H   H321      1.0  0.10650  0.86900  0.76630  1.0000 0.1293254323
H   H322      1.0  0.89350  0.36900  0.73370  1.0000 0.1293254323
H   H323      1.0  0.89350  0.13100  0.23370  1.0000 0.1293254323
H   H324      1.0  0.10650  0.63100  0.26630  1.0000 0.1293254323
H   H325      1.0  0.71930  0.75690  0.77340  1.0000 0.1195739089
H   H326      1.0  0.28070  0.25690  0.72660  1.0000 0.1195739089
H   H327      1.0  0.28070  0.24310  0.22660  1.0000 0.1195739089
H   H328      1.0  0.71930  0.74310  0.27340  1.0000 0.1195739089
H   H329      1.0  0.61260  0.71040  0.97760  1.0000 0.1293254323
H   H330      1.0  0.38740  0.21040  0.52240  1.0000 0.1293254323
H   H331      1.0  0.38740  0.28960  0.02240  1.0000 0.1293254323
H   H332      1.0  0.61260  0.78960  0.47760  1.0000 0.1293254323
H   H333      1.0  0.63190  0.70270  0.12760  1.0000 0.1293254323
H   H334      1.0  0.36810  0.20270  0.37240  1.0000 0.1293254323
H   H335      1.0  0.36810  0.29730  0.87240  1.0000 0.1293254323
H   H336      1.0  0.63190  0.79730  0.62760  1.0000 0.1293254323
H   H337      1.0  0.20700  0.90120  0.76240  1.0000 0.112124627
H   H338      1.0  0.79300  0.40120  0.73760  1.0000 0.112124627
H   H339      1.0  0.79300  0.09880  0.23760  1.0000 0.112124627
H   H340      1.0  0.20700  0.59880  0.26240  1.0000 0.112124627
H   H341      1.0  0.61690  0.72180  0.77110  1.0000 0.1195739089
H   H342      1.0  0.38310  0.22180  0.72890  1.0000 0.1195739089
H   H343      1.0  0.38310  0.27820  0.22890  1.0000 0.1195739089
H   H344      1.0  0.61690  0.77820  0.27110  1.0000 0.1195739089
H   H345      1.0  0.59840  0.66880  0.92790  1.0000 0.1195739089
H   H346      1.0  0.40160  0.16880  0.57210  1.0000 0.1195739089
H   H347      1.0  0.40160  0.33120  0.07210  1.0000 0.1195739089
H   H348      1.0  0.59840  0.83120  0.42790  1.0000 0.1195739089
H   H349      1.0  0.63550  0.65500  0.16950  1.0000 0.1195739089
H   H350      1.0  0.36450  0.15500  0.33050  1.0000 0.1195739089
H   H351      1.0  0.36450  0.34500  0.83050  1.0000 0.1195739089
H   H352      1.0  0.63550  0.84500  0.66950  1.0000 0.1195739089
C   C1        1.0  0.32452  0.01154  0.69015  1.0000 -0.097544734
C   C2        1.0  0.67548  0.51154  0.80985  1.0000 -0.097544734
C   C3        1.0  0.67548  0.98846  0.30985  1.0000 -0.097544734
C   C4        1.0  0.32452  0.48846  0.19015  1.0000 -0.097544734
C   C5        1.0  0.32866  0.64410  0.66910  1.0000 -0.0914350213
C   C6        1.0  0.67134  0.14410  0.83090  1.0000 -0.0914350213
C   C7        1.0  0.67134  0.35590  0.33090  1.0000 -0.0914350213
C   C8        1.0  0.32866  0.85590  0.16910  1.0000 -0.0914350213
C   C9        1.0  0.51210  0.56613  0.82053  1.0000 -0.097544734
C   C10       1.0  0.48790  0.06613  0.67947  1.0000 -0.097544734
C   C11       1.0  0.48790  0.43387  0.17947  1.0000 -0.097544734
C   C12       1.0  0.51210  0.93387  0.32053  1.0000 -0.097544734
C   C13       1.0  0.60716  0.58096  0.28151  1.0000 -0.0914350213
C   C14       1.0  0.39284  0.08096  0.21849  1.0000 -0.0914350213
C   C15       1.0  0.39284  0.41904  0.71849  1.0000 -0.0914350213
C   C16       1.0  0.60716  0.91904  0.78151  1.0000 -0.0914350213
C   C17       1.0  0.47767  0.02951  0.77975  1.0000 0.2101818092
C   C18       1.0  0.52233  0.52951  0.72025  1.0000 0.2101818092
C   C19       1.0  0.52233  0.97049  0.22025  1.0000 0.2101818092
C   C20       1.0  0.47767  0.47049  0.27975  1.0000 0.2101818092
C   C21       1.0  0.23411  0.64029  0.73086  1.0000 0.2002392955
C   C22       1.0  0.76589  0.14029  0.76914  1.0000 0.2002392955
C   C23       1.0  0.76589  0.35971  0.26914  1.0000 0.2002392955
C   C24       1.0  0.23411  0.85971  0.23086  1.0000 0.2002392955
C   C25       1.0  0.34022  0.52948  0.75458  1.0000 0.2002392955
C   C26       1.0  0.65978  0.02948  0.74542  1.0000 0.2002392955
C   C27       1.0  0.65978  0.47052  0.24542  1.0000 0.2002392955
C   C28       1.0  0.34022  0.97052  0.25458  1.0000 0.2002392955
C   C29       1.0  0.47520  0.57140  0.32265  1.0000 0.2101818092
C   C30       1.0  0.52480  0.07140  0.17735  1.0000 0.2101818092
C   C31       1.0  0.52480  0.42860  0.67735  1.0000 0.2101818092
C   C32       1.0  0.47520  0.92860  0.82265  1.0000 0.2101818092
C   C33       1.0  0.42690  0.05650  0.78259  1.0000 -0.1686597524
C   C34       1.0  0.57310  0.55650  0.71741  1.0000 -0.1686597524
C   C35       1.0  0.57310  0.94350  0.21741  1.0000 -0.1686597524
C   C36       1.0  0.42690  0.44350  0.28259  1.0000 -0.1686597524
C   C37       1.0  0.18955  0.66813  0.70645  1.0000 -0.1588691634
C   C38       1.0  0.81045  0.16813  0.79355  1.0000 -0.1588691634
C   C39       1.0  0.81045  0.33187  0.29355  1.0000 -0.1588691634
C   C40       1.0  0.18955  0.83187  0.20645  1.0000 -0.1588691634
C   C41       1.0  0.35878  0.50152  0.78299  1.0000 -0.1798190873
C   C42       1.0  0.64122  0.00152  0.71701  1.0000 -0.1798190873
C   C43       1.0  0.64122  0.49848  0.21701  1.0000 -0.1798190873
C   C44       1.0  0.35878  0.99848  0.28299  1.0000 -0.1798190873
C   C45       1.0  0.52690  0.59308  0.35200  1.0000 -0.1686597524
C   C46       1.0  0.47310  0.09308  0.14800  1.0000 -0.1686597524
C   C47       1.0  0.47310  0.40692  0.64800  1.0000 -0.1686597524
C   C48       1.0  0.52690  0.90692  0.85200  1.0000 -0.1686597524
C   C49       1.0  0.36301  0.05438  0.74784  1.0000 0.1486989542
C   C50       1.0  0.63699  0.55438  0.75216  1.0000 0.1486989542
C   C51       1.0  0.63699  0.94562  0.25216  1.0000 0.1486989542
C   C52       1.0  0.36301  0.44562  0.24784  1.0000 0.1486989542
C   C53       1.0  0.22136  0.67468  0.67993  1.0000 0.1407168886
C   C54       1.0  0.77864  0.17468  0.82007  1.0000 0.1407168886
C   C55       1.0  0.77864  0.32532  0.32007  1.0000 0.1407168886
C   C56       1.0  0.22136  0.82532  0.17993  1.0000 0.1407168886
C   C57       1.0  0.42829  0.51123  0.81193  1.0000 0.1486989542
C   C58       1.0  0.57171  0.01123  0.68807  1.0000 0.1486989542
C   C59       1.0  0.57171  0.48877  0.18807  1.0000 0.1486989542
C   C60       1.0  0.42829  0.98877  0.31193  1.0000 0.1486989542
C   C61       1.0  0.58380  0.60135  0.34002  1.0000 0.1407168886
C   C62       1.0  0.41620  0.10135  0.15998  1.0000 0.1407168886
C   C63       1.0  0.41620  0.39865  0.65998  1.0000 0.1407168886
C   C64       1.0  0.58380  0.89865  0.84002  1.0000 0.1407168886
C   C65       1.0  0.55511  0.01997  0.80778  1.0000 -0.5022612118
C   C66       1.0  0.44489  0.51997  0.69222  1.0000 -0.5022612118
C   C67       1.0  0.44489  0.98003  0.19222  1.0000 -0.5022612118
C   C68       1.0  0.55511  0.48003  0.30778  1.0000 -0.5022612118
C   C69       1.0  0.22550  0.62119  0.76447  1.0000 -0.4810557837
C   C70       1.0  0.77450  0.12119  0.73553  1.0000 -0.4810557837
C   C71       1.0  0.77450  0.37881  0.23553  1.0000 -0.4810557837
C   C72       1.0  0.22550  0.87881  0.26447  1.0000 -0.4810557837
C   C73       1.0  0.27245  0.53394  0.71741  1.0000 -0.4891065293
C   C74       1.0  0.72755  0.03394  0.78259  1.0000 -0.4891065293
C   C75       1.0  0.72755  0.46606  0.28259  1.0000 -0.4891065293
C   C76       1.0  0.27245  0.96606  0.21741  1.0000 -0.4891065293
C   C77       1.0  0.40340  0.55287  0.31998  1.0000 -0.4891065293
C   C78       1.0  0.59660  0.05287  0.18002  1.0000 -0.4891065293
C   C79       1.0  0.59660  0.44713  0.68002  1.0000 -0.4891065293
C   C80       1.0  0.40340  0.94713  0.81998  1.0000 -0.4891065293
C   C81       1.0  0.29215  0.07629  0.73191  1.0000 -0.4891065293
C   C82       1.0  0.70785  0.57629  0.76809  1.0000 -0.4891065293
C   C83       1.0  0.70785  0.92371  0.26809  1.0000 -0.4891065293
C   C84       1.0  0.29215  0.42371  0.23191  1.0000 -0.4891065293
C   C85       1.0  0.20270  0.70190  0.64787  1.0000 -0.4810557837
C   C86       1.0  0.79730  0.20190  0.85213  1.0000 -0.4810557837
C   C87       1.0  0.79730  0.29810  0.35213  1.0000 -0.4810557837
C   C88       1.0  0.20270  0.79810  0.14787  1.0000 -0.4810557837
C   C89       1.0  0.47808  0.49250  0.84803  1.0000 -0.5022612118
C   C90       1.0  0.52192  0.99250  0.65197  1.0000 -0.5022612118
C   C91       1.0  0.52192  0.50750  0.15197  1.0000 -0.5022612118
C   C92       1.0  0.47808  0.00750  0.34803  1.0000 -0.5022612118
C   C93       1.0  0.65070  0.62410  0.35734  1.0000 -0.4810557837
C   C94       1.0  0.34930  0.12410  0.14266  1.0000 -0.4734390386
C   C95       1.0  0.34930  0.37590  0.64266  1.0000 -0.4810557837
C   C96       1.0  0.65070  0.87590  0.85734  1.0000 -0.4734390386
C   C97       1.0  0.43876  0.08101  0.81567  1.0000 0.112124627
C   C98       1.0  0.56124  0.58101  0.68433  1.0000 0.112124627
C   C99       1.0  0.56124  0.91899  0.18433  1.0000 0.112124627
C   C100      1.0  0.43876  0.41899  0.31567  1.0000 0.112124627
C   C101      1.0  0.12490  0.68758  0.70819  1.0000 0.0968169
C   C102      1.0  0.87510  0.18758  0.79181  1.0000 0.0968169
C   C103      1.0  0.87510  0.31242  0.29181  1.0000 0.0937003426
C   C104      1.0  0.12490  0.81242  0.20819  1.0000 0.0968169
C   C105      1.0  0.31513  0.46824  0.78261  1.0000 0.1195739089
C   C106      1.0  0.68487  0.96824  0.71739  1.0000 0.1195739089
C   C107      1.0  0.68487  0.53176  0.21739  1.0000 0.1195739089
C   C108      1.0  0.31513  0.03176  0.28261  1.0000 0.1195739089
C   C109      1.0  0.52260  0.60568  0.38838  1.0000 0.0968169
C   C110      1.0  0.47740  0.10568  0.11162  1.0000 0.0968169
C   C111      1.0  0.47740  0.39432  0.61162  1.0000 0.0968169
C   C112      1.0  0.52260  0.89432  0.88838  1.0000 0.0968169
C   C113      1.0  0.51011  0.09397  0.83998  1.0000 -0.1588691634
C   C114      1.0  0.48989  0.59397  0.66002  1.0000 -0.1588691634
C   C115      1.0  0.48989  0.90603  0.16002  1.0000 -0.1588691634
C   C116      1.0  0.51011  0.40603  0.33998  1.0000 -0.1588691634
C   C117      1.0  0.12540  0.69848  0.74381  1.0000 -0.1588691634
C   C118      1.0  0.87460  0.19848  0.75619  1.0000 -0.1588691634
C   C119      1.0  0.87460  0.30152  0.25619  1.0000 -0.1588691634
C   C120      1.0  0.12540  0.80152  0.24381  1.0000 -0.1588691634
C   C121      1.0  0.26805  0.45145  0.74758  1.0000 -0.1798190873
C   C122      1.0  0.73195  0.95145  0.75242  1.0000 -0.1798190873
C   C123      1.0  0.73195  0.54855  0.25242  1.0000 -0.1798190873
C   C124      1.0  0.26805  0.04855  0.24758  1.0000 -0.1798190873
C   C125      1.0  0.45540  0.61833  0.38840  1.0000 -0.1522052317
C   C126      1.0  0.54460  0.11833  0.11160  1.0000 -0.1522052317
C   C127      1.0  0.54460  0.38167  0.61160  1.0000 -0.1522052317
C   C128      1.0  0.45540  0.88167  0.88840  1.0000 -0.1522052317
C   C129      1.0  0.52017  0.11703  0.87084  1.0000 -0.1087088351
C   C130      1.0  0.47983  0.61703  0.62916  1.0000 -0.1087088351
C   C131      1.0  0.47983  0.88297  0.12916  1.0000 -0.1087088351
C   C132      1.0  0.52017  0.38297  0.37084  1.0000 -0.1087088351
C   C133      1.0  0.06750  0.71985  0.74545  1.0000 -0.097544734
C   C134      1.0  0.93250  0.21985  0.75455  1.0000 -0.097544734
C   C135      1.0  0.93250  0.28015  0.25455  1.0000 -0.097544734
C   C136      1.0  0.06750  0.78015  0.24545  1.0000 -0.097544734
C   C137      1.0  0.22954  0.41957  0.74776  1.0000 -0.1087088351
C   C138      1.0  0.77046  0.91957  0.75224  1.0000 -0.1087088351
C   C139      1.0  0.77046  0.58043  0.25224  1.0000 -0.1087088351
C   C140      1.0  0.22954  0.08043  0.24776  1.0000 -0.1087088351
C   C141      1.0  0.45260  0.63321  0.42210  1.0000 -0.097544734
C   C142      1.0  0.54740  0.13321  0.07790  1.0000 -0.097544734
C   C143      1.0  0.54740  0.36679  0.57790  1.0000 -0.097544734
C   C144      1.0  0.45260  0.86679  0.92210  1.0000 -0.097544734
C   C145      1.0  0.45838  0.12842  0.87753  1.0000 -0.021393252
C   C146      1.0  0.54162  0.62842  0.62247  1.0000 -0.021393252
C   C147      1.0  0.54162  0.87158  0.12247  1.0000 -0.021393252
C   C148      1.0  0.45838  0.37158  0.37753  1.0000 -0.021393252
C   C149      1.0  0.00800  0.73099  0.71099  1.0000 -0.0295503361
C   C150      1.0  0.99200  0.23099  0.78901  1.0000 -0.0295503361
C   C151      1.0  0.99200  0.26901  0.28901  1.0000 -0.0295503361
C   C152      1.0  0.00800  0.76901  0.21099  1.0000 -0.0295503361
C   C153      1.0  0.23850  0.40344  0.78304  1.0000 -0.0295503361
C   C154      1.0  0.76150  0.90344  0.71696  1.0000 -0.0295503361
C   C155      1.0  0.76150  0.59656  0.21696  1.0000 -0.0295503361
C   C156      1.0  0.23850  0.09656  0.28304  1.0000 -0.0295503361
C   C157      1.0  0.51810  0.63632  0.45573  1.0000 -0.021393252
C   C158      1.0  0.48190  0.13632  0.04427  1.0000 -0.021393252
C   C159      1.0  0.48190  0.36368  0.54427  1.0000 -0.021393252
C   C160      1.0  0.51810  0.86368  0.95573  1.0000 -0.021393252
C   C161      1.0  0.38622  0.11550  0.85369  1.0000 -0.1087088351
C   C162      1.0  0.61378  0.61550  0.64631  1.0000 -0.1087088351
C   C163      1.0  0.61378  0.88450  0.14631  1.0000 -0.1087088351
C   C164      1.0  0.38622  0.38450  0.35369  1.0000 -0.1087088351
C   C165      1.0  0.00575  0.71871  0.67580  1.0000 -0.0914350213
C   C166      1.0  0.99425  0.21871  0.82420  1.0000 -0.0914350213
C   C167      1.0  0.99425  0.28129  0.32420  1.0000 -0.0914350213
C   C168      1.0  0.00575  0.78129  0.17580  1.0000 -0.0914350213
C   C169      1.0  0.28291  0.42000  0.81708  1.0000 -0.097544734
C   C170      1.0  0.71709  0.92000  0.68292  1.0000 -0.097544734
C   C171      1.0  0.71709  0.58000  0.18292  1.0000 -0.097544734
C   C172      1.0  0.28291  0.08000  0.31708  1.0000 -0.097544734
C   C173      1.0  0.58640  0.62268  0.45617  1.0000 -0.097544734
C   C174      1.0  0.41360  0.12268  0.04383  1.0000 -0.097544734
C   C175      1.0  0.41360  0.37732  0.54383  1.0000 -0.097544734
C   C176      1.0  0.58640  0.87732  0.95617  1.0000 -0.097544734
C   C177      1.0  0.37748  0.09167  0.82387  1.0000 -0.1588691634
C   C178      1.0  0.62252  0.59167  0.67613  1.0000 -0.1588691634
C   C179      1.0  0.62252  0.90833  0.17613  1.0000 -0.1588691634
C   C180      1.0  0.37748  0.40833  0.32387  1.0000 -0.1588691634
C   C181      1.0  0.06260  0.69698  0.67482  1.0000 -0.1522052317
C   C182      1.0  0.93740  0.19698  0.82518  1.0000 -0.1522052317
C   C183      1.0  0.93740  0.30302  0.32518  1.0000 -0.1522052317
C   C184      1.0  0.06260  0.80302  0.17482  1.0000 -0.1522052317
C   C185      1.0  0.32016  0.45270  0.81763  1.0000 -0.1588691634
C   C186      1.0  0.67984  0.95270  0.68237  1.0000 -0.1588691634
C   C187      1.0  0.67984  0.54730  0.18237  1.0000 -0.1588691634
C   C188      1.0  0.32016  0.04730  0.31763  1.0000 -0.1588691634
C   C189      1.0  0.58770  0.60724  0.42321  1.0000 -0.1522052317
C   C190      1.0  0.41230  0.10724  0.07679  1.0000 -0.1522052317
C   C191      1.0  0.41230  0.39276  0.57679  1.0000 -0.1522052317
C   C192      1.0  0.58770  0.89276  0.92321  1.0000 -0.1522052317
C   C193      1.0  0.46790  0.15536  0.90966  1.0000 0.5699717693
C   C194      1.0  0.53210  0.65536  0.59034  1.0000 0.5699717693
C   C195      1.0  0.53210  0.84464  0.09034  1.0000 0.5699717693
C   C196      1.0  0.46790  0.34464  0.40966  1.0000 0.5699717693
C   C197      1.0  0.95108  0.75790  0.71220  1.0000 0.5810106925
C   C198      1.0  0.04892  0.25790  0.78780  1.0000 0.5810106925
C   C199      1.0  0.04892  0.24210  0.28780  1.0000 0.5810106925
C   C200      1.0  0.95108  0.74210  0.21220  1.0000 0.5810106925
C   C201      1.0  0.19927  0.36808  0.78323  1.0000 0.5699717693
C   C202      1.0  0.80073  0.86808  0.71677  1.0000 0.5699717693
C   C203      1.0  0.80073  0.63192  0.21677  1.0000 0.5699717693
C   C204      1.0  0.19927  0.13192  0.28323  1.0000 0.5699717693
C   C205      1.0  0.51780  0.65748  0.48978  1.0000 0.5810106925
C   C206      1.0  0.48220  0.15748  0.01022  1.0000 0.5810106925
C   C207      1.0  0.48220  0.34252  0.51022  1.0000 0.5810106925
C   C208      1.0  0.51780  0.84252  0.98978  1.0000 0.5810106925
C   C209      1.0  0.29330  0.92328  0.71675  1.0000 0.2002392955
C   C210      1.0  0.70670  0.42328  0.78325  1.0000 0.2002392955
C   C211      1.0  0.70670  0.07672  0.28325  1.0000 0.2002392955
C   C212      1.0  0.29330  0.57672  0.21675  1.0000 0.2002392955
C   C213      1.0  0.51416  0.65628  0.73825  1.0000 0.2101818092
C   C214      1.0  0.48584  0.15628  0.76175  1.0000 0.2101818092
C   C215      1.0  0.48584  0.34372  0.26175  1.0000 0.2101818092
C   C216      1.0  0.51416  0.84372  0.23825  1.0000 0.2101818092
C   C217      1.0  0.43620  0.65075  0.82977  1.0000 0.2002392955
C   C218      1.0  0.56380  0.15075  0.67023  1.0000 0.2002392955
C   C219      1.0  0.56380  0.34925  0.17023  1.0000 0.2002392955
C   C220      1.0  0.43620  0.84925  0.32977  1.0000 0.2002392955
C   C221      1.0  0.48136  0.59922  0.18463  1.0000 0.2002392955
C   C222      1.0  0.51864  0.09922  0.31537  1.0000 0.2002392955
C   C223      1.0  0.51864  0.40078  0.81537  1.0000 0.2002392955
C   C224      1.0  0.48136  0.90078  0.68463  1.0000 0.2002392955
C   C225      1.0  0.21873  0.93597  0.70441  1.0000 -0.1686597524
C   C226      1.0  0.78127  0.43597  0.79559  1.0000 -0.1686597524
C   C227      1.0  0.78127  0.06403  0.29559  1.0000 -0.1686597524
C   C228      1.0  0.21873  0.56403  0.20441  1.0000 -0.1686597524
C   C229      1.0  0.51476  0.68354  0.71222  1.0000 -0.1686597524
C   C230      1.0  0.48524  0.18354  0.78778  1.0000 -0.1686597524
C   C231      1.0  0.48524  0.31646  0.28778  1.0000 -0.1686597524
C   C232      1.0  0.51476  0.81646  0.21222  1.0000 -0.1686597524
C   C233      1.0  0.47720  0.64433  0.86926  1.0000 -0.1686597524
C   C234      1.0  0.52280  0.14433  0.63074  1.0000 -0.1686597524
C   C235      1.0  0.52280  0.35567  0.13074  1.0000 -0.1686597524
C   C236      1.0  0.47720  0.85567  0.36926  1.0000 -0.1686597524
C   C237      1.0  0.53004  0.62966  0.19034  1.0000 -0.1686597524
C   C238      1.0  0.46996  0.12966  0.30966  1.0000 -0.1686597524
C   C239      1.0  0.46996  0.37034  0.80966  1.0000 -0.1686597524
C   C240      1.0  0.53004  0.87034  0.69034  1.0000 -0.1686597524
C   C241      1.0  0.21969  0.97142  0.69207  1.0000 0.1293254323
C   C242      1.0  0.78031  0.47142  0.80793  1.0000 0.1293254323
C   C243      1.0  0.78031  0.02858  0.30793  1.0000 0.1407168886
C   C244      1.0  0.21969  0.52858  0.19207  1.0000 0.1407168886
C   C245      1.0  0.44441  0.68346  0.68252  1.0000 0.1486989542
C   C246      1.0  0.55559  0.18346  0.81748  1.0000 0.1486989542
C   C247      1.0  0.55559  0.31654  0.31748  1.0000 0.1486989542
C   C248      1.0  0.44441  0.81654  0.18252  1.0000 0.1486989542
C   C249      1.0  0.51230  0.61076  0.87228  1.0000 0.1486989542
C   C250      1.0  0.48770  0.11076  0.62772  1.0000 0.1486989542
C   C251      1.0  0.48770  0.38924  0.12772  1.0000 0.1486989542
C   C252      1.0  0.51230  0.88924  0.37228  1.0000 0.1486989542
C   C253      1.0  0.58375  0.62750  0.22807  1.0000 0.1615165874
C   C254      1.0  0.41625  0.12750  0.27193  1.0000 0.1615165874
C   C255      1.0  0.41625  0.37250  0.77193  1.0000 0.1615165874
C   C256      1.0  0.58375  0.87250  0.72807  1.0000 0.1615165874
C   C257      1.0  0.32570  0.88596  0.73176  1.0000 -0.4810557837
C   C258      1.0  0.67430  0.38596  0.76824  1.0000 -0.4810557837
C   C259      1.0  0.67430  0.11404  0.26824  1.0000 -0.4810557837
C   C260      1.0  0.32570  0.61404  0.23176  1.0000 -0.4810557837
C   C261      1.0  0.57710  0.64428  0.77566  1.0000 -0.5022612118
C   C262      1.0  0.42290  0.14428  0.72434  1.0000 -0.5022612118
C   C263      1.0  0.42290  0.35572  0.22434  1.0000 -0.5022612118
C   C264      1.0  0.57710  0.85572  0.27566  1.0000 -0.5022612118
C   C265      1.0  0.38920  0.68337  0.80968  1.0000 -0.4891065293
C   C266      1.0  0.61080  0.18337  0.69032  1.0000 -0.4891065293
C   C267      1.0  0.61080  0.31663  0.19032  1.0000 -0.4891065293
C   C268      1.0  0.38920  0.81663  0.30968  1.0000 -0.4891065293
C   C269      1.0  0.41301  0.58902  0.15004  1.0000 -0.4810557837
C   C270      1.0  0.58699  0.08902  0.34996  1.0000 -0.4810557837
C   C271      1.0  0.58699  0.41098  0.84996  1.0000 -0.4810557837
C   C272      1.0  0.41301  0.91098  0.65004  1.0000 -0.4810557837
C   C273      1.0  0.15730  0.99922  0.67573  1.0000 -0.4734390386
C   C274      1.0  0.84270  0.49922  0.82427  1.0000 -0.4734390386
C   C275      1.0  0.84270  0.00078  0.32427  1.0000 -0.4734390386
C   C276      1.0  0.15730  0.50078  0.17573  1.0000 -0.4734390386
C   C277      1.0  0.40971  0.70668  0.64619  1.0000 -0.5022612118
C   C278      1.0  0.59029  0.20668  0.85381  1.0000 -0.5022612118
C   C279      1.0  0.59029  0.29332  0.35381  1.0000 -0.5022612118
C   C280      1.0  0.40971  0.79332  0.14619  1.0000 -0.5022612118
C   C281      1.0  0.56250  0.58924  0.90665  1.0000 -0.4734390386
C   C282      1.0  0.43750  0.08924  0.59335  1.0000 -0.4734390386
C   C283      1.0  0.43750  0.41076  0.09335  1.0000 -0.4734390386
C   C284      1.0  0.56250  0.91076  0.40665  1.0000 -0.4734390386
C   C285      1.0  0.64618  0.65273  0.25101  1.0000 -0.5022612118
C   C286      1.0  0.35382  0.15273  0.24899  1.0000 -0.5022612118
C   C287      1.0  0.35382  0.34727  0.74899  1.0000 -0.5022612118
C   C288      1.0  0.64618  0.84727  0.75101  1.0000 -0.5022612118
C   C289      1.0  0.15443  0.91548  0.70566  1.0000 0.0968169
C   C290      1.0  0.84557  0.41548  0.79434  1.0000 0.0968169
C   C291      1.0  0.84557  0.08452  0.29434  1.0000 0.0968169
C   C292      1.0  0.15443  0.58452  0.20566  1.0000 0.0968169
C   C293      1.0  0.58000  0.70623  0.71449  1.0000 0.1195739089
C   C294      1.0  0.42000  0.20623  0.78551  1.0000 0.1195739089
C   C295      1.0  0.42000  0.29377  0.28551  1.0000 0.1195739089
C   C296      1.0  0.58000  0.79377  0.21449  1.0000 0.1195739089
C   C297      1.0  0.48520  0.66942  0.90192  1.0000 0.0937003426
C   C298      1.0  0.51480  0.16942  0.59808  1.0000 0.0937003426
C   C299      1.0  0.51480  0.33058  0.09808  1.0000 0.0937003426
C   C300      1.0  0.48520  0.83058  0.40192  1.0000 0.0937003426
C   C301      1.0  0.52468  0.65822  0.16164  1.0000 0.112124627
C   C302      1.0  0.47532  0.15822  0.33836  1.0000 0.112124627
C   C303      1.0  0.47532  0.34178  0.83836  1.0000 0.112124627
C   C304      1.0  0.52468  0.84178  0.66164  1.0000 0.112124627
C   C305      1.0  0.08660  0.91130  0.67326  1.0000 -0.1522052317
C   C306      1.0  0.91340  0.41130  0.82674  1.0000 -0.1522052317
C   C307      1.0  0.91340  0.08870  0.32674  1.0000 -0.1522052317
C   C308      1.0  0.08660  0.58870  0.17326  1.0000 -0.1522052317
C   C309      1.0  0.59723  0.70944  0.68203  1.0000 -0.1444923587
C   C310      1.0  0.40277  0.20944  0.81797  1.0000 -0.1444923587
C   C311      1.0  0.40277  0.29056  0.31797  1.0000 -0.1444923587
C   C312      1.0  0.59723  0.79056  0.18203  1.0000 -0.1444923587
C   C313      1.0  0.42250  0.68458  0.90445  1.0000 -0.1522052317
C   C314      1.0  0.57750  0.18458  0.59555  1.0000 -0.1522052317
C   C315      1.0  0.57750  0.31542  0.09555  1.0000 -0.1522052317
C   C316      1.0  0.42250  0.81542  0.40445  1.0000 -0.1522052317
C   C317      1.0  0.45717  0.67651  0.14062  1.0000 -0.1588691634
C   C318      1.0  0.54283  0.17651  0.35938  1.0000 -0.1588691634
C   C319      1.0  0.54283  0.32349  0.85938  1.0000 -0.1588691634
C   C320      1.0  0.45717  0.82349  0.64062  1.0000 -0.1588691634
C   C321      1.0  0.02890  0.89059  0.67496  1.0000 -0.097544734
C   C322      1.0  0.97110  0.39059  0.82504  1.0000 -0.097544734
C   C323      1.0  0.97110  0.10941  0.32504  1.0000 -0.097544734
C   C324      1.0  0.02890  0.60941  0.17496  1.0000 -0.097544734
C   C325      1.0  0.65723  0.73045  0.68339  1.0000 -0.0914350213
C   C326      1.0  0.34277  0.23045  0.81661  1.0000 -0.0914350213
C   C327      1.0  0.34277  0.26955  0.31661  1.0000 -0.0914350213
C   C328      1.0  0.65723  0.76955  0.18339  1.0000 -0.0914350213
C   C329      1.0  0.42890  0.71035  0.93329  1.0000 -0.0914350213
C   C330      1.0  0.57110  0.21035  0.56671  1.0000 -0.0914350213
C   C331      1.0  0.57110  0.28965  0.06671  1.0000 -0.0914350213
C   C332      1.0  0.42890  0.78965  0.43329  1.0000 -0.0914350213
C   C333      1.0  0.45501  0.70450  0.11499  1.0000 -0.1087088351
C   C334      1.0  0.54499  0.20450  0.38501  1.0000 -0.1087088351
C   C335      1.0  0.54499  0.29550  0.88501  1.0000 -0.1087088351
C   C336      1.0  0.45501  0.79550  0.61499  1.0000 -0.1087088351
C   C337      1.0  0.03583  0.87483  0.70972  1.0000 -0.0295503361
C   C338      1.0  0.96417  0.37483  0.79028  1.0000 -0.021393252
C   C339      1.0  0.96417  0.12517  0.29028  1.0000 -0.021393252
C   C340      1.0  0.03583  0.62517  0.20972  1.0000 -0.0295503361
C   C341      1.0  0.70265  0.74807  0.71676  1.0000 -0.0295503361
C   C342      1.0  0.29735  0.24807  0.78324  1.0000 -0.0295503361
C   C343      1.0  0.29735  0.25193  0.28324  1.0000 -0.0295503361
C   C344      1.0  0.70265  0.75193  0.21676  1.0000 -0.0295503361
C   C345      1.0  0.49930  0.72015  0.96003  1.0000 -0.0295503361
C   C346      1.0  0.50070  0.22015  0.53997  1.0000 -0.0295503361
C   C347      1.0  0.50070  0.27985  0.03997  1.0000 -0.0295503361
C   C348      1.0  0.49930  0.77985  0.46003  1.0000 -0.0295503361
C   C349      1.0  0.51983  0.71462  0.11061  1.0000 -0.0295503361
C   C350      1.0  0.48017  0.21462  0.38939  1.0000 -0.0295503361
C   C351      1.0  0.48017  0.28538  0.88939  1.0000 -0.0295503361
C   C352      1.0  0.51983  0.78538  0.61061  1.0000 -0.0295503361
C   C353      1.0  0.10150  0.87928  0.74229  1.0000 -0.097544734
C   C354      1.0  0.89850  0.37928  0.75771  1.0000 -0.097544734
C   C355      1.0  0.89850  0.12072  0.25771  1.0000 -0.097544734
C   C356      1.0  0.10150  0.62072  0.24229  1.0000 -0.097544734
C   C357      1.0  0.68790  0.74487  0.75002  1.0000 -0.1087088351
C   C358      1.0  0.31210  0.24487  0.74998  1.0000 -0.1087088351
C   C359      1.0  0.31210  0.25513  0.24998  1.0000 -0.1087088351
C   C360      1.0  0.68790  0.75513  0.25002  1.0000 -0.1087088351
C   C361      1.0  0.56370  0.70431  0.95875  1.0000 -0.0914350213
C   C362      1.0  0.43630  0.20431  0.54125  1.0000 -0.0914350213
C   C363      1.0  0.43630  0.29569  0.04125  1.0000 -0.0914350213
C   C364      1.0  0.56370  0.79569  0.45875  1.0000 -0.0914350213
C   C365      1.0  0.58757  0.69605  0.13095  1.0000 -0.0914350213
C   C366      1.0  0.41243  0.19605  0.36905  1.0000 -0.0914350213
C   C367      1.0  0.41243  0.30395  0.86905  1.0000 -0.0914350213
C   C368      1.0  0.58757  0.80395  0.63095  1.0000 -0.0914350213
C   C369      1.0  0.16100  0.89899  0.73995  1.0000 -0.1522052317
C   C370      1.0  0.83900  0.39899  0.76005  1.0000 -0.1522052317
C   C371      1.0  0.83900  0.10101  0.26005  1.0000 -0.1522052317
C   C372      1.0  0.16100  0.60101  0.23995  1.0000 -0.1522052317
C   C373      1.0  0.62684  0.72397  0.74850  1.0000 -0.1588691634
C   C374      1.0  0.37316  0.22397  0.75150  1.0000 -0.1588691634
C   C375      1.0  0.37316  0.27603  0.25150  1.0000 -0.1588691634
C   C376      1.0  0.62684  0.77603  0.24850  1.0000 -0.1588691634
C   C377      1.0  0.55470  0.67931  0.92918  1.0000 -0.1588691634
C   C378      1.0  0.44530  0.17931  0.57082  1.0000 -0.1588691634
C   C379      1.0  0.44530  0.32069  0.07082  1.0000 -0.1588691634
C   C380      1.0  0.55470  0.82069  0.42918  1.0000 -0.1588691634
C   C381      1.0  0.58965  0.66789  0.15602  1.0000 -0.1522052317
C   C382      1.0  0.41035  0.16789  0.34398  1.0000 -0.1522052317
C   C383      1.0  0.41035  0.33211  0.84398  1.0000 -0.1522052317
C   C384      1.0  0.58965  0.83211  0.65602  1.0000 -0.1522052317
C   C385      1.0  0.97310  0.85140  0.71110  1.0000 0.5810106925
C   C386      1.0  0.02690  0.35140  0.78890  1.0000 0.5810106925
C   C387      1.0  0.02690  0.14860  0.28890  1.0000 0.5810106925
C   C388      1.0  0.97310  0.64860  0.21110  1.0000 0.5810106925
C   C389      1.0  0.76645  0.77114  0.71732  1.0000 0.5810106925
C   C390      1.0  0.23355  0.27114  0.78268  1.0000 0.5810106925
C   C391      1.0  0.23355  0.22886  0.28268  1.0000 0.5810106925
C   C392      1.0  0.76645  0.72886  0.21732  1.0000 0.5810106925
C   C393      1.0  0.50720  0.74854  0.98995  1.0000 0.5810106925
C   C394      1.0  0.49280  0.24854  0.51005  1.0000 0.5810106925
C   C395      1.0  0.49280  0.25146  0.01005  1.0000 0.5810106925
C   C396      1.0  0.50720  0.75146  0.48995  1.0000 0.5810106925
C   C397      1.0  0.51893  0.74607  0.08472  1.0000 0.5699717693
C   C398      1.0  0.48107  0.24607  0.41528  1.0000 0.5699717693
C   C399      1.0  0.48107  0.25393  0.91528  1.0000 0.5699717693
C   C400      1.0  0.51893  0.75393  0.58472  1.0000 0.5699717693
N   N1        1.0  0.37552  0.02745  0.72652  1.0000 0.0241187263
N   N2        1.0  0.62448  0.52745  0.77348  1.0000 0.0241187263
N   N3        1.0  0.62448  0.97255  0.27348  1.0000 0.0241187263
N   N4        1.0  0.37552  0.47255  0.22652  1.0000 0.0241187263
N   N5        1.0  0.28008  0.65105  0.68903  1.0000 0.0693925211
N   N6        1.0  0.71992  0.15105  0.81097  1.0000 0.0693925211
N   N7        1.0  0.71992  0.34895  0.31097  1.0000 0.0693925211
N   N8        1.0  0.28008  0.84895  0.18903  1.0000 0.0693925211
N   N9        1.0  0.44751  0.54320  0.80059  1.0000 0.0412891951
N   N10       1.0  0.55249  0.04320  0.69941  1.0000 0.0412891951
N   N11       1.0  0.55249  0.45680  0.19941  1.0000 0.0412891951
N   N12       1.0  0.44751  0.95680  0.30059  1.0000 0.0412891951
N   N13       1.0  0.56351  0.58482  0.30501  1.0000 0.075365699
N   N14       1.0  0.43649  0.08482  0.19499  1.0000 0.0693925211
N   N15       1.0  0.43649  0.41518  0.69499  1.0000 0.0693925211
N   N16       1.0  0.56351  0.91518  0.80501  1.0000 0.0693925211
N   N17       1.0  0.44508  0.01144  0.74593  1.0000 -0.2794402399
N   N18       1.0  0.55492  0.51144  0.75407  1.0000 -0.2794402399
N   N19       1.0  0.55492  0.98856  0.25407  1.0000 -0.2794402399
N   N20       1.0  0.44508  0.48856  0.24593  1.0000 -0.2794402399
N   N21       1.0  0.28859  0.62974  0.72021  1.0000 -0.2794402399
N   N22       1.0  0.71141  0.12974  0.77979  1.0000 -0.2794402399
N   N23       1.0  0.71141  0.37026  0.27979  1.0000 -0.2794402399
N   N24       1.0  0.28859  0.87026  0.22021  1.0000 -0.2794402399
N   N25       1.0  0.39493  0.55469  0.76572  1.0000 -0.2611775605
N   N26       1.0  0.60507  0.05469  0.73428  1.0000 -0.2611775605
N   N27       1.0  0.60507  0.44531  0.23428  1.0000 -0.2611775605
N   N28       1.0  0.39493  0.94531  0.26572  1.0000 -0.2611775605
N   N29       1.0  0.49744  0.56591  0.29386  1.0000 -0.2662592091
N   N30       1.0  0.50256  0.06591  0.20614  1.0000 -0.2662592091
N   N31       1.0  0.50256  0.43409  0.70614  1.0000 -0.2662592091
N   N32       1.0  0.49744  0.93409  0.79386  1.0000 -0.2662592091
N   N33       1.0  0.29097  0.97841  0.69694  1.0000 0.0693925211
N   N34       1.0  0.70903  0.47841  0.80306  1.0000 0.0693925211
N   N35       1.0  0.70903  0.02159  0.30306  1.0000 0.0693925211
N   N36       1.0  0.29097  0.52159  0.19694  1.0000 0.0693925211
N   N37       1.0  0.40465  0.65703  0.69125  1.0000 0.0693925211
N   N38       1.0  0.59535  0.15703  0.80875  1.0000 0.0693925211
N   N39       1.0  0.59535  0.34297  0.30875  1.0000 0.0693925211
N   N40       1.0  0.40465  0.84297  0.19125  1.0000 0.0693925211
N   N41       1.0  0.49067  0.59899  0.83542  1.0000 0.0693925211
N   N42       1.0  0.50933  0.09899  0.66458  1.0000 0.0693925211
N   N43       1.0  0.50933  0.40101  0.16458  1.0000 0.0693925211
N   N44       1.0  0.49067  0.90101  0.33542  1.0000 0.0693925211
N   N45       1.0  0.56838  0.59636  0.24318  1.0000 0.0412891951
N   N46       1.0  0.43162  0.09636  0.25682  1.0000 0.0412891951
N   N47       1.0  0.43162  0.40364  0.75682  1.0000 0.0412891951
N   N48       1.0  0.56838  0.90364  0.74318  1.0000 0.0412891951
N   N49       1.0  0.33725  0.94928  0.71213  1.0000 -0.2611775605
N   N50       1.0  0.66275  0.44928  0.78787  1.0000 -0.2611775605
N   N51       1.0  0.66275  0.05072  0.28787  1.0000 -0.2611775605
N   N52       1.0  0.33725  0.55072  0.21213  1.0000 -0.2611775605
N   N53       1.0  0.44698  0.63987  0.72494  1.0000 -0.2662592091
N   N54       1.0  0.55302  0.13987  0.77506  1.0000 -0.2662592091
N   N55       1.0  0.55302  0.36013  0.27506  1.0000 -0.2662592091
N   N56       1.0  0.44698  0.86013  0.22494  1.0000 -0.2662592091
N   N57       1.0  0.44359  0.62300  0.80864  1.0000 -0.2611775605
N   N58       1.0  0.55641  0.12300  0.69136  1.0000 -0.2611775605
N   N59       1.0  0.55641  0.37700  0.19136  1.0000 -0.2611775605
N   N60       1.0  0.44359  0.87700  0.30864  1.0000 -0.2611775605
N   N61       1.0  0.50602  0.57870  0.21705  1.0000 -0.2871153959
N   N62       1.0  0.49398  0.07870  0.28295  1.0000 -0.2871153959
N   N63       1.0  0.49398  0.42130  0.78295  1.0000 -0.2871153959
N   N64       1.0  0.50602  0.92130  0.71705  1.0000 -0.2871153959
O   O1        1.0  0.40715  0.16934  0.90879  1.0000 -0.5194333733
O   O2        1.0  0.59285  0.66934  0.59121  1.0000 -0.5194333733
O   O3        1.0  0.59285  0.83066  0.09121  1.0000 -0.5194333733
O   O4        1.0  0.40715  0.33066  0.40879  1.0000 -0.5194333733
O   O5        1.0  0.95299  0.76633  0.74557  1.0000 -0.5194333733
O   O6        1.0  0.04701  0.26633  0.75443  1.0000 -0.5194333733
O   O7        1.0  0.04701  0.23367  0.25443  1.0000 -0.5194333733
O   O8        1.0  0.95299  0.73367  0.24557  1.0000 -0.5194333733
O   O9        1.0  0.15159  0.35645  0.75080  1.0000 -0.5103844263
O   O10       1.0  0.84841  0.85645  0.74920  1.0000 -0.5103844263
O   O11       1.0  0.84841  0.64355  0.24920  1.0000 -0.5103844263
O   O12       1.0  0.15159  0.14355  0.25080  1.0000 -0.5103844263
O   O13       1.0  0.58254  0.66614  0.51577  1.0000 -0.5194333733
O   O14       1.0  0.41746  0.16614  0.98423  1.0000 -0.5194333733
O   O15       1.0  0.41746  0.33386  0.48423  1.0000 -0.5194333733
O   O16       1.0  0.58254  0.83386  0.01577  1.0000 -0.5194333733
O   O17       1.0  0.53412  0.16259  0.93340  1.0000 -0.5103844263
O   O18       1.0  0.46588  0.66259  0.56660  1.0000 -0.5103844263
O   O19       1.0  0.46588  0.83741  0.06660  1.0000 -0.5103844263
O   O20       1.0  0.53412  0.33741  0.43340  1.0000 -0.5103844263
O   O21       1.0  0.90751  0.77137  0.68011  1.0000 -0.5103844263
O   O22       1.0  0.09249  0.27137  0.81989  1.0000 -0.5103844263
O   O23       1.0  0.09249  0.22863  0.31989  1.0000 -0.5103844263
O   O24       1.0  0.90751  0.72863  0.18011  1.0000 -0.5103844263
O   O25       1.0  0.21788  0.35267  0.81567  1.0000 -0.5103844263
O   O26       1.0  0.78212  0.85267  0.68433  1.0000 -0.5103844263
O   O27       1.0  0.78212  0.64733  0.18433  1.0000 -0.5103844263
O   O28       1.0  0.21788  0.14733  0.31567  1.0000 -0.5103844263
O   O29       1.0  0.45360  0.66600  0.48908  1.0000 -0.5194333733
O   O30       1.0  0.54640  0.16600  0.01092  1.0000 -0.5194333733
O   O31       1.0  0.54640  0.33400  0.51092  1.0000 -0.5194333733
O   O32       1.0  0.45360  0.83400  0.98908  1.0000 -0.5194333733
O   O33       1.0  0.91724  0.84548  0.67948  1.0000 -0.5103844263
O   O34       1.0  0.08276  0.34548  0.82052  1.0000 -0.5103844263
O   O35       1.0  0.08276  0.15452  0.32052  1.0000 -0.5103844263
O   O36       1.0  0.91724  0.65452  0.17948  1.0000 -0.5103844263
O   O37       1.0  0.76878  0.77709  0.68474  1.0000 -0.5194333733
O   O38       1.0  0.23122  0.27709  0.81526  1.0000 -0.5194333733
O   O39       1.0  0.23122  0.22291  0.31526  1.0000 -0.5194333733
O   O40       1.0  0.76878  0.72291  0.18474  1.0000 -0.5194333733
O   O41       1.0  0.44640  0.75978  0.99155  1.0000 -0.5194333733
O   O42       1.0  0.55360  0.25978  0.50845  1.0000 -0.5194333733
O   O43       1.0  0.55360  0.24022  0.00845  1.0000 -0.5194333733
O   O44       1.0  0.44640  0.74022  0.49155  1.0000 -0.5194333733
O   O45       1.0  0.58129  0.75493  0.08420  1.0000 -0.5194333733
O   O46       1.0  0.41871  0.25493  0.41580  1.0000 -0.5194333733
O   O47       1.0  0.41871  0.24507  0.91580  1.0000 -0.5194333733
O   O48       1.0  0.58129  0.74507  0.58420  1.0000 -0.5194333733
O   O49       1.0  0.98146  0.83921  0.74395  1.0000 -0.5194333733
O   O50       1.0  0.01854  0.33921  0.75605  1.0000 -0.5194333733
O   O51       1.0  0.01854  0.16079  0.25605  1.0000 -0.5194333733
O   O52       1.0  0.98146  0.66079  0.24395  1.0000 -0.5194333733
O   O53       1.0  0.81405  0.78286  0.74982  1.0000 -0.5194333733
O   O54       1.0  0.18595  0.28286  0.75018  1.0000 -0.5194333733
O   O55       1.0  0.18595  0.21714  0.25018  1.0000 -0.5194333733
O   O56       1.0  0.81405  0.71714  0.24982  1.0000 -0.5194333733
O   O57       1.0  0.57295  0.75968  0.01058  1.0000 -0.5103844263
O   O58       1.0  0.42705  0.25968  0.48942  1.0000 -0.5103844263
O   O59       1.0  0.42705  0.24032  0.98942  1.0000 -0.5103844263
O   O60       1.0  0.57295  0.74032  0.51058  1.0000 -0.5103844263
O   O61       1.0  0.45676  0.76145  0.06615  1.0000 -0.5103844263
O   O62       1.0  0.54324  0.26145  0.43385  1.0000 -0.5103844263
O   O63       1.0  0.54324  0.23855  0.93385  1.0000 -0.5103844263
O   O64       1.0  0.45676  0.73855  0.56615  1.0000 -0.5103844263
