# DDEC6 charges by PACMAN v1.1 (https://github.com/mtap-research/PACMAN-charge/)
data_2013[Tb][msw]3[ASR]1
_chemical_formula_sum              "Tb8 H64 C136 O72"
_cell_length_a       14.6702
_cell_length_b       16.3686
_cell_length_c       16.5747
_cell_angle_alpha    90
_cell_angle_beta     90
_cell_angle_gamma    90

_symmetry_space_group_name_H-M    "P 1"
_symmetry_Int_Tables_number       1

loop_
  _symmetry_equiv_pos_as_xyz
  'x, y, z'

loop_
  _atom_site_type_symbol
  _atom_site_label
  _atom_site_symmetry_multiplicity
  _atom_site_fract_x
  _atom_site_fract_y
  _atom_site_fract_z
  _atom_site_occupancy
  _atom_site_charge
Tb  Tb1       1.0  0.66391  0.99973  0.49898  1.0000 2.0689221523
Tb  Tb2       1.0  0.33524  0.00027  0.99896  1.0000 2.0689221523
Tb  Tb3       1.0  0.16420  0.49968  0.50054  1.0000 2.0689221523
Tb  Tb4       1.0  0.83557  0.50034  0.00053  1.0000 2.0689221523
Tb  Tb5       1.0  0.50085  0.82840  0.74966  1.0000 2.0773219368
Tb  Tb6       1.0  0.49958  0.17154  0.24971  1.0000 2.0773219368
Tb  Tb7       1.0  0.99925  0.32846  0.75045  1.0000 2.0773219368
Tb  Tb8       1.0  0.00050  0.67155  0.25049  1.0000 2.0773219368
H   H1        1.0  0.07703  0.33263  0.26711  1.0000 0.0895336222
H   H2        1.0  0.92292  0.66737  0.76714  1.0000 0.0895336222
H   H3        1.0  0.57700  0.16738  0.73284  1.0000 0.0895336222
H   H4        1.0  0.57778  0.83195  0.26718  1.0000 0.079194829
H   H5        1.0  0.08280  0.22345  0.27923  1.0000 0.0895336222
H   H6        1.0  0.91710  0.77654  0.77929  1.0000 0.0895336222
H   H7        1.0  0.58280  0.27656  0.72076  1.0000 0.0895336222
H   H8        1.0  0.58269  0.72290  0.27869  1.0000 0.0895336222
H   H9        1.0  0.87498  0.23115  0.57105  1.0000 0.1400936435
H   H10       1.0  0.12509  0.76887  0.07112  1.0000 0.1400936435
H   H11       1.0  0.12563  0.23430  0.92788  1.0000 0.1400936435
H   H12       1.0  0.87439  0.76572  0.42794  1.0000 0.1400936435
H   H13       1.0  0.37500  0.73074  0.57043  1.0000 0.1400936435
H   H14       1.0  0.62557  0.26571  0.07210  1.0000 0.1400936435
H   H15       1.0  0.62584  0.73458  0.92742  1.0000 0.1400936435
H   H16       1.0  0.37488  0.26886  0.42894  1.0000 0.1400936435
H   H17       1.0  0.02082  0.36309  0.38469  1.0000 0.1400936435
H   H18       1.0  0.97912  0.63691  0.88479  1.0000 0.1400936435
H   H19       1.0  0.97533  0.36066  0.11509  1.0000 0.1400936435
H   H20       1.0  0.02460  0.63938  0.61516  1.0000 0.1400936435
H   H21       1.0  0.52107  0.86265  0.38424  1.0000 0.1400936435
H   H22       1.0  0.47537  0.13932  0.88486  1.0000 0.1400936435
H   H23       1.0  0.47586  0.86117  0.11471  1.0000 0.1400936435
H   H24       1.0  0.52085  0.13695  0.61525  1.0000 0.1400936435
H   H25       1.0  0.83742  0.16358  0.32018  1.0000 0.1571131176
H   H26       1.0  0.16249  0.83644  0.82026  1.0000 0.1571131176
H   H27       1.0  0.15462  0.15823  0.17599  1.0000 0.1323346286
H   H28       1.0  0.84532  0.84183  0.67606  1.0000 0.1323346286
H   H29       1.0  0.33726  0.66355  0.31951  1.0000 0.1571131176
H   H30       1.0  0.65461  0.34177  0.82395  1.0000 0.1323346286
H   H31       1.0  0.65435  0.65823  0.17558  1.0000 0.1323346286
H   H32       1.0  0.33746  0.33648  0.67978  1.0000 0.1571131176
H   H33       1.0  0.63735  0.96651  0.86358  1.0000 0.1400936435
H   H34       1.0  0.36297  0.03321  0.36314  1.0000 0.1400936435
H   H35       1.0  0.36876  0.97294  0.63615  1.0000 0.1400936435
H   H36       1.0  0.63160  0.02763  0.13575  1.0000 0.1400936435
H   H37       1.0  0.13135  0.47277  0.86374  1.0000 0.1400936435
H   H38       1.0  0.86870  0.52720  0.36362  1.0000 0.1400936435
H   H39       1.0  0.86278  0.46649  0.63647  1.0000 0.1400936435
H   H40       1.0  0.13725  0.53349  0.13633  1.0000 0.1400936435
H   H41       1.0  0.83590  0.15343  0.92630  1.0000 0.1244446258
H   H42       1.0  0.16389  0.84677  0.42605  1.0000 0.1244446258
H   H43       1.0  0.17135  0.15914  0.56792  1.0000 0.1473218757
H   H44       1.0  0.82824  0.84083  0.06741  1.0000 0.1473218757
H   H45       1.0  0.32848  0.65930  0.93197  1.0000 0.1473218757
H   H46       1.0  0.67147  0.34086  0.43187  1.0000 0.1473218757
H   H47       1.0  0.66389  0.65307  0.57359  1.0000 0.1244446258
H   H48       1.0  0.33602  0.34673  0.07349  1.0000 0.1244446258
H   H49       1.0  0.75164  0.12361  0.67855  1.0000 0.1400936435
H   H50       1.0  0.24992  0.87499  0.17853  1.0000 0.1473218757
H   H51       1.0  0.24449  0.12551  0.81967  1.0000 0.1473218757
H   H52       1.0  0.75678  0.87563  0.31932  1.0000 0.1400936435
H   H53       1.0  0.25549  0.62545  0.68024  1.0000 0.1473218757
H   H54       1.0  0.74439  0.37453  0.18012  1.0000 0.1473218757
H   H55       1.0  0.74827  0.62366  0.82135  1.0000 0.1400936435
H   H56       1.0  0.25157  0.37638  0.32124  1.0000 0.1400936435
H   H57       1.0  0.67678  0.07727  0.02517  1.0000 0.0895336222
H   H58       1.0  0.32288  0.92291  0.52527  1.0000 0.0895336222
H   H59       1.0  0.82363  0.57687  0.47474  1.0000 0.0895336222
H   H60       1.0  0.17653  0.42308  0.97458  1.0000 0.0895336222
H   H61       1.0  0.79689  0.06088  0.02219  1.0000 0.0895336222
H   H62       1.0  0.20289  0.93950  0.52201  1.0000 0.0895336222
H   H63       1.0  0.70339  0.56070  0.47750  1.0000 0.0895336222
H   H64       1.0  0.29675  0.43926  0.97745  1.0000 0.0895336222
C   C1        1.0  0.04944  0.27352  0.24514  1.0000 0.0180588462
C   C2        1.0  0.95046  0.72650  0.74516  1.0000 0.0180588462
C   C3        1.0  0.54942  0.22649  0.75484  1.0000 0.0180588462
C   C4        1.0  0.54939  0.77316  0.24473  1.0000 0.0180588462
C   C5        1.0  0.78980  0.12087  0.47010  1.0000 0.5737252951
C   C6        1.0  0.20982  0.87912  0.97008  1.0000 0.5737252951
C   C7        1.0  0.20866  0.12172  0.02840  1.0000 0.5771471999
C   C8        1.0  0.79096  0.87831  0.52837  1.0000 0.5771471999
C   C9        1.0  0.28964  0.62109  0.47032  1.0000 0.5737252951
C   C10       1.0  0.70870  0.37839  0.97150  1.0000 0.5771471999
C   C11       1.0  0.70844  0.62149  0.02875  1.0000 0.5771471999
C   C12       1.0  0.28997  0.37906  0.52980  1.0000 0.5737252951
C   C13       1.0  0.99253  0.35711  0.54675  1.0000 0.6859922907
C   C14       1.0  0.00747  0.64275  0.04680  1.0000 0.6859922907
C   C15       1.0  0.00566  0.35668  0.95392  1.0000 0.6710146046
C   C16       1.0  0.99430  0.64348  0.45394  1.0000 0.6710146046
C   C17       1.0  0.49334  0.85664  0.54579  1.0000 0.6710146046
C   C18       1.0  0.50583  0.14348  0.04607  1.0000 0.6710146046
C   C19       1.0  0.50664  0.85699  0.95305  1.0000 0.6799843094
C   C20       1.0  0.49264  0.14273  0.45322  1.0000 0.6859922907
C   C21       1.0  0.85051  0.19062  0.44748  1.0000 0.0038014217
C   C22       1.0  0.14934  0.80926  0.94753  1.0000 0.0038014217
C   C23       1.0  0.14516  0.18899  0.05023  1.0000 -0.0183459493
C   C24       1.0  0.85468  0.81116  0.55027  1.0000 -0.0183459493
C   C25       1.0  0.35026  0.69067  0.44697  1.0000 0.0038014217
C   C26       1.0  0.64520  0.31112  0.94971  1.0000 -0.0183459493
C   C27       1.0  0.64497  0.68893  0.04990  1.0000 -0.0183459493
C   C28       1.0  0.35061  0.30930  0.55246  1.0000 0.0038014217
C   C29       1.0  0.89017  0.24092  0.50692  1.0000 -0.0692231881
C   C30       1.0  0.10974  0.75901  0.00703  1.0000 -0.0692231881
C   C31       1.0  0.10811  0.24089  0.99186  1.0000 -0.0692231881
C   C32       1.0  0.89178  0.75920  0.49195  1.0000 -0.0692231881
C   C33       1.0  0.39023  0.74064  0.50634  1.0000 -0.0804861718
C   C34       1.0  0.60816  0.25920  0.00808  1.0000 -0.0692231881
C   C35       1.0  0.60834  0.74106  0.99141  1.0000 -0.0692231881
C   C36       1.0  0.39024  0.25900  0.49302  1.0000 -0.0692231881
C   C37       1.0  0.95069  0.30324  0.48333  1.0000 -0.0183459493
C   C38       1.0  0.04922  0.69670  0.98342  1.0000 -0.0183459493
C   C39       1.0  0.04652  0.30186  0.01634  1.0000 -0.0408195703
C   C40       1.0  0.95338  0.69822  0.51639  1.0000 -0.0408195703
C   C41       1.0  0.45139  0.80253  0.48262  1.0000 -0.0183459493
C   C42       1.0  0.54664  0.19818  0.98362  1.0000 -0.0408195703
C   C43       1.0  0.54738  0.80250  0.01578  1.0000 -0.027961913
C   C44       1.0  0.45083  0.19672  0.51660  1.0000 -0.008298718
C   C45       1.0  0.97288  0.31489  0.40197  1.0000 -0.1867134967
C   C46       1.0  0.02705  0.68509  0.90205  1.0000 -0.1867134967
C   C47       1.0  0.02432  0.31271  0.09836  1.0000 -0.0934881155
C   C48       1.0  0.97561  0.68735  0.59841  1.0000 -0.0934881155
C   C49       1.0  0.47330  0.81420  0.40133  1.0000 -0.18032499
C   C50       1.0  0.52434  0.18730  0.90161  1.0000 -0.0934881155
C   C51       1.0  0.52492  0.81329  0.09784  1.0000 -0.0934881155
C   C52       1.0  0.47290  0.18513  0.59799  1.0000 -0.1867134967
C   C53       1.0  0.93126  0.26439  0.34346  1.0000 0.2477129749
C   C54       1.0  0.06865  0.73558  0.84349  1.0000 0.2477129749
C   C55       1.0  0.06434  0.26205  0.15671  1.0000 0.0747288219
C   C56       1.0  0.93558  0.73802  0.65672  1.0000 0.0747288219
C   C57       1.0  0.43137  0.76410  0.34287  1.0000 0.2477129749
C   C58       1.0  0.56432  0.23796  0.84327  1.0000 0.0747288219
C   C59       1.0  0.56449  0.76231  0.15627  1.0000 0.079194829
C   C60       1.0  0.43127  0.23562  0.65651  1.0000 0.2477129749
C   C61       1.0  0.86815  0.20338  0.36585  1.0000 -0.153762395
C   C62       1.0  0.13178  0.79656  0.86589  1.0000 -0.153762395
C   C63       1.0  0.12340  0.19965  0.13200  1.0000 -0.1082194307
C   C64       1.0  0.87652  0.80046  0.63202  1.0000 -0.1082194307
C   C65       1.0  0.36810  0.70319  0.36524  1.0000 -0.1551419296
C   C66       1.0  0.62340  0.30037  0.86796  1.0000 -0.1082194307
C   C67       1.0  0.62334  0.69979  0.13162  1.0000 -0.1082194307
C   C68       1.0  0.36818  0.29664  0.63413  1.0000 -0.153762395
C   C69       1.0  0.63453  0.99903  0.70173  1.0000 0.6710146046
C   C70       1.0  0.36565  0.00116  0.20204  1.0000 0.6799843094
C   C71       1.0  0.36632  0.99864  0.79461  1.0000 0.6799843094
C   C72       1.0  0.63395  0.00120  0.29504  1.0000 0.6710146046
C   C73       1.0  0.13354  0.49887  0.70475  1.0000 0.6799843094
C   C74       1.0  0.86619  0.50127  0.20474  1.0000 0.6799843094
C   C75       1.0  0.86537  0.49881  0.79786  1.0000 0.6710146046
C   C76       1.0  0.13434  0.50101  0.29780  1.0000 0.6710146046
C   C77       1.0  0.86651  0.21037  0.78160  1.0000 0.5737252951
C   C78       1.0  0.13337  0.78975  0.28152  1.0000 0.5771471999
C   C79       1.0  0.13111  0.21086  0.71660  1.0000 0.5737252951
C   C80       1.0  0.86853  0.78899  0.21634  1.0000 0.5737252951
C   C81       1.0  0.36860  0.71088  0.78267  1.0000 0.5737252951
C   C82       1.0  0.63115  0.28915  0.28325  1.0000 0.5737252951
C   C83       1.0  0.63326  0.71032  0.71768  1.0000 0.5737252951
C   C84       1.0  0.36654  0.28969  0.21821  1.0000 0.5737252951
C   C85       1.0  0.68894  0.04190  0.76588  1.0000 -0.027961913
C   C86       1.0  0.31188  0.95728  0.26573  1.0000 -0.0183459493
C   C87       1.0  0.31240  0.04517  0.73283  1.0000 -0.008298718
C   C88       1.0  0.68832  0.95575  0.23260  1.0000 -0.008298718
C   C89       1.0  0.18740  0.54508  0.76690  1.0000 -0.008298718
C   C90       1.0  0.81241  0.45492  0.26683  1.0000 -0.008298718
C   C91       1.0  0.81090  0.54191  0.73395  1.0000 -0.027961913
C   C92       1.0  0.18889  0.45806  0.23386  1.0000 -0.027961913
C   C93       1.0  0.68196  0.01773  0.84746  1.0000 -0.0978526161
C   C94       1.0  0.31846  0.98184  0.34723  1.0000 -0.0934881155
C   C95       1.0  0.32211  0.02266  0.65202  1.0000 -0.18032499
C   C96       1.0  0.67840  0.97811  0.15182  1.0000 -0.18032499
C   C97       1.0  0.17783  0.52256  0.84767  1.0000 -0.18032499
C   C98       1.0  0.82211  0.47748  0.34761  1.0000 -0.1867134967
C   C99       1.0  0.81801  0.51765  0.65240  1.0000 -0.0934881155
C   C100      1.0  0.18191  0.48227  0.15228  1.0000 -0.0934881155
C   C101      1.0  0.73382  0.05858  0.90641  1.0000 0.079194829
C   C102      1.0  0.26629  0.94145  0.40628  1.0000 0.079194829
C   C103      1.0  0.27294  0.06522  0.59234  1.0000 0.2447482846
C   C104      1.0  0.72717  0.93510  0.09212  1.0000 0.2477129749
C   C105      1.0  0.22697  0.56533  0.90736  1.0000 0.2477129749
C   C106      1.0  0.77303  0.43480  0.40734  1.0000 0.2477129749
C   C107      1.0  0.76611  0.55828  0.59337  1.0000 0.079194829
C   C108      1.0  0.23385  0.44157  0.09330  1.0000 0.079194829
C   C109      1.0  0.79255  0.12151  0.88259  1.0000 -0.1251416304
C   C110      1.0  0.20751  0.87851  0.38239  1.0000 -0.1251416304
C   C111      1.0  0.21264  0.12854  0.61379  1.0000 -0.1721684468
C   C112      1.0  0.78722  0.87157  0.11337  1.0000 -0.1721684468
C   C113      1.0  0.28718  0.62884  0.88599  1.0000 -0.1721684468
C   C114      1.0  0.71271  0.37144  0.38596  1.0000 -0.1721684468
C   C115      1.0  0.70731  0.62111  0.61722  1.0000 -0.1251416304
C   C116      1.0  0.29260  0.37865  0.11716  1.0000 -0.1251416304
C   C117      1.0  0.79975  0.14480  0.80149  1.0000 -0.008298718
C   C118      1.0  0.20063  0.85493  0.30130  1.0000 -0.008298718
C   C119      1.0  0.20160  0.14814  0.69531  1.0000 0.0105875473
C   C120      1.0  0.79836  0.85191  0.19478  1.0000 0.0105875473
C   C121      1.0  0.29819  0.64826  0.80447  1.0000 0.0105875473
C   C122      1.0  0.70161  0.35189  0.30448  1.0000 0.0105875473
C   C123      1.0  0.70007  0.64465  0.69827  1.0000 -0.008298718
C   C124      1.0  0.29976  0.35524  0.19829  1.0000 -0.008298718
C   C125      1.0  0.74701  0.10590  0.74226  1.0000 -0.0978526161
C   C126      1.0  0.25412  0.89313  0.24211  1.0000 -0.0804861718
C   C127      1.0  0.25303  0.10869  0.75587  1.0000 -0.0804861718
C   C128      1.0  0.74769  0.89204  0.25546  1.0000 -0.1082194307
C   C129      1.0  0.24681  0.60862  0.74396  1.0000 -0.0804861718
C   C130      1.0  0.75300  0.39136  0.24390  1.0000 -0.0804861718
C   C131      1.0  0.75287  0.60593  0.75759  1.0000 -0.0978526161
C   C132      1.0  0.24696  0.39409  0.25752  1.0000 -0.0978526161
C   C133      1.0  0.73132  0.04146  0.99509  1.0000 0.0180588462
C   C134      1.0  0.26851  0.95884  0.49498  1.0000 0.0180588462
C   C135      1.0  0.76891  0.54119  0.50465  1.0000 0.0180588462
C   C136      1.0  0.23123  0.45874  0.00457  1.0000 0.0180588462
O   O1        1.0  0.76130  0.11445  0.54278  1.0000 -0.5895405808
O   O2        1.0  0.23838  0.88566  0.04272  1.0000 -0.5895405808
O   O3        1.0  0.24006  0.11558  0.95648  1.0000 -0.5972580173
O   O4        1.0  0.75964  0.88430  0.45641  1.0000 -0.5972580173
O   O5        1.0  0.26133  0.61520  0.54317  1.0000 -0.5895405808
O   O6        1.0  0.73932  0.38491  0.04362  1.0000 -0.5972580173
O   O7        1.0  0.74004  0.61480  0.95697  1.0000 -0.5972580173
O   O8        1.0  0.26069  0.38511  0.45729  1.0000 -0.5972580173
O   O9        1.0  0.76716  0.06972  0.41467  1.0000 -0.6107136535
O   O10       1.0  0.23208  0.93030  0.91456  1.0000 -0.6107136535
O   O11       1.0  0.23216  0.07047  0.08368  1.0000 -0.6107136535
O   O12       1.0  0.76710  0.92952  0.58357  1.0000 -0.6107136535
O   O13       1.0  0.26727  0.56932  0.41543  1.0000 -0.6107136535
O   O14       1.0  0.73304  0.42925  0.91614  1.0000 -0.6222018186
O   O15       1.0  0.73214  0.57076  0.08449  1.0000 -0.6107136535
O   O16       1.0  0.26820  0.43062  0.58512  1.0000 -0.6107136535
O   O17       1.0  0.95621  0.35783  0.61656  1.0000 -0.6280379521
O   O18       1.0  0.04363  0.64215  0.11668  1.0000 -0.6280379521
O   O19       1.0  0.04360  0.35917  0.88440  1.0000 -0.6379642733
O   O20       1.0  0.95623  0.64091  0.38447  1.0000 -0.6379642733
O   O21       1.0  0.45559  0.85801  0.61525  1.0000 -0.6280379521
O   O22       1.0  0.54371  0.14088  0.11560  1.0000 -0.6379642733
O   O23       1.0  0.54288  0.85883  0.88309  1.0000 -0.6379642733
O   O24       1.0  0.45626  0.14212  0.38342  1.0000 -0.6280379521
O   O25       1.0  0.06198  0.39911  0.52687  1.0000 -0.6664627193
O   O26       1.0  0.93832  0.60049  0.02682  1.0000 -0.6664627193
O   O27       1.0  0.93653  0.39935  0.97317  1.0000 -0.6664627193
O   O28       1.0  0.06367  0.60098  0.47310  1.0000 -0.6664627193
O   O29       1.0  0.56251  0.89873  0.52604  1.0000 -0.6600542167
O   O30       1.0  0.43653  0.10093  0.02682  1.0000 -0.6600542167
O   O31       1.0  0.43720  0.89961  0.97247  1.0000 -0.6664627193
O   O32       1.0  0.56192  0.10055  0.47308  1.0000 -0.6664627193
O   O33       1.0  0.60404  0.92787  0.71752  1.0000 -0.6600542167
O   O34       1.0  0.39687  0.07192  0.21895  1.0000 -0.6600542167
O   O35       1.0  0.39766  0.92946  0.77242  1.0000 -0.6600542167
O   O36       1.0  0.60327  0.07088  0.27407  1.0000 -0.6600542167
O   O37       1.0  0.10184  0.42976  0.72678  1.0000 -0.6600542167
O   O38       1.0  0.89804  0.57026  0.22690  1.0000 -0.6600542167
O   O39       1.0  0.89555  0.42759  0.78193  1.0000 -0.6600542167
O   O40       1.0  0.10443  0.57239  0.28200  1.0000 -0.6536122658
O   O41       1.0  0.62089  0.03606  0.63484  1.0000 -0.6280379521
O   O42       1.0  0.37827  0.96643  0.13397  1.0000 -0.6280379521
O   O43       1.0  0.37886  0.03030  0.86379  1.0000 -0.6222018186
O   O44       1.0  0.62051  0.96729  0.36320  1.0000 -0.6280379521
O   O45       1.0  0.12163  0.53081  0.63562  1.0000 -0.6222018186
O   O46       1.0  0.87799  0.46951  0.13550  1.0000 -0.6280379521
O   O47       1.0  0.87953  0.53565  0.86477  1.0000 -0.6280379521
O   O48       1.0  0.11996  0.46393  0.36457  1.0000 -0.6280379521
O   O49       1.0  0.85328  0.25696  0.72081  1.0000 -0.5795499482
O   O50       1.0  0.14593  0.74320  0.22059  1.0000 -0.5728706815
O   O51       1.0  0.14365  0.25594  0.77889  1.0000 -0.5895405808
O   O52       1.0  0.85544  0.74394  0.27860  1.0000 -0.5895405808
O   O53       1.0  0.35609  0.75534  0.71987  1.0000 -0.5795499482
O   O54       1.0  0.64362  0.24416  0.22088  1.0000 -0.5895405808
O   O55       1.0  0.64654  0.75734  0.77811  1.0000 -0.5795499482
O   O56       1.0  0.35322  0.24299  0.27893  1.0000 -0.5795499482
O   O57       1.0  0.93668  0.21881  0.82799  1.0000 -0.6280379521
O   O58       1.0  0.06331  0.78130  0.32810  1.0000 -0.6280379521
O   O59       1.0  0.06042  0.21801  0.67134  1.0000 -0.6222018186
O   O60       1.0  0.93944  0.78193  0.17144  1.0000 -0.6222018186
O   O61       1.0  0.43915  0.71826  0.82798  1.0000 -0.6280379521
O   O62       1.0  0.56061  0.28190  0.32868  1.0000 -0.6222018186
O   O63       1.0  0.56304  0.71867  0.67133  1.0000 -0.6222018186
O   O64       1.0  0.43686  0.28132  0.17203  1.0000 -0.6280379521
O   O65       1.0  0.95181  0.26906  0.26305  1.0000 -0.1721684468
O   O66       1.0  0.04810  0.73095  0.76310  1.0000 -0.1721684468
O   O67       1.0  0.45199  0.76928  0.26238  1.0000 -0.1721684468
O   O68       1.0  0.45180  0.23094  0.73693  1.0000 -0.1721684468
O   O69       1.0  0.27939  0.04538  0.51188  1.0000 -0.18032499
O   O70       1.0  0.72057  0.95491  0.01177  1.0000 -0.18032499
O   O71       1.0  0.22087  0.54542  0.98772  1.0000 -0.18032499
O   O72       1.0  0.77938  0.45454  0.48777  1.0000 -0.1721684468
