# DDEC6 charges by PACMAN v1.1 (https://github.com/mtap-research/PACMAN-charge/)
data_2013[Cu][nbo]3[ASR]5
_chemical_formula_sum              "Cu6 H42 C108 Cl6 O30"
_cell_length_a       20.4386
_cell_length_b       20.4386
_cell_length_c       20.4386
_cell_angle_alpha    54.0306
_cell_angle_beta     54.0306
_cell_angle_gamma    54.0306

_symmetry_space_group_name_H-M    "P 1"
_symmetry_Int_Tables_number       1

loop_
  _symmetry_equiv_pos_as_xyz
  'x, y, z'

loop_
  _atom_site_type_symbol
  _atom_site_label
  _atom_site_symmetry_multiplicity
  _atom_site_fract_x
  _atom_site_fract_y
  _atom_site_fract_z
  _atom_site_occupancy
  _atom_site_charge
Cu  Cu1       1.0  0.06845  0.49654  0.49723  1.0000 0.8601481379
Cu  Cu2       1.0  0.49654  0.49723  0.06845  1.0000 0.8601481379
Cu  Cu3       1.0  0.49723  0.06845  0.49654  1.0000 0.8601481379
Cu  Cu4       1.0  0.93155  0.50277  0.50346  1.0000 0.8601481379
Cu  Cu5       1.0  0.50346  0.93155  0.50277  1.0000 0.8601481379
Cu  Cu6       1.0  0.50277  0.50346  0.93155  1.0000 0.8601481379
H   H1        1.0  0.77200  0.46480  0.77250  1.0000 0.1512308555
H   H2        1.0  0.46480  0.77250  0.77200  1.0000 0.1512308555
H   H3        1.0  0.77250  0.77200  0.46480  1.0000 0.1512308555
H   H4        1.0  0.22800  0.22750  0.53520  1.0000 0.1512308555
H   H5        1.0  0.53520  0.22800  0.22750  1.0000 0.1512308555
H   H6        1.0  0.22750  0.53520  0.22800  1.0000 0.1512308555
H   H7        1.0  0.97610  0.46150  0.76490  1.0000 0.1318698188
H   H8        1.0  0.46150  0.76490  0.97610  1.0000 0.1385301696
H   H9        1.0  0.76490  0.97610  0.46150  1.0000 0.1318698188
H   H10       1.0  0.02390  0.23510  0.53850  1.0000 0.1318698188
H   H11       1.0  0.53850  0.02390  0.23510  1.0000 0.1318698188
H   H12       1.0  0.23510  0.53850  0.02390  1.0000 0.1318698188
H   H13       1.0  0.76160  0.45720  0.97950  1.0000 0.1385301696
H   H14       1.0  0.45720  0.97950  0.76160  1.0000 0.1385301696
H   H15       1.0  0.97950  0.76160  0.45720  1.0000 0.1385301696
H   H16       1.0  0.23840  0.02050  0.54280  1.0000 0.1385301696
H   H17       1.0  0.54280  0.23840  0.02050  1.0000 0.1385301696
H   H18       1.0  0.02050  0.54280  0.23840  1.0000 0.1385301696
H   H19       1.0  0.81320  0.57740  0.93820  1.0000 0.1512308555
H   H20       1.0  0.57740  0.93820  0.81320  1.0000 0.1512308555
H   H21       1.0  0.93820  0.81320  0.57740  1.0000 0.1512308555
H   H22       1.0  0.18680  0.06180  0.42260  1.0000 0.1512308555
H   H23       1.0  0.42260  0.18680  0.06180  1.0000 0.1512308555
H   H24       1.0  0.06180  0.42260  0.18680  1.0000 0.1512308555
H   H25       1.0  0.00850  0.32290  0.89150  1.0000 0.1318698188
H   H26       1.0  0.32290  0.89150  0.00850  1.0000 0.1318698188
H   H27       1.0  0.89150  0.00850  0.32290  1.0000 0.1318698188
H   H28       1.0  0.99150  0.10850  0.67710  1.0000 0.1318698188
H   H29       1.0  0.67710  0.99150  0.10850  1.0000 0.1318698188
H   H30       1.0  0.10850  0.67710  0.99150  1.0000 0.1318698188
H   H31       1.0  0.20110  0.24220  0.95840  1.0000 0.1512308555
H   H32       1.0  0.24220  0.95840  0.20110  1.0000 0.1512308555
H   H33       1.0  0.95840  0.20110  0.24220  1.0000 0.1512308555
H   H34       1.0  0.79890  0.04160  0.75780  1.0000 0.1615358147
H   H35       1.0  0.75780  0.79890  0.04160  1.0000 0.1512308555
H   H36       1.0  0.04160  0.75780  0.79890  1.0000 0.1512308555
H   H37       1.0  0.12880  0.36340  0.99350  1.0000 0.116612957
H   H38       1.0  0.36340  0.99350  0.12880  1.0000 0.116612957
H   H39       1.0  0.99350  0.12880  0.36340  1.0000 0.116612957
H   H40       1.0  0.87120  0.00650  0.63660  1.0000 0.116612957
H   H41       1.0  0.63660  0.87120  0.00650  1.0000 0.116612957
H   H42       1.0  0.00650  0.63660  0.87120  1.0000 0.116612957
C   C1        1.0  0.65689  0.47379  0.93139  1.0000 0.5800487232
C   C2        1.0  0.47379  0.93139  0.65689  1.0000 0.5800487232
C   C3        1.0  0.93139  0.65689  0.47379  1.0000 0.5800487232
C   C4        1.0  0.34311  0.06861  0.52621  1.0000 0.5800487232
C   C5        1.0  0.52621  0.34311  0.06861  1.0000 0.5800487232
C   C6        1.0  0.06861  0.52621  0.34311  1.0000 0.5800487232
C   C7        1.0  0.75261  0.46321  0.88411  1.0000 0.0019678847
C   C8        1.0  0.46321  0.88411  0.75261  1.0000 0.0019678847
C   C9        1.0  0.88411  0.75261  0.46321  1.0000 0.0019678847
C   C10       1.0  0.24739  0.11589  0.53679  1.0000 0.0019678847
C   C11       1.0  0.53679  0.24739  0.11589  1.0000 0.0019678847
C   C12       1.0  0.11589  0.53679  0.24739  1.0000 0.0019678847
C   C13       1.0  0.79844  0.46464  0.79734  1.0000 -0.0828982547
C   C14       1.0  0.46464  0.79734  0.79844  1.0000 -0.0828982547
C   C15       1.0  0.79734  0.79844  0.46464  1.0000 -0.0828982547
C   C16       1.0  0.20156  0.20266  0.53536  1.0000 -0.0828982547
C   C17       1.0  0.53536  0.20156  0.20266  1.0000 -0.0828982547
C   C18       1.0  0.20266  0.53536  0.20156  1.0000 -0.0828982547
C   C19       1.0  0.87868  0.46588  0.75138  1.0000 -0.0291672429
C   C20       1.0  0.46588  0.75138  0.87868  1.0000 -0.0291672429
C   C21       1.0  0.75138  0.87868  0.46588  1.0000 -0.0291672429
C   C22       1.0  0.12132  0.24862  0.53412  1.0000 -0.0291672429
C   C23       1.0  0.53412  0.12132  0.24862  1.0000 -0.0291672429
C   C24       1.0  0.24862  0.53412  0.12132  1.0000 -0.0291672429
C   C25       1.0  0.92195  0.47525  0.66085  1.0000 0.574393489
C   C26       1.0  0.47525  0.66085  0.92195  1.0000 0.574393489
C   C27       1.0  0.66085  0.92195  0.47525  1.0000 0.574393489
C   C28       1.0  0.07805  0.33915  0.52475  1.0000 0.5800487232
C   C29       1.0  0.52475  0.07805  0.33915  1.0000 0.574393489
C   C30       1.0  0.33915  0.52475  0.07805  1.0000 0.574393489
C   C31       1.0  0.91929  0.46329  0.79469  1.0000 -0.1274441346
C   C32       1.0  0.46329  0.79469  0.91929  1.0000 -0.1274441346
C   C33       1.0  0.79469  0.91929  0.46329  1.0000 -0.1274441346
C   C34       1.0  0.08071  0.20531  0.53671  1.0000 -0.1274441346
C   C35       1.0  0.53671  0.08071  0.20531  1.0000 -0.1274441346
C   C36       1.0  0.20531  0.53671  0.08071  1.0000 -0.1274441346
C   C37       1.0  0.87513  0.46353  0.87683  1.0000 0.0643029348
C   C38       1.0  0.46353  0.87683  0.87513  1.0000 0.0643029348
C   C39       1.0  0.87683  0.87513  0.46353  1.0000 0.0643029348
C   C40       1.0  0.12487  0.12317  0.53647  1.0000 0.0643029348
C   C41       1.0  0.53647  0.12487  0.12317  1.0000 0.0643029348
C   C42       1.0  0.12317  0.53647  0.12487  1.0000 0.0643029348
C   C43       1.0  0.79132  0.46082  0.92222  1.0000 -0.1153119395
C   C44       1.0  0.46082  0.92222  0.79132  1.0000 -0.1153119395
C   C45       1.0  0.92222  0.79132  0.46082  1.0000 -0.1153119395
C   C46       1.0  0.20868  0.07778  0.53918  1.0000 -0.1153119395
C   C47       1.0  0.53918  0.20868  0.07778  1.0000 -0.1153119395
C   C48       1.0  0.07778  0.53918  0.20868  1.0000 -0.1153119395
C   C49       1.0  0.90974  0.46424  0.92344  1.0000 0.0461199617
C   C50       1.0  0.46424  0.92344  0.90974  1.0000 0.0461199617
C   C51       1.0  0.92344  0.90974  0.46424  1.0000 0.0461199617
C   C52       1.0  0.09026  0.07656  0.53576  1.0000 0.0461199617
C   C53       1.0  0.53576  0.09026  0.07656  1.0000 0.0461199617
C   C54       1.0  0.07656  0.53576  0.09026  1.0000 0.0461199617
C   C55       1.0  0.86642  0.53682  0.94452  1.0000 -0.221870091
C   C56       1.0  0.53682  0.94452  0.86642  1.0000 -0.221870091
C   C57       1.0  0.94452  0.86642  0.53682  1.0000 -0.221870091
C   C58       1.0  0.13358  0.05548  0.46318  1.0000 -0.221870091
C   C59       1.0  0.46318  0.13358  0.05548  1.0000 -0.221870091
C   C60       1.0  0.05548  0.46318  0.13358  1.0000 -0.221870091
C   C61       1.0  0.90247  0.54897  0.97507  1.0000 0.2530976719
C   C62       1.0  0.54897  0.97507  0.90247  1.0000 0.2530976719
C   C63       1.0  0.97507  0.90247  0.54897  1.0000 0.2530976719
C   C64       1.0  0.09753  0.02493  0.45103  1.0000 0.2530976719
C   C65       1.0  0.45103  0.09753  0.02493  1.0000 0.2530976719
C   C66       1.0  0.02493  0.45103  0.09753  1.0000 0.2530976719
C   C67       1.0  0.98184  0.48854  0.98454  1.0000 -0.0291672429
C   C68       1.0  0.48854  0.98454  0.98184  1.0000 -0.0291672429
C   C69       1.0  0.98454  0.98184  0.48854  1.0000 -0.0291672429
C   C70       1.0  0.01816  0.01546  0.51146  1.0000 -0.0291672429
C   C71       1.0  0.51146  0.01816  0.01546  1.0000 -0.0230650773
C   C72       1.0  0.01546  0.51146  0.01816  1.0000 -0.0291672429
C   C73       1.0  0.02516  0.41586  0.96356  1.0000 0.0396292382
C   C74       1.0  0.41586  0.96356  0.02516  1.0000 0.0396292382
C   C75       1.0  0.96356  0.02516  0.41586  1.0000 0.0396292382
C   C76       1.0  0.97484  0.03644  0.58414  1.0000 0.0396292382
C   C77       1.0  0.58414  0.97484  0.03644  1.0000 0.0396292382
C   C78       1.0  0.03644  0.58414  0.97484  1.0000 0.0396292382
C   C79       1.0  0.98911  0.40371  0.93301  1.0000 0.0327734104
C   C80       1.0  0.40371  0.93301  0.98911  1.0000 0.0327734104
C   C81       1.0  0.93301  0.98911  0.40371  1.0000 0.0327734104
C   C82       1.0  0.01089  0.06699  0.59629  1.0000 0.0327734104
C   C83       1.0  0.59629  0.01089  0.06699  1.0000 0.0327734104
C   C84       1.0  0.06699  0.59629  0.01089  1.0000 0.0327734104
C   C85       1.0  0.03252  0.33102  0.91192  1.0000 -0.1713676028
C   C86       1.0  0.33102  0.91192  0.03252  1.0000 -0.1713676028
C   C87       1.0  0.91192  0.03252  0.33102  1.0000 -0.1713676028
C   C88       1.0  0.96748  0.08808  0.66898  1.0000 -0.1713676028
C   C89       1.0  0.66898  0.96748  0.08808  1.0000 -0.1713676028
C   C90       1.0  0.08808  0.66898  0.96748  1.0000 -0.1713676028
C   C91       1.0  0.11190  0.27050  0.92150  1.0000 0.1615358147
C   C92       1.0  0.27050  0.92150  0.11190  1.0000 0.1615358147
C   C93       1.0  0.92150  0.11190  0.27050  1.0000 0.1615358147
C   C94       1.0  0.88810  0.07850  0.72950  1.0000 0.1615358147
C   C95       1.0  0.72950  0.88810  0.07850  1.0000 0.1615358147
C   C96       1.0  0.07850  0.72950  0.88810  1.0000 0.1615358147
C   C97       1.0  0.14800  0.28260  0.95190  1.0000 -0.1274441346
C   C98       1.0  0.28260  0.95190  0.14800  1.0000 -0.1274441346
C   C99       1.0  0.95190  0.14800  0.28260  1.0000 -0.1274441346
C   C100      1.0  0.85200  0.04810  0.71740  1.0000 -0.1274441346
C   C101      1.0  0.71740  0.85200  0.04810  1.0000 -0.1274441346
C   C102      1.0  0.04810  0.71740  0.85200  1.0000 -0.1274441346
C   C103      1.0  0.10462  0.35532  0.97302  1.0000 -0.086355217
C   C104      1.0  0.35532  0.97302  0.10462  1.0000 -0.086355217
C   C105      1.0  0.97302  0.10462  0.35532  1.0000 -0.086355217
C   C106      1.0  0.89538  0.02698  0.64468  1.0000 -0.0828982547
C   C107      1.0  0.64468  0.89538  0.02698  1.0000 -0.0828982547
C   C108      1.0  0.02698  0.64468  0.89538  1.0000 -0.086355217
Cl  Cl1       1.0  0.17170  0.15220  0.92630  1.0000 -0.159814764
Cl  Cl2       1.0  0.15220  0.92630  0.17170  1.0000 -0.1713676028
Cl  Cl3       1.0  0.92630  0.17170  0.15220  1.0000 -0.159814764
Cl  Cl4       1.0  0.82830  0.07370  0.84780  1.0000 -0.1713676028
Cl  Cl5       1.0  0.84780  0.82830  0.07370  1.0000 -0.1713676028
Cl  Cl6       1.0  0.07370  0.84780  0.82830  1.0000 -0.159814764
O   O1        1.0  0.61908  0.47768  0.00368  1.0000 -0.4853779117
O   O2        1.0  0.47768  0.00368  0.61908  1.0000 -0.4829262236
O   O3        1.0  0.00368  0.61908  0.47768  1.0000 -0.4829262236
O   O4        1.0  0.38092  0.99632  0.52232  1.0000 -0.4829262236
O   O5        1.0  0.52232  0.38092  0.99632  1.0000 -0.4829262236
O   O6        1.0  0.99632  0.52232  0.38092  1.0000 -0.4829262236
O   O7        1.0  0.62662  0.48122  0.88682  1.0000 -0.5208447714
O   O8        1.0  0.48122  0.88682  0.62662  1.0000 -0.5208447714
O   O9        1.0  0.88682  0.62662  0.48122  1.0000 -0.5208447714
O   O10       1.0  0.37338  0.11318  0.51878  1.0000 -0.5208447714
O   O11       1.0  0.51878  0.37338  0.11318  1.0000 -0.5208447714
O   O12       1.0  0.11318  0.51878  0.37338  1.0000 -0.5208447714
O   O13       1.0  0.88676  0.48106  0.62756  1.0000 -0.4191149661
O   O14       1.0  0.48106  0.62756  0.88676  1.0000 -0.4191149661
O   O15       1.0  0.62756  0.88676  0.48106  1.0000 -0.4191149661
O   O16       1.0  0.11324  0.37244  0.51894  1.0000 -0.4191149661
O   O17       1.0  0.51894  0.11324  0.37244  1.0000 -0.4191149661
O   O18       1.0  0.37244  0.51894  0.11324  1.0000 -0.4191149661
O   O19       1.0  0.00220  0.47330  0.62290  1.0000 -0.550902162
O   O20       1.0  0.47330  0.62290  0.00220  1.0000 -0.550902162
O   O21       1.0  0.62290  0.00220  0.47330  1.0000 -0.550902162
O   O22       1.0  0.99780  0.37710  0.52670  1.0000 -0.550902162
O   O23       1.0  0.52670  0.99780  0.37710  1.0000 -0.550902162
O   O24       1.0  0.37710  0.52670  0.99780  1.0000 -0.550902162
O   O25       1.0  0.84810  0.61060  0.02160  1.0000 -0.4617182552
O   O26       1.0  0.61060  0.02160  0.84810  1.0000 -0.4617182552
O   O27       1.0  0.02160  0.84810  0.61060  1.0000 -0.4617182552
O   O28       1.0  0.15190  0.97840  0.38940  1.0000 -0.4617182552
O   O29       1.0  0.38940  0.15190  0.97840  1.0000 -0.4617182552
O   O30       1.0  0.97840  0.38940  0.15190  1.0000 -0.4617182552
