# DDEC6 charges by PACMAN v1.1 (https://github.com/mtap-research/PACMAN-charge/)
data_2013[Cd][ths]3[ASR]1
_chemical_formula_sum              "Cd4 H60 C108 O24"
_cell_length_a       14.915
_cell_length_b       8.986
_cell_length_c       29.177
_cell_angle_alpha    90
_cell_angle_beta     114.267
_cell_angle_gamma    90

_symmetry_space_group_name_H-M    "P 1"
_symmetry_Int_Tables_number       1

loop_
  _symmetry_equiv_pos_as_xyz
  'x, y, z'

loop_
  _atom_site_type_symbol
  _atom_site_label
  _atom_site_symmetry_multiplicity
  _atom_site_fract_x
  _atom_site_fract_y
  _atom_site_fract_z
  _atom_site_occupancy
  _atom_site_charge
Cd  Cd1       1.0  0.70033  0.68772  0.64149  1.0000 1.0185077763
Cd  Cd2       1.0  0.70033  0.81228  0.14149  1.0000 1.0185077763
Cd  Cd3       1.0  0.29967  0.18772  0.85851  1.0000 1.0185077763
Cd  Cd4       1.0  0.29967  0.31228  0.35851  1.0000 1.0185077763
H   H1        1.0  0.41250  0.50240  0.50390  1.0000 0.1362329661
H   H2        1.0  0.41250  0.99760  0.00390  1.0000 0.1362329661
H   H3        1.0  0.38310  0.51780  0.63460  1.0000 0.1289925619
H   H4        1.0  0.38310  0.98220  0.13460  1.0000 0.1289925619
H   H5        1.0  0.70710  0.09760  0.52510  1.0000 0.1289925619
H   H6        1.0  0.70710  0.40240  0.02510  1.0000 0.1289925619
H   H7        1.0  0.78560  0.24240  0.48740  1.0000 0.1140857259
H   H8        1.0  0.78560  0.25760  0.98740  1.0000 0.1140857259
H   H9        1.0  0.04030  0.03560  0.56930  1.0000 0.119196382
H   H10       1.0  0.04030  0.46440  0.06930  1.0000 0.119196382
H   H11       1.0  0.96100  0.89150  0.60670  1.0000 0.119196382
H   H12       1.0  0.96100  0.60850  0.10670  1.0000 0.119196382
H   H13       1.0  0.85330  0.26910  0.43170  1.0000 0.119196382
H   H14       1.0  0.85330  0.23090  0.93170  1.0000 0.119196382
H   H15       1.0  0.09580  0.46870  0.43410  1.0000 0.119196382
H   H16       1.0  0.09580  0.03130  0.93410  1.0000 0.119196382
H   H17       1.0  0.10680  0.24380  0.55510  1.0000 0.119196382
H   H18       1.0  0.10680  0.25620  0.05510  1.0000 0.119196382
H   H19       1.0  0.81470  0.27020  0.34350  1.0000 0.119196382
H   H20       1.0  0.81470  0.22980  0.84350  1.0000 0.119196382
H   H21       1.0  0.73050  0.37570  0.26530  1.0000 0.1289925619
H   H22       1.0  0.73050  0.12430  0.76530  1.0000 0.1289925619
H   H23       1.0  0.89530  0.74160  0.30890  1.0000 0.1289925619
H   H24       1.0  0.89530  0.75840  0.80890  1.0000 0.1289925619
H   H25       1.0  0.98290  0.63760  0.38690  1.0000 0.119196382
H   H26       1.0  0.98290  0.86240  0.88690  1.0000 0.119196382
H   H27       1.0  0.25580  0.40840  0.46450  1.0000 0.1289925619
H   H28       1.0  0.25580  0.09160  0.96450  1.0000 0.1289925619
H   H29       1.0  0.22590  0.42370  0.59500  1.0000 0.1140857259
H   H30       1.0  0.22590  0.07630  0.09500  1.0000 0.1140857259
H   H31       1.0  0.58750  0.00240  0.99610  1.0000 0.1362329661
H   H32       1.0  0.58750  0.49760  0.49610  1.0000 0.1362329661
H   H33       1.0  0.61690  0.01780  0.86540  1.0000 0.1289925619
H   H34       1.0  0.61690  0.48220  0.36540  1.0000 0.1289925619
H   H35       1.0  0.29290  0.59760  0.97490  1.0000 0.1289925619
H   H36       1.0  0.29290  0.90240  0.47490  1.0000 0.1289925619
H   H37       1.0  0.21440  0.74240  0.01260  1.0000 0.1140857259
H   H38       1.0  0.21440  0.75760  0.51260  1.0000 0.1140857259
H   H39       1.0  0.95970  0.53560  0.93070  1.0000 0.119196382
H   H40       1.0  0.95970  0.96440  0.43070  1.0000 0.119196382
H   H41       1.0  0.03900  0.39150  0.89330  1.0000 0.119196382
H   H42       1.0  0.03900  0.10850  0.39330  1.0000 0.119196382
H   H43       1.0  0.14670  0.76910  0.06830  1.0000 0.119196382
H   H44       1.0  0.14670  0.73090  0.56830  1.0000 0.119196382
H   H45       1.0  0.90420  0.96870  0.06590  1.0000 0.119196382
H   H46       1.0  0.90420  0.53130  0.56590  1.0000 0.119196382
H   H47       1.0  0.89320  0.74380  0.94490  1.0000 0.119196382
H   H48       1.0  0.89320  0.75620  0.44490  1.0000 0.119196382
H   H49       1.0  0.18530  0.77020  0.15650  1.0000 0.119196382
H   H50       1.0  0.18530  0.72980  0.65650  1.0000 0.119196382
H   H51       1.0  0.26950  0.87570  0.23470  1.0000 0.1289925619
H   H52       1.0  0.26950  0.62430  0.73470  1.0000 0.1289925619
H   H53       1.0  0.10470  0.24160  0.19110  1.0000 0.1289925619
H   H54       1.0  0.10470  0.25840  0.69110  1.0000 0.1289925619
H   H55       1.0  0.01710  0.13760  0.11310  1.0000 0.119196382
H   H56       1.0  0.01710  0.36240  0.61310  1.0000 0.119196382
H   H57       1.0  0.74420  0.90840  0.03550  1.0000 0.1289925619
H   H58       1.0  0.74420  0.59160  0.53550  1.0000 0.1289925619
H   H59       1.0  0.77410  0.92370  0.90500  1.0000 0.1140857259
H   H60       1.0  0.77410  0.57630  0.40500  1.0000 0.1140857259
C   C1        1.0  0.37499  0.48760  0.52229  1.0000 -0.0805578941
C   C2        1.0  0.37499  0.01240  0.02229  1.0000 -0.0747929388
C   C3        1.0  0.41447  0.52250  0.57327  1.0000 -0.0162518295
C   C4        1.0  0.41447  0.97750  0.07327  1.0000 -0.0162518295
C   C5        1.0  0.35743  0.49680  0.60033  1.0000 -0.0911602152
C   C6        1.0  0.35743  0.00320  0.10033  1.0000 -0.0911602152
C   C7        1.0  0.51592  0.58180  0.59882  1.0000 0.541889613
C   C8        1.0  0.51592  0.91820  0.09882  1.0000 0.541889613
C   C9        1.0  0.75143  0.63880  0.22813  1.0000 0.541889613
C   C10       1.0  0.75143  0.86120  0.72813  1.0000 0.541889613
C   C11       1.0  0.82483  0.97800  0.56893  1.0000 -0.0083611379
C   C12       1.0  0.82483  0.52200  0.06893  1.0000 -0.0083611379
C   C13       1.0  0.77392  0.08410  0.53372  1.0000 -0.0911602152
C   C14       1.0  0.77392  0.41590  0.03372  1.0000 -0.0911602152
C   C15       1.0  0.82108  0.17110  0.51098  1.0000 -0.1437847973
C   C16       1.0  0.82108  0.32890  0.01098  1.0000 -0.1437847973
C   C17       1.0  0.92149  0.15240  0.52329  1.0000 0.0702138849
C   C18       1.0  0.92149  0.34760  0.02329  1.0000 0.0702138849
C   C19       1.0  0.97311  0.04760  0.55991  1.0000 -0.1484537018
C   C20       1.0  0.97311  0.45240  0.05991  1.0000 -0.1484537018
C   C21       1.0  0.92561  0.96120  0.58241  1.0000 -0.0911602152
C   C22       1.0  0.92561  0.53880  0.08241  1.0000 -0.0911602152
C   C23       1.0  0.97172  0.24190  0.49752  1.0000 0.0891853175
C   C24       1.0  0.97172  0.25810  0.99752  1.0000 0.0891853175
C   C25       1.0  0.91959  0.29260  0.44859  1.0000 -0.1883956217
C   C26       1.0  0.91959  0.20740  0.94859  1.0000 -0.1883956217
C   C27       1.0  0.96560  0.37860  0.42460  1.0000 0.0840608752
C   C28       1.0  0.96560  0.12140  0.92460  1.0000 0.0840608752
C   C29       1.0  0.06479  0.41200  0.44999  1.0000 -0.1795725473
C   C30       1.0  0.06479  0.08800  0.94999  1.0000 -0.1795725473
C   C31       1.0  0.11913  0.36190  0.49903  1.0000 0.0957959383
C   C32       1.0  0.11913  0.13810  0.99903  1.0000 0.0957959383
C   C33       1.0  0.07153  0.27720  0.52243  1.0000 -0.1795725473
C   C34       1.0  0.07153  0.22280  0.02243  1.0000 -0.1795725473
C   C35       1.0  0.90962  0.44120  0.37392  1.0000 0.0702138849
C   C36       1.0  0.90962  0.05880  0.87392  1.0000 0.0702138849
C   C37       1.0  0.83217  0.36440  0.33677  1.0000 -0.1484537018
C   C38       1.0  0.83217  0.13560  0.83677  1.0000 -0.1484537018
C   C39       1.0  0.78119  0.42850  0.28989  1.0000 -0.0805578941
C   C40       1.0  0.78119  0.07150  0.78989  1.0000 -0.0805578941
C   C41       1.0  0.80425  0.56860  0.27915  1.0000 -0.0041908186
C   C42       1.0  0.80425  0.93140  0.77915  1.0000 -0.0041908186
C   C43       1.0  0.87957  0.64640  0.31577  1.0000 -0.0911602152
C   C44       1.0  0.87957  0.85360  0.81577  1.0000 -0.0911602152
C   C45       1.0  0.93214  0.58400  0.36264  1.0000 -0.1484537018
C   C46       1.0  0.93214  0.91600  0.86264  1.0000 -0.1484537018
C   C47       1.0  0.22297  0.40860  0.52527  1.0000 0.0702138849
C   C48       1.0  0.22297  0.09140  0.02527  1.0000 0.0702138849
C   C49       1.0  0.28090  0.43140  0.49860  1.0000 -0.127231969
C   C50       1.0  0.28090  0.06860  0.99860  1.0000 -0.127231969
C   C51       1.0  0.26306  0.44050  0.57656  1.0000 -0.1484537018
C   C52       1.0  0.26306  0.05950  0.07656  1.0000 -0.1484537018
C   C53       1.0  0.77488  0.88030  0.59288  1.0000 0.5474298275
C   C54       1.0  0.77488  0.61970  0.09288  1.0000 0.5474298275
C   C55       1.0  0.62501  0.98760  0.97771  1.0000 -0.0805578941
C   C56       1.0  0.62501  0.51240  0.47771  1.0000 -0.0747929388
C   C57       1.0  0.58553  0.02250  0.92673  1.0000 -0.0162518295
C   C58       1.0  0.58553  0.47750  0.42673  1.0000 -0.0162518295
C   C59       1.0  0.64257  0.99680  0.89967  1.0000 -0.0911602152
C   C60       1.0  0.64257  0.50320  0.39967  1.0000 -0.0911602152
C   C61       1.0  0.48408  0.08180  0.90118  1.0000 0.541889613
C   C62       1.0  0.48408  0.41820  0.40118  1.0000 0.541889613
C   C63       1.0  0.24857  0.13880  0.27187  1.0000 0.541889613
C   C64       1.0  0.24857  0.36120  0.77187  1.0000 0.541889613
C   C65       1.0  0.17517  0.47800  0.93107  1.0000 -0.0083611379
C   C66       1.0  0.17517  0.02200  0.43107  1.0000 -0.0083611379
C   C67       1.0  0.22608  0.58410  0.96628  1.0000 -0.0911602152
C   C68       1.0  0.22608  0.91590  0.46628  1.0000 -0.0911602152
C   C69       1.0  0.17892  0.67110  0.98902  1.0000 -0.1437847973
C   C70       1.0  0.17892  0.82890  0.48902  1.0000 -0.1437847973
C   C71       1.0  0.07851  0.65240  0.97671  1.0000 0.0702138849
C   C72       1.0  0.07851  0.84760  0.47671  1.0000 0.0702138849
C   C73       1.0  0.02689  0.54760  0.94009  1.0000 -0.1484537018
C   C74       1.0  0.02689  0.95240  0.44009  1.0000 -0.1484537018
C   C75       1.0  0.07439  0.46120  0.91759  1.0000 -0.0911602152
C   C76       1.0  0.07439  0.03880  0.41759  1.0000 -0.0911602152
C   C77       1.0  0.02828  0.74190  0.00248  1.0000 0.0891853175
C   C78       1.0  0.02828  0.75810  0.50248  1.0000 0.0891853175
C   C79       1.0  0.08041  0.79260  0.05141  1.0000 -0.1883956217
C   C80       1.0  0.08041  0.70740  0.55141  1.0000 -0.1883956217
C   C81       1.0  0.03440  0.87860  0.07540  1.0000 0.0840608752
C   C82       1.0  0.03440  0.62140  0.57540  1.0000 0.0840608752
C   C83       1.0  0.93521  0.91200  0.05001  1.0000 -0.1795725473
C   C84       1.0  0.93521  0.58800  0.55001  1.0000 -0.1795725473
C   C85       1.0  0.88087  0.86190  0.00097  1.0000 0.0957959383
C   C86       1.0  0.88087  0.63810  0.50097  1.0000 0.0957959383
C   C87       1.0  0.92847  0.77720  0.97757  1.0000 -0.1795725473
C   C88       1.0  0.92847  0.72280  0.47757  1.0000 -0.1795725473
C   C89       1.0  0.09038  0.94120  0.12608  1.0000 0.0702138849
C   C90       1.0  0.09038  0.55880  0.62608  1.0000 0.0702138849
C   C91       1.0  0.16783  0.86440  0.16323  1.0000 -0.1484537018
C   C92       1.0  0.16783  0.63560  0.66323  1.0000 -0.1484537018
C   C93       1.0  0.21881  0.92850  0.21011  1.0000 -0.0805578941
C   C94       1.0  0.21881  0.57150  0.71011  1.0000 -0.0911602152
C   C95       1.0  0.19575  0.06860  0.22085  1.0000 -0.0041908186
C   C96       1.0  0.19575  0.43140  0.72085  1.0000 -0.0041908186
C   C97       1.0  0.12043  0.14640  0.18423  1.0000 -0.0911602152
C   C98       1.0  0.12043  0.35360  0.68423  1.0000 -0.0911602152
C   C99       1.0  0.06786  0.08400  0.13736  1.0000 -0.1484537018
C   C100      1.0  0.06786  0.41600  0.63736  1.0000 -0.1484537018
C   C101      1.0  0.77703  0.90860  0.97473  1.0000 0.0702138849
C   C102      1.0  0.77703  0.59140  0.47473  1.0000 0.0702138849
C   C103      1.0  0.71910  0.93140  0.00140  1.0000 -0.127231969
C   C104      1.0  0.71910  0.56860  0.50140  1.0000 -0.127231969
C   C105      1.0  0.73694  0.94050  0.92344  1.0000 -0.1484537018
C   C106      1.0  0.73694  0.55950  0.42344  1.0000 -0.1484537018
C   C107      1.0  0.22512  0.38030  0.90712  1.0000 0.5474298275
C   C108      1.0  0.22512  0.11970  0.40712  1.0000 0.5474298275
O   O1        1.0  0.68875  0.56740  0.19345  1.0000 -0.4281185814
O   O2        1.0  0.68875  0.93260  0.69345  1.0000 -0.4281185814
O   O3        1.0  0.77724  0.76960  0.22324  1.0000 -0.5175933146
O   O4        1.0  0.77724  0.73040  0.72324  1.0000 -0.5175933146
O   O5        1.0  0.54917  0.61580  0.64380  1.0000 -0.4991770708
O   O6        1.0  0.54917  0.88420  0.14380  1.0000 -0.4991770708
O   O7        1.0  0.56690  0.59660  0.57367  1.0000 -0.5098834402
O   O8        1.0  0.56690  0.90340  0.07367  1.0000 -0.5098834402
O   O9        1.0  0.82216  0.77850  0.62171  1.0000 -0.5398583734
O   O10       1.0  0.82216  0.72150  0.12171  1.0000 -0.5398583734
O   O11       1.0  0.68500  0.90260  0.58280  1.0000 -0.5098834402
O   O12       1.0  0.68500  0.59740  0.08280  1.0000 -0.5098834402
O   O13       1.0  0.31125  0.06740  0.30655  1.0000 -0.4281185814
O   O14       1.0  0.31125  0.43260  0.80655  1.0000 -0.4281185814
O   O15       1.0  0.22276  0.26960  0.27676  1.0000 -0.5175933146
O   O16       1.0  0.22276  0.23040  0.77676  1.0000 -0.5175933146
O   O17       1.0  0.45083  0.11580  0.85620  1.0000 -0.4991770708
O   O18       1.0  0.45083  0.38420  0.35620  1.0000 -0.4991770708
O   O19       1.0  0.43310  0.09660  0.92633  1.0000 -0.5175933146
O   O20       1.0  0.43310  0.40340  0.42633  1.0000 -0.5098834402
O   O21       1.0  0.17784  0.27850  0.87829  1.0000 -0.5398583734
O   O22       1.0  0.17784  0.22150  0.37829  1.0000 -0.5398583734
O   O23       1.0  0.31500  0.40260  0.91720  1.0000 -0.5098834402
O   O24       1.0  0.31500  0.09740  0.41720  1.0000 -0.5098834402
