# DDEC6 charges by PACMAN v1.1 (https://github.com/mtap-research/PACMAN-charge/)
data_2013[Cu][pto]3[ASR]2
_chemical_formula_sum              "Cu24 H288 C480 N48 O144"
_cell_length_a       32.365
_cell_length_b       32.365
_cell_length_c       32.365
_cell_angle_alpha    90
_cell_angle_beta     90
_cell_angle_gamma    90

_symmetry_space_group_name_H-M    "P 1"
_symmetry_Int_Tables_number       1

loop_
  _symmetry_equiv_pos_as_xyz
  'x, y, z'

loop_
  _atom_site_type_symbol
  _atom_site_label
  _atom_site_symmetry_multiplicity
  _atom_site_fract_x
  _atom_site_fract_y
  _atom_site_fract_z
  _atom_site_occupancy
  _atom_site_charge
Cu  Cu1       1.0  0.50000  0.29042  0.00000  1.0000 0.8027871471
Cu  Cu2       1.0  0.50000  0.70958  0.00000  1.0000 0.8027871471
Cu  Cu3       1.0  0.29042  0.00000  0.50000  1.0000 0.8027871471
Cu  Cu4       1.0  0.70958  0.00000  0.50000  1.0000 0.8027871471
Cu  Cu5       1.0  0.00000  0.50000  0.70958  1.0000 0.8027871471
Cu  Cu6       1.0  0.00000  0.50000  0.29042  1.0000 0.8027871471
Cu  Cu7       1.0  0.20958  0.00000  0.50000  1.0000 0.8027871471
Cu  Cu8       1.0  0.79042  0.00000  0.50000  1.0000 0.8027871471
Cu  Cu9       1.0  0.50000  0.20958  0.00000  1.0000 0.8027871471
Cu  Cu10      1.0  0.50000  0.79042  0.00000  1.0000 0.8027871471
Cu  Cu11      1.0  0.00000  0.50000  0.20958  1.0000 0.8027871471
Cu  Cu12      1.0  0.00000  0.50000  0.79042  1.0000 0.8027871471
Cu  Cu13      1.0  0.29042  0.50000  0.00000  1.0000 0.8027871471
Cu  Cu14      1.0  0.70958  0.50000  0.00000  1.0000 0.8027871471
Cu  Cu15      1.0  0.00000  0.29042  0.50000  1.0000 0.8027871471
Cu  Cu16      1.0  0.00000  0.70958  0.50000  1.0000 0.8027871471
Cu  Cu17      1.0  0.50000  0.00000  0.29042  1.0000 0.8027871471
Cu  Cu18      1.0  0.50000  0.00000  0.70958  1.0000 0.8027871471
Cu  Cu19      1.0  0.00000  0.20958  0.50000  1.0000 0.8027871471
Cu  Cu20      1.0  0.00000  0.79042  0.50000  1.0000 0.8027871471
Cu  Cu21      1.0  0.20958  0.50000  0.00000  1.0000 0.8027871471
Cu  Cu22      1.0  0.79042  0.50000  0.00000  1.0000 0.8027871471
Cu  Cu23      1.0  0.50000  0.00000  0.79042  1.0000 0.8027871471
Cu  Cu24      1.0  0.50000  0.00000  0.20958  1.0000 0.8027871471
H   H1        1.0  0.36400  0.23590  0.77890  1.0000 0.284512034
H   H2        1.0  0.63600  0.76410  0.77890  1.0000 0.284512034
H   H3        1.0  0.36400  0.76410  0.22110  1.0000 0.284512034
H   H4        1.0  0.63600  0.23590  0.22110  1.0000 0.284512034
H   H5        1.0  0.23590  0.22110  0.63600  1.0000 0.284512034
H   H6        1.0  0.76410  0.22110  0.36400  1.0000 0.284512034
H   H7        1.0  0.76410  0.77890  0.63600  1.0000 0.284512034
H   H8        1.0  0.23590  0.77890  0.36400  1.0000 0.284512034
H   H9        1.0  0.22110  0.36400  0.76410  1.0000 0.284512034
H   H10       1.0  0.22110  0.63600  0.23590  1.0000 0.284512034
H   H11       1.0  0.77890  0.36400  0.23590  1.0000 0.284512034
H   H12       1.0  0.77890  0.63600  0.76410  1.0000 0.284512034
H   H13       1.0  0.26410  0.13600  0.27890  1.0000 0.284512034
H   H14       1.0  0.73590  0.86400  0.27890  1.0000 0.284512034
H   H15       1.0  0.73590  0.13600  0.72110  1.0000 0.284512034
H   H16       1.0  0.26410  0.86400  0.72110  1.0000 0.284512034
H   H17       1.0  0.27890  0.26410  0.13600  1.0000 0.284512034
H   H18       1.0  0.27890  0.73590  0.86400  1.0000 0.284512034
H   H19       1.0  0.72110  0.73590  0.13600  1.0000 0.284512034
H   H20       1.0  0.72110  0.26410  0.86400  1.0000 0.284512034
H   H21       1.0  0.13600  0.27890  0.26410  1.0000 0.284512034
H   H22       1.0  0.86400  0.27890  0.73590  1.0000 0.284512034
H   H23       1.0  0.13600  0.72110  0.73590  1.0000 0.284512034
H   H24       1.0  0.86400  0.72110  0.26410  1.0000 0.284512034
H   H25       1.0  0.42840  0.31960  0.89730  1.0000 0.1223124948
H   H26       1.0  0.57160  0.68040  0.89730  1.0000 0.1223124948
H   H27       1.0  0.42840  0.68040  0.10270  1.0000 0.1223124948
H   H28       1.0  0.57160  0.31960  0.10270  1.0000 0.1223124948
H   H29       1.0  0.31960  0.10270  0.57160  1.0000 0.1223124948
H   H30       1.0  0.68040  0.10270  0.42840  1.0000 0.1223124948
H   H31       1.0  0.68040  0.89730  0.57160  1.0000 0.1223124948
H   H32       1.0  0.31960  0.89730  0.42840  1.0000 0.1223124948
H   H33       1.0  0.10270  0.42840  0.68040  1.0000 0.1223124948
H   H34       1.0  0.10270  0.57160  0.31960  1.0000 0.1223124948
H   H35       1.0  0.89730  0.42840  0.31960  1.0000 0.1223124948
H   H36       1.0  0.89730  0.57160  0.68040  1.0000 0.1223124948
H   H37       1.0  0.18040  0.07160  0.39730  1.0000 0.1223124948
H   H38       1.0  0.81960  0.92840  0.39730  1.0000 0.1223124948
H   H39       1.0  0.81960  0.07160  0.60270  1.0000 0.1223124948
H   H40       1.0  0.18040  0.92840  0.60270  1.0000 0.1223124948
H   H41       1.0  0.39730  0.18040  0.07160  1.0000 0.1223124948
H   H42       1.0  0.39730  0.81960  0.92840  1.0000 0.1223124948
H   H43       1.0  0.60270  0.81960  0.07160  1.0000 0.1223124948
H   H44       1.0  0.60270  0.18040  0.92840  1.0000 0.1223124948
H   H45       1.0  0.07160  0.39730  0.18040  1.0000 0.1223124948
H   H46       1.0  0.92840  0.39730  0.81960  1.0000 0.1223124948
H   H47       1.0  0.07160  0.60270  0.81960  1.0000 0.1223124948
H   H48       1.0  0.92840  0.60270  0.18040  1.0000 0.1223124948
H   H49       1.0  0.38610  0.32000  0.83860  1.0000 0.129334079
H   H50       1.0  0.61390  0.68000  0.83860  1.0000 0.129334079
H   H51       1.0  0.38610  0.68000  0.16140  1.0000 0.129334079
H   H52       1.0  0.61390  0.32000  0.16140  1.0000 0.129334079
H   H53       1.0  0.32000  0.16140  0.61390  1.0000 0.129334079
H   H54       1.0  0.68000  0.16140  0.38610  1.0000 0.129334079
H   H55       1.0  0.68000  0.83860  0.61390  1.0000 0.129334079
H   H56       1.0  0.32000  0.83860  0.38610  1.0000 0.129334079
H   H57       1.0  0.16140  0.38610  0.68000  1.0000 0.129334079
H   H58       1.0  0.16140  0.61390  0.32000  1.0000 0.129334079
H   H59       1.0  0.83860  0.38610  0.32000  1.0000 0.129334079
H   H60       1.0  0.83860  0.61390  0.68000  1.0000 0.129334079
H   H61       1.0  0.18000  0.11390  0.33860  1.0000 0.129334079
H   H62       1.0  0.82000  0.88610  0.33860  1.0000 0.129334079
H   H63       1.0  0.82000  0.11390  0.66140  1.0000 0.129334079
H   H64       1.0  0.18000  0.88610  0.66140  1.0000 0.129334079
H   H65       1.0  0.33860  0.18000  0.11390  1.0000 0.129334079
H   H66       1.0  0.33860  0.82000  0.88610  1.0000 0.129334079
H   H67       1.0  0.66140  0.82000  0.11390  1.0000 0.129334079
H   H68       1.0  0.66140  0.18000  0.88610  1.0000 0.129334079
H   H69       1.0  0.11390  0.33860  0.18000  1.0000 0.129334079
H   H70       1.0  0.88610  0.33860  0.82000  1.0000 0.129334079
H   H71       1.0  0.11390  0.66140  0.82000  1.0000 0.129334079
H   H72       1.0  0.88610  0.66140  0.18000  1.0000 0.129334079
H   H73       1.0  0.38900  0.19480  0.83570  1.0000 0.129334079
H   H74       1.0  0.61100  0.80520  0.83570  1.0000 0.129334079
H   H75       1.0  0.38900  0.80520  0.16430  1.0000 0.129334079
H   H76       1.0  0.61100  0.19480  0.16430  1.0000 0.129334079
H   H77       1.0  0.19480  0.16430  0.61100  1.0000 0.129334079
H   H78       1.0  0.80520  0.16430  0.38900  1.0000 0.129334079
H   H79       1.0  0.80520  0.83570  0.61100  1.0000 0.129334079
H   H80       1.0  0.19480  0.83570  0.38900  1.0000 0.129334079
H   H81       1.0  0.16430  0.38900  0.80520  1.0000 0.129334079
H   H82       1.0  0.16430  0.61100  0.19480  1.0000 0.129334079
H   H83       1.0  0.83570  0.38900  0.19480  1.0000 0.129334079
H   H84       1.0  0.83570  0.61100  0.80520  1.0000 0.129334079
H   H85       1.0  0.30520  0.11100  0.33570  1.0000 0.129334079
H   H86       1.0  0.69480  0.88900  0.33570  1.0000 0.129334079
H   H87       1.0  0.69480  0.11100  0.66430  1.0000 0.129334079
H   H88       1.0  0.30520  0.88900  0.66430  1.0000 0.129334079
H   H89       1.0  0.33570  0.30520  0.11100  1.0000 0.129334079
H   H90       1.0  0.33570  0.69480  0.88900  1.0000 0.129334079
H   H91       1.0  0.66430  0.69480  0.11100  1.0000 0.129334079
H   H92       1.0  0.66430  0.30520  0.88900  1.0000 0.129334079
H   H93       1.0  0.11100  0.33570  0.30520  1.0000 0.129334079
H   H94       1.0  0.88900  0.33570  0.69480  1.0000 0.129334079
H   H95       1.0  0.11100  0.66430  0.69480  1.0000 0.129334079
H   H96       1.0  0.88900  0.66430  0.30520  1.0000 0.129334079
H   H97       1.0  0.43130  0.19440  0.89430  1.0000 0.129334079
H   H98       1.0  0.56870  0.80560  0.89430  1.0000 0.129334079
H   H99       1.0  0.43130  0.80560  0.10570  1.0000 0.129334079
H   H100      1.0  0.56870  0.19440  0.10570  1.0000 0.129334079
H   H101      1.0  0.19440  0.10570  0.56870  1.0000 0.129334079
H   H102      1.0  0.80560  0.10570  0.43130  1.0000 0.129334079
H   H103      1.0  0.80560  0.89430  0.56870  1.0000 0.129334079
H   H104      1.0  0.19440  0.89430  0.43130  1.0000 0.129334079
H   H105      1.0  0.10570  0.43130  0.80560  1.0000 0.129334079
H   H106      1.0  0.10570  0.56870  0.19440  1.0000 0.129334079
H   H107      1.0  0.89430  0.43130  0.19440  1.0000 0.129334079
H   H108      1.0  0.89430  0.56870  0.80560  1.0000 0.129334079
H   H109      1.0  0.30560  0.06870  0.39430  1.0000 0.129334079
H   H110      1.0  0.69440  0.93130  0.39430  1.0000 0.129334079
H   H111      1.0  0.69440  0.06870  0.60570  1.0000 0.129334079
H   H112      1.0  0.30560  0.93130  0.60570  1.0000 0.129334079
H   H113      1.0  0.39430  0.30560  0.06870  1.0000 0.129334079
H   H114      1.0  0.39430  0.69440  0.93130  1.0000 0.129334079
H   H115      1.0  0.60570  0.69440  0.06870  1.0000 0.129334079
H   H116      1.0  0.60570  0.30560  0.93130  1.0000 0.129334079
H   H117      1.0  0.06870  0.39430  0.30560  1.0000 0.129334079
H   H118      1.0  0.93130  0.39430  0.69440  1.0000 0.129334079
H   H119      1.0  0.06870  0.60570  0.69440  1.0000 0.129334079
H   H120      1.0  0.93130  0.60570  0.30560  1.0000 0.129334079
H   H121      1.0  0.33150  0.23100  0.72890  1.0000 0.1223124948
H   H122      1.0  0.66850  0.76900  0.72890  1.0000 0.1223124948
H   H123      1.0  0.33150  0.76900  0.27110  1.0000 0.1223124948
H   H124      1.0  0.66850  0.23100  0.27110  1.0000 0.1223124948
H   H125      1.0  0.23100  0.27110  0.66850  1.0000 0.1223124948
H   H126      1.0  0.76900  0.27110  0.33150  1.0000 0.1223124948
H   H127      1.0  0.76900  0.72890  0.66850  1.0000 0.1223124948
H   H128      1.0  0.23100  0.72890  0.33150  1.0000 0.1223124948
H   H129      1.0  0.27110  0.33150  0.76900  1.0000 0.1223124948
H   H130      1.0  0.27110  0.66850  0.23100  1.0000 0.1223124948
H   H131      1.0  0.72890  0.33150  0.23100  1.0000 0.1223124948
H   H132      1.0  0.72890  0.66850  0.76900  1.0000 0.1223124948
H   H133      1.0  0.26900  0.16850  0.22890  1.0000 0.1223124948
H   H134      1.0  0.73100  0.83150  0.22890  1.0000 0.1223124948
H   H135      1.0  0.73100  0.16850  0.77110  1.0000 0.1223124948
H   H136      1.0  0.26900  0.83150  0.77110  1.0000 0.1223124948
H   H137      1.0  0.22890  0.26900  0.16850  1.0000 0.1223124948
H   H138      1.0  0.22890  0.73100  0.83150  1.0000 0.1223124948
H   H139      1.0  0.77110  0.73100  0.16850  1.0000 0.1223124948
H   H140      1.0  0.77110  0.26900  0.83150  1.0000 0.1223124948
H   H141      1.0  0.16850  0.22890  0.26900  1.0000 0.1223124948
H   H142      1.0  0.83150  0.22890  0.73100  1.0000 0.1223124948
H   H143      1.0  0.16850  0.77110  0.73100  1.0000 0.1223124948
H   H144      1.0  0.83150  0.77110  0.26900  1.0000 0.1223124948
H   H145      1.0  0.23590  0.36400  0.22110  1.0000 0.284512034
H   H146      1.0  0.76410  0.63600  0.22110  1.0000 0.284512034
H   H147      1.0  0.76410  0.36400  0.77890  1.0000 0.284512034
H   H148      1.0  0.23590  0.63600  0.77890  1.0000 0.284512034
H   H149      1.0  0.22110  0.23590  0.36400  1.0000 0.284512034
H   H150      1.0  0.22110  0.76410  0.63600  1.0000 0.284512034
H   H151      1.0  0.77890  0.76410  0.36400  1.0000 0.284512034
H   H152      1.0  0.77890  0.23590  0.63600  1.0000 0.284512034
H   H153      1.0  0.36400  0.22110  0.23590  1.0000 0.284512034
H   H154      1.0  0.63600  0.22110  0.76410  1.0000 0.284512034
H   H155      1.0  0.36400  0.77890  0.76410  1.0000 0.284512034
H   H156      1.0  0.63600  0.77890  0.23590  1.0000 0.284512034
H   H157      1.0  0.13600  0.26410  0.72110  1.0000 0.284512034
H   H158      1.0  0.86400  0.73590  0.72110  1.0000 0.284512034
H   H159      1.0  0.13600  0.73590  0.27890  1.0000 0.284512034
H   H160      1.0  0.86400  0.26410  0.27890  1.0000 0.284512034
H   H161      1.0  0.26410  0.27890  0.86400  1.0000 0.284512034
H   H162      1.0  0.73590  0.27890  0.13600  1.0000 0.284512034
H   H163      1.0  0.73590  0.72110  0.86400  1.0000 0.284512034
H   H164      1.0  0.26410  0.72110  0.13600  1.0000 0.284512034
H   H165      1.0  0.27890  0.13600  0.73590  1.0000 0.284512034
H   H166      1.0  0.27890  0.86400  0.26410  1.0000 0.284512034
H   H167      1.0  0.72110  0.13600  0.26410  1.0000 0.284512034
H   H168      1.0  0.72110  0.86400  0.73590  1.0000 0.284512034
H   H169      1.0  0.31960  0.42840  0.10270  1.0000 0.1223124948
H   H170      1.0  0.68040  0.57160  0.10270  1.0000 0.1223124948
H   H171      1.0  0.68040  0.42840  0.89730  1.0000 0.1223124948
H   H172      1.0  0.31960  0.57160  0.89730  1.0000 0.1223124948
H   H173      1.0  0.10270  0.31960  0.42840  1.0000 0.1223124948
H   H174      1.0  0.10270  0.68040  0.57160  1.0000 0.1223124948
H   H175      1.0  0.89730  0.68040  0.42840  1.0000 0.1223124948
H   H176      1.0  0.89730  0.31960  0.57160  1.0000 0.1223124948
H   H177      1.0  0.42840  0.10270  0.31960  1.0000 0.1223124948
H   H178      1.0  0.57160  0.10270  0.68040  1.0000 0.1223124948
H   H179      1.0  0.42840  0.89730  0.68040  1.0000 0.1223124948
H   H180      1.0  0.57160  0.89730  0.31960  1.0000 0.1223124948
H   H181      1.0  0.07160  0.18040  0.60270  1.0000 0.1223124948
H   H182      1.0  0.92840  0.81960  0.60270  1.0000 0.1223124948
H   H183      1.0  0.07160  0.81960  0.39730  1.0000 0.1223124948
H   H184      1.0  0.92840  0.18040  0.39730  1.0000 0.1223124948
H   H185      1.0  0.18040  0.39730  0.92840  1.0000 0.1223124948
H   H186      1.0  0.81960  0.39730  0.07160  1.0000 0.1223124948
H   H187      1.0  0.81960  0.60270  0.92840  1.0000 0.1223124948
H   H188      1.0  0.18040  0.60270  0.07160  1.0000 0.1223124948
H   H189      1.0  0.39730  0.07160  0.81960  1.0000 0.1223124948
H   H190      1.0  0.39730  0.92840  0.18040  1.0000 0.1223124948
H   H191      1.0  0.60270  0.07160  0.18040  1.0000 0.1223124948
H   H192      1.0  0.60270  0.92840  0.81960  1.0000 0.1223124948
H   H193      1.0  0.32000  0.38610  0.16140  1.0000 0.129334079
H   H194      1.0  0.68000  0.61390  0.16140  1.0000 0.129334079
H   H195      1.0  0.68000  0.38610  0.83860  1.0000 0.129334079
H   H196      1.0  0.32000  0.61390  0.83860  1.0000 0.129334079
H   H197      1.0  0.16140  0.32000  0.38610  1.0000 0.129334079
H   H198      1.0  0.16140  0.68000  0.61390  1.0000 0.129334079
H   H199      1.0  0.83860  0.68000  0.38610  1.0000 0.129334079
H   H200      1.0  0.83860  0.32000  0.61390  1.0000 0.129334079
H   H201      1.0  0.38610  0.16140  0.32000  1.0000 0.129334079
H   H202      1.0  0.61390  0.16140  0.68000  1.0000 0.129334079
H   H203      1.0  0.38610  0.83860  0.68000  1.0000 0.129334079
H   H204      1.0  0.61390  0.83860  0.32000  1.0000 0.129334079
H   H205      1.0  0.11390  0.18000  0.66140  1.0000 0.129334079
H   H206      1.0  0.88610  0.82000  0.66140  1.0000 0.129334079
H   H207      1.0  0.11390  0.82000  0.33860  1.0000 0.129334079
H   H208      1.0  0.88610  0.18000  0.33860  1.0000 0.129334079
H   H209      1.0  0.18000  0.33860  0.88610  1.0000 0.129334079
H   H210      1.0  0.82000  0.33860  0.11390  1.0000 0.129334079
H   H211      1.0  0.82000  0.66140  0.88610  1.0000 0.129334079
H   H212      1.0  0.18000  0.66140  0.11390  1.0000 0.129334079
H   H213      1.0  0.33860  0.11390  0.82000  1.0000 0.129334079
H   H214      1.0  0.33860  0.88610  0.18000  1.0000 0.129334079
H   H215      1.0  0.66140  0.11390  0.18000  1.0000 0.129334079
H   H216      1.0  0.66140  0.88610  0.82000  1.0000 0.129334079
H   H217      1.0  0.19480  0.38900  0.16430  1.0000 0.129334079
H   H218      1.0  0.80520  0.61100  0.16430  1.0000 0.129334079
H   H219      1.0  0.80520  0.38900  0.83570  1.0000 0.129334079
H   H220      1.0  0.19480  0.61100  0.83570  1.0000 0.129334079
H   H221      1.0  0.16430  0.19480  0.38900  1.0000 0.129334079
H   H222      1.0  0.16430  0.80520  0.61100  1.0000 0.129334079
H   H223      1.0  0.83570  0.80520  0.38900  1.0000 0.129334079
H   H224      1.0  0.83570  0.19480  0.61100  1.0000 0.129334079
H   H225      1.0  0.38900  0.16430  0.19480  1.0000 0.129334079
H   H226      1.0  0.61100  0.16430  0.80520  1.0000 0.129334079
H   H227      1.0  0.38900  0.83570  0.80520  1.0000 0.129334079
H   H228      1.0  0.61100  0.83570  0.19480  1.0000 0.129334079
H   H229      1.0  0.11100  0.30520  0.66430  1.0000 0.129334079
H   H230      1.0  0.88900  0.69480  0.66430  1.0000 0.129334079
H   H231      1.0  0.11100  0.69480  0.33570  1.0000 0.129334079
H   H232      1.0  0.88900  0.30520  0.33570  1.0000 0.129334079
H   H233      1.0  0.30520  0.33570  0.88900  1.0000 0.129334079
H   H234      1.0  0.69480  0.33570  0.11100  1.0000 0.129334079
H   H235      1.0  0.69480  0.66430  0.88900  1.0000 0.129334079
H   H236      1.0  0.30520  0.66430  0.11100  1.0000 0.129334079
H   H237      1.0  0.33570  0.11100  0.69480  1.0000 0.129334079
H   H238      1.0  0.33570  0.88900  0.30520  1.0000 0.129334079
H   H239      1.0  0.66430  0.11100  0.30520  1.0000 0.129334079
H   H240      1.0  0.66430  0.88900  0.69480  1.0000 0.129334079
H   H241      1.0  0.19440  0.43130  0.10570  1.0000 0.129334079
H   H242      1.0  0.80560  0.56870  0.10570  1.0000 0.129334079
H   H243      1.0  0.80560  0.43130  0.89430  1.0000 0.129334079
H   H244      1.0  0.19440  0.56870  0.89430  1.0000 0.129334079
H   H245      1.0  0.10570  0.19440  0.43130  1.0000 0.129334079
H   H246      1.0  0.10570  0.80560  0.56870  1.0000 0.129334079
H   H247      1.0  0.89430  0.80560  0.43130  1.0000 0.129334079
H   H248      1.0  0.89430  0.19440  0.56870  1.0000 0.129334079
H   H249      1.0  0.43130  0.10570  0.19440  1.0000 0.129334079
H   H250      1.0  0.56870  0.10570  0.80560  1.0000 0.129334079
H   H251      1.0  0.43130  0.89430  0.80560  1.0000 0.129334079
H   H252      1.0  0.56870  0.89430  0.19440  1.0000 0.129334079
H   H253      1.0  0.06870  0.30560  0.60570  1.0000 0.129334079
H   H254      1.0  0.93130  0.69440  0.60570  1.0000 0.129334079
H   H255      1.0  0.06870  0.69440  0.39430  1.0000 0.129334079
H   H256      1.0  0.93130  0.30560  0.39430  1.0000 0.129334079
H   H257      1.0  0.30560  0.39430  0.93130  1.0000 0.129334079
H   H258      1.0  0.69440  0.39430  0.06870  1.0000 0.129334079
H   H259      1.0  0.69440  0.60570  0.93130  1.0000 0.129334079
H   H260      1.0  0.30560  0.60570  0.06870  1.0000 0.129334079
H   H261      1.0  0.39430  0.06870  0.69440  1.0000 0.129334079
H   H262      1.0  0.39430  0.93130  0.30560  1.0000 0.129334079
H   H263      1.0  0.60570  0.06870  0.30560  1.0000 0.129334079
H   H264      1.0  0.60570  0.93130  0.69440  1.0000 0.129334079
H   H265      1.0  0.23100  0.33150  0.27110  1.0000 0.1223124948
H   H266      1.0  0.76900  0.66850  0.27110  1.0000 0.1223124948
H   H267      1.0  0.76900  0.33150  0.72890  1.0000 0.1223124948
H   H268      1.0  0.23100  0.66850  0.72890  1.0000 0.1223124948
H   H269      1.0  0.27110  0.23100  0.33150  1.0000 0.1223124948
H   H270      1.0  0.27110  0.76900  0.66850  1.0000 0.1223124948
H   H271      1.0  0.72890  0.76900  0.33150  1.0000 0.1223124948
H   H272      1.0  0.72890  0.23100  0.66850  1.0000 0.1223124948
H   H273      1.0  0.33150  0.27110  0.23100  1.0000 0.1223124948
H   H274      1.0  0.66850  0.27110  0.76900  1.0000 0.1223124948
H   H275      1.0  0.33150  0.72890  0.76900  1.0000 0.1223124948
H   H276      1.0  0.66850  0.72890  0.23100  1.0000 0.1223124948
H   H277      1.0  0.16850  0.26900  0.77110  1.0000 0.1223124948
H   H278      1.0  0.83150  0.73100  0.77110  1.0000 0.1223124948
H   H279      1.0  0.16850  0.73100  0.22890  1.0000 0.1223124948
H   H280      1.0  0.83150  0.26900  0.22890  1.0000 0.1223124948
H   H281      1.0  0.26900  0.22890  0.83150  1.0000 0.1223124948
H   H282      1.0  0.73100  0.22890  0.16850  1.0000 0.1223124948
H   H283      1.0  0.73100  0.77110  0.83150  1.0000 0.1223124948
H   H284      1.0  0.26900  0.77110  0.16850  1.0000 0.1223124948
H   H285      1.0  0.22890  0.16850  0.73100  1.0000 0.1223124948
H   H286      1.0  0.22890  0.83150  0.26900  1.0000 0.1223124948
H   H287      1.0  0.77110  0.16850  0.26900  1.0000 0.1223124948
H   H288      1.0  0.77110  0.83150  0.73100  1.0000 0.1223124948
C   C1        1.0  0.46000  0.25210  0.94007  1.0000 0.5425129107
C   C2        1.0  0.54000  0.74790  0.94007  1.0000 0.5425129107
C   C3        1.0  0.46000  0.74790  0.05993  1.0000 0.5425129107
C   C4        1.0  0.54000  0.25210  0.05993  1.0000 0.5425129107
C   C5        1.0  0.25210  0.05993  0.54000  1.0000 0.5425129107
C   C6        1.0  0.74790  0.05993  0.46000  1.0000 0.5425129107
C   C7        1.0  0.74790  0.94007  0.54000  1.0000 0.5425129107
C   C8        1.0  0.25210  0.94007  0.46000  1.0000 0.5425129107
C   C9        1.0  0.05993  0.46000  0.74790  1.0000 0.5425129107
C   C10       1.0  0.05993  0.54000  0.25210  1.0000 0.5425129107
C   C11       1.0  0.94007  0.46000  0.25210  1.0000 0.5425129107
C   C12       1.0  0.94007  0.54000  0.74790  1.0000 0.5425129107
C   C13       1.0  0.24790  0.04000  0.44007  1.0000 0.5425129107
C   C14       1.0  0.75210  0.96000  0.44007  1.0000 0.5425129107
C   C15       1.0  0.75210  0.04000  0.55993  1.0000 0.5425129107
C   C16       1.0  0.24790  0.96000  0.55993  1.0000 0.5425129107
C   C17       1.0  0.44007  0.24790  0.04000  1.0000 0.5425129107
C   C18       1.0  0.44007  0.75210  0.96000  1.0000 0.5425129107
C   C19       1.0  0.55993  0.75210  0.04000  1.0000 0.5425129107
C   C20       1.0  0.55993  0.24790  0.96000  1.0000 0.5425129107
C   C21       1.0  0.04000  0.44007  0.24790  1.0000 0.5425129107
C   C22       1.0  0.96000  0.44007  0.75210  1.0000 0.5425129107
C   C23       1.0  0.04000  0.55993  0.75210  1.0000 0.5425129107
C   C24       1.0  0.96000  0.55993  0.24790  1.0000 0.5425129107
C   C25       1.0  0.43385  0.25700  0.90130  1.0000 -0.0390362992
C   C26       1.0  0.56615  0.74300  0.90130  1.0000 -0.0390362992
C   C27       1.0  0.43385  0.74300  0.09870  1.0000 -0.0390362992
C   C28       1.0  0.56615  0.25700  0.09870  1.0000 -0.0390362992
C   C29       1.0  0.25700  0.09870  0.56615  1.0000 -0.0390362992
C   C30       1.0  0.74300  0.09870  0.43385  1.0000 -0.0390362992
C   C31       1.0  0.74300  0.90130  0.56615  1.0000 -0.0390362992
C   C32       1.0  0.25700  0.90130  0.43385  1.0000 -0.0390362992
C   C33       1.0  0.09870  0.43385  0.74300  1.0000 -0.0390362992
C   C34       1.0  0.09870  0.56615  0.25700  1.0000 -0.0390362992
C   C35       1.0  0.90130  0.43385  0.25700  1.0000 -0.0390362992
C   C36       1.0  0.90130  0.56615  0.74300  1.0000 -0.0390362992
C   C37       1.0  0.24300  0.06615  0.40130  1.0000 -0.0390362992
C   C38       1.0  0.75700  0.93385  0.40130  1.0000 -0.0390362992
C   C39       1.0  0.75700  0.06615  0.59870  1.0000 -0.0390362992
C   C40       1.0  0.24300  0.93385  0.59870  1.0000 -0.0390362992
C   C41       1.0  0.40130  0.24300  0.06615  1.0000 -0.0390362992
C   C42       1.0  0.40130  0.75700  0.93385  1.0000 -0.0390362992
C   C43       1.0  0.59870  0.75700  0.06615  1.0000 -0.0390362992
C   C44       1.0  0.59870  0.24300  0.93385  1.0000 -0.0390362992
C   C45       1.0  0.06615  0.40130  0.24300  1.0000 -0.0390362992
C   C46       1.0  0.93385  0.40130  0.75700  1.0000 -0.0390362992
C   C47       1.0  0.06615  0.59870  0.75700  1.0000 -0.0390362992
C   C48       1.0  0.93385  0.59870  0.24300  1.0000 -0.0390362992
C   C49       1.0  0.42044  0.29430  0.88476  1.0000 -0.0802572364
C   C50       1.0  0.57956  0.70570  0.88476  1.0000 -0.0802572364
C   C51       1.0  0.42044  0.70570  0.11524  1.0000 -0.0802572364
C   C52       1.0  0.57956  0.29430  0.11524  1.0000 -0.0802572364
C   C53       1.0  0.29430  0.11524  0.57956  1.0000 -0.0802572364
C   C54       1.0  0.70570  0.11524  0.42044  1.0000 -0.0802572364
C   C55       1.0  0.70570  0.88476  0.57956  1.0000 -0.0802572364
C   C56       1.0  0.29430  0.88476  0.42044  1.0000 -0.0802572364
C   C57       1.0  0.11524  0.42044  0.70570  1.0000 -0.0802572364
C   C58       1.0  0.11524  0.57956  0.29430  1.0000 -0.0802572364
C   C59       1.0  0.88476  0.42044  0.29430  1.0000 -0.0802572364
C   C60       1.0  0.88476  0.57956  0.70570  1.0000 -0.0802572364
C   C61       1.0  0.20570  0.07956  0.38476  1.0000 -0.0802572364
C   C62       1.0  0.79430  0.92044  0.38476  1.0000 -0.0802572364
C   C63       1.0  0.79430  0.07956  0.61524  1.0000 -0.0802572364
C   C64       1.0  0.20570  0.92044  0.61524  1.0000 -0.0802572364
C   C65       1.0  0.38476  0.20570  0.07956  1.0000 -0.0802572364
C   C66       1.0  0.38476  0.79430  0.92044  1.0000 -0.0802572364
C   C67       1.0  0.61524  0.79430  0.07956  1.0000 -0.0802572364
C   C68       1.0  0.61524  0.20570  0.92044  1.0000 -0.0802572364
C   C69       1.0  0.07956  0.38476  0.20570  1.0000 -0.0802572364
C   C70       1.0  0.92044  0.38476  0.79430  1.0000 -0.0802572364
C   C71       1.0  0.07956  0.61524  0.79430  1.0000 -0.0802572364
C   C72       1.0  0.92044  0.61524  0.20570  1.0000 -0.0802572364
C   C73       1.0  0.39531  0.29450  0.84993  1.0000 -0.2097395502
C   C74       1.0  0.60469  0.70550  0.84993  1.0000 -0.2097395502
C   C75       1.0  0.39531  0.70550  0.15007  1.0000 -0.2097395502
C   C76       1.0  0.60469  0.29450  0.15007  1.0000 -0.2097395502
C   C77       1.0  0.29450  0.15007  0.60469  1.0000 -0.2097395502
C   C78       1.0  0.70550  0.15007  0.39531  1.0000 -0.2097395502
C   C79       1.0  0.70550  0.84993  0.60469  1.0000 -0.2097395502
C   C80       1.0  0.29450  0.84993  0.39531  1.0000 -0.2097395502
C   C81       1.0  0.15007  0.39531  0.70550  1.0000 -0.2097395502
C   C82       1.0  0.15007  0.60469  0.29450  1.0000 -0.2097395502
C   C83       1.0  0.84993  0.39531  0.29450  1.0000 -0.2097395502
C   C84       1.0  0.84993  0.60469  0.70550  1.0000 -0.2097395502
C   C85       1.0  0.20550  0.10469  0.34993  1.0000 -0.2097395502
C   C86       1.0  0.79450  0.89531  0.34993  1.0000 -0.2097395502
C   C87       1.0  0.79450  0.10469  0.65007  1.0000 -0.2097395502
C   C88       1.0  0.20550  0.89531  0.65007  1.0000 -0.2097395502
C   C89       1.0  0.34993  0.20550  0.10469  1.0000 -0.2097395502
C   C90       1.0  0.34993  0.79450  0.89531  1.0000 -0.2097395502
C   C91       1.0  0.65007  0.79450  0.10469  1.0000 -0.2097395502
C   C92       1.0  0.65007  0.20550  0.89531  1.0000 -0.2097395502
C   C93       1.0  0.10469  0.34993  0.20550  1.0000 -0.2097395502
C   C94       1.0  0.89531  0.34993  0.79450  1.0000 -0.2097395502
C   C95       1.0  0.10469  0.65007  0.79450  1.0000 -0.2097395502
C   C96       1.0  0.89531  0.65007  0.20550  1.0000 -0.2097395502
C   C97       1.0  0.38359  0.25750  0.83165  1.0000 0.2382991242
C   C98       1.0  0.61641  0.74250  0.83165  1.0000 0.2382991242
C   C99       1.0  0.38359  0.74250  0.16835  1.0000 0.2382991242
C   C100      1.0  0.61641  0.25750  0.16835  1.0000 0.2382991242
C   C101      1.0  0.25750  0.16835  0.61641  1.0000 0.2382991242
C   C102      1.0  0.74250  0.16835  0.38359  1.0000 0.2382991242
C   C103      1.0  0.74250  0.83165  0.61641  1.0000 0.2382991242
C   C104      1.0  0.25750  0.83165  0.38359  1.0000 0.2382991242
C   C105      1.0  0.16835  0.38359  0.74250  1.0000 0.2382991242
C   C106      1.0  0.16835  0.61641  0.25750  1.0000 0.2382991242
C   C107      1.0  0.83165  0.38359  0.25750  1.0000 0.2382991242
C   C108      1.0  0.83165  0.61641  0.74250  1.0000 0.2382991242
C   C109      1.0  0.24250  0.11641  0.33165  1.0000 0.2382991242
C   C110      1.0  0.75750  0.88359  0.33165  1.0000 0.2382991242
C   C111      1.0  0.75750  0.11641  0.66835  1.0000 0.2382991242
C   C112      1.0  0.24250  0.88359  0.66835  1.0000 0.2382991242
C   C113      1.0  0.33165  0.24250  0.11641  1.0000 0.2382991242
C   C114      1.0  0.33165  0.75750  0.88359  1.0000 0.2382991242
C   C115      1.0  0.66835  0.75750  0.11641  1.0000 0.2382991242
C   C116      1.0  0.66835  0.24250  0.88359  1.0000 0.2382991242
C   C117      1.0  0.11641  0.33165  0.24250  1.0000 0.2382991242
C   C118      1.0  0.88359  0.33165  0.75750  1.0000 0.2382991242
C   C119      1.0  0.11641  0.66835  0.75750  1.0000 0.2382991242
C   C120      1.0  0.88359  0.66835  0.24250  1.0000 0.2382991242
C   C121      1.0  0.39700  0.22020  0.84819  1.0000 -0.2097395502
C   C122      1.0  0.60300  0.77980  0.84819  1.0000 -0.2097395502
C   C123      1.0  0.39700  0.77980  0.15181  1.0000 -0.2097395502
C   C124      1.0  0.60300  0.22020  0.15181  1.0000 -0.2097395502
C   C125      1.0  0.22020  0.15181  0.60300  1.0000 -0.2097395502
C   C126      1.0  0.77980  0.15181  0.39700  1.0000 -0.2097395502
C   C127      1.0  0.77980  0.84819  0.60300  1.0000 -0.2097395502
C   C128      1.0  0.22020  0.84819  0.39700  1.0000 -0.2097395502
C   C129      1.0  0.15181  0.39700  0.77980  1.0000 -0.2097395502
C   C130      1.0  0.15181  0.60300  0.22020  1.0000 -0.2097395502
C   C131      1.0  0.84819  0.39700  0.22020  1.0000 -0.2097395502
C   C132      1.0  0.84819  0.60300  0.77980  1.0000 -0.2097395502
C   C133      1.0  0.27980  0.10300  0.34819  1.0000 -0.2097395502
C   C134      1.0  0.72020  0.89700  0.34819  1.0000 -0.2097395502
C   C135      1.0  0.72020  0.10300  0.65181  1.0000 -0.2097395502
C   C136      1.0  0.27980  0.89700  0.65181  1.0000 -0.2097395502
C   C137      1.0  0.34819  0.27980  0.10300  1.0000 -0.2097395502
C   C138      1.0  0.34819  0.72020  0.89700  1.0000 -0.2097395502
C   C139      1.0  0.65181  0.72020  0.10300  1.0000 -0.2097395502
C   C140      1.0  0.65181  0.27980  0.89700  1.0000 -0.2097395502
C   C141      1.0  0.10300  0.34819  0.27980  1.0000 -0.2097395502
C   C142      1.0  0.89700  0.34819  0.72020  1.0000 -0.2097395502
C   C143      1.0  0.10300  0.65181  0.72020  1.0000 -0.2097395502
C   C144      1.0  0.89700  0.65181  0.27980  1.0000 -0.2097395502
C   C145      1.0  0.42213  0.21990  0.88302  1.0000 -0.0881119145
C   C146      1.0  0.57787  0.78010  0.88302  1.0000 -0.0881119145
C   C147      1.0  0.42213  0.78010  0.11698  1.0000 -0.0881119145
C   C148      1.0  0.57787  0.21990  0.11698  1.0000 -0.0881119145
C   C149      1.0  0.21990  0.11698  0.57787  1.0000 -0.0881119145
C   C150      1.0  0.78010  0.11698  0.42213  1.0000 -0.0881119145
C   C151      1.0  0.78010  0.88302  0.57787  1.0000 -0.0881119145
C   C152      1.0  0.21990  0.88302  0.42213  1.0000 -0.0881119145
C   C153      1.0  0.11698  0.42213  0.78010  1.0000 -0.0881119145
C   C154      1.0  0.11698  0.57787  0.21990  1.0000 -0.0881119145
C   C155      1.0  0.88302  0.42213  0.21990  1.0000 -0.0881119145
C   C156      1.0  0.88302  0.57787  0.78010  1.0000 -0.0881119145
C   C157      1.0  0.28010  0.07787  0.38302  1.0000 -0.0881119145
C   C158      1.0  0.71990  0.92213  0.38302  1.0000 -0.0881119145
C   C159      1.0  0.71990  0.07787  0.61698  1.0000 -0.0881119145
C   C160      1.0  0.28010  0.92213  0.61698  1.0000 -0.0881119145
C   C161      1.0  0.38302  0.28010  0.07787  1.0000 -0.0881119145
C   C162      1.0  0.38302  0.71990  0.92213  1.0000 -0.0881119145
C   C163      1.0  0.61698  0.71990  0.07787  1.0000 -0.0881119145
C   C164      1.0  0.61698  0.28010  0.92213  1.0000 -0.0881119145
C   C165      1.0  0.07787  0.38302  0.28010  1.0000 -0.0881119145
C   C166      1.0  0.92213  0.38302  0.71990  1.0000 -0.0881119145
C   C167      1.0  0.07787  0.61698  0.71990  1.0000 -0.0881119145
C   C168      1.0  0.92213  0.61698  0.28010  1.0000 -0.0881119145
C   C169      1.0  0.33310  0.28450  0.78850  1.0000 0.4213504067
C   C170      1.0  0.66690  0.71550  0.78850  1.0000 0.4213504067
C   C171      1.0  0.33310  0.71550  0.21150  1.0000 0.4213504067
C   C172      1.0  0.66690  0.28450  0.21150  1.0000 0.4213504067
C   C173      1.0  0.28450  0.21150  0.66690  1.0000 0.4213504067
C   C174      1.0  0.71550  0.21150  0.33310  1.0000 0.4213504067
C   C175      1.0  0.71550  0.78850  0.66690  1.0000 0.4213504067
C   C176      1.0  0.28450  0.78850  0.33310  1.0000 0.4213504067
C   C177      1.0  0.21150  0.33310  0.71550  1.0000 0.4213504067
C   C178      1.0  0.21150  0.66690  0.28450  1.0000 0.4213504067
C   C179      1.0  0.78850  0.33310  0.28450  1.0000 0.4213504067
C   C180      1.0  0.78850  0.66690  0.71550  1.0000 0.4213504067
C   C181      1.0  0.21550  0.16690  0.28850  1.0000 0.4213504067
C   C182      1.0  0.78450  0.83310  0.28850  1.0000 0.4213504067
C   C183      1.0  0.78450  0.16690  0.71150  1.0000 0.4213504067
C   C184      1.0  0.21550  0.83310  0.71150  1.0000 0.4213504067
C   C185      1.0  0.28850  0.21550  0.16690  1.0000 0.4213504067
C   C186      1.0  0.28850  0.78450  0.83310  1.0000 0.4213504067
C   C187      1.0  0.71150  0.78450  0.16690  1.0000 0.4213504067
C   C188      1.0  0.71150  0.21550  0.83310  1.0000 0.4213504067
C   C189      1.0  0.16690  0.28850  0.21550  1.0000 0.4213504067
C   C190      1.0  0.83310  0.28850  0.78450  1.0000 0.4213504067
C   C191      1.0  0.16690  0.71150  0.78450  1.0000 0.4213504067
C   C192      1.0  0.83310  0.71150  0.21550  1.0000 0.4213504067
C   C193      1.0  0.30660  0.28260  0.75280  1.0000 -0.0107316063
C   C194      1.0  0.69340  0.71740  0.75280  1.0000 -0.0107316063
C   C195      1.0  0.30660  0.71740  0.24720  1.0000 -0.0107316063
C   C196      1.0  0.69340  0.28260  0.24720  1.0000 -0.0107316063
C   C197      1.0  0.28260  0.24720  0.69340  1.0000 -0.0107316063
C   C198      1.0  0.71740  0.24720  0.30660  1.0000 -0.0107316063
C   C199      1.0  0.71740  0.75280  0.69340  1.0000 -0.0107316063
C   C200      1.0  0.28260  0.75280  0.30660  1.0000 -0.0107316063
C   C201      1.0  0.24720  0.30660  0.71740  1.0000 -0.0107316063
C   C202      1.0  0.24720  0.69340  0.28260  1.0000 -0.0107316063
C   C203      1.0  0.75280  0.30660  0.28260  1.0000 -0.0107316063
C   C204      1.0  0.75280  0.69340  0.71740  1.0000 -0.0107316063
C   C205      1.0  0.21740  0.19340  0.25280  1.0000 -0.0107316063
C   C206      1.0  0.78260  0.80660  0.25280  1.0000 -0.0107316063
C   C207      1.0  0.78260  0.19340  0.74720  1.0000 -0.0107316063
C   C208      1.0  0.21740  0.80660  0.74720  1.0000 -0.0107316063
C   C209      1.0  0.25280  0.21740  0.19340  1.0000 -0.0107316063
C   C210      1.0  0.25280  0.78260  0.80660  1.0000 -0.0107316063
C   C211      1.0  0.74720  0.78260  0.19340  1.0000 -0.0107316063
C   C212      1.0  0.74720  0.21740  0.80660  1.0000 -0.0107316063
C   C213      1.0  0.19340  0.25280  0.21740  1.0000 -0.0107316063
C   C214      1.0  0.80660  0.25280  0.78260  1.0000 -0.0107316063
C   C215      1.0  0.19340  0.74720  0.78260  1.0000 -0.0107316063
C   C216      1.0  0.80660  0.74720  0.21740  1.0000 -0.0107316063
C   C217      1.0  0.31010  0.25080  0.72560  1.0000 -0.1822944623
C   C218      1.0  0.68990  0.74920  0.72560  1.0000 -0.1822944623
C   C219      1.0  0.31010  0.74920  0.27440  1.0000 -0.1822944623
C   C220      1.0  0.68990  0.25080  0.27440  1.0000 -0.1822944623
C   C221      1.0  0.25080  0.27440  0.68990  1.0000 -0.1822944623
C   C222      1.0  0.74920  0.27440  0.31010  1.0000 -0.1822944623
C   C223      1.0  0.74920  0.72560  0.68990  1.0000 -0.1822944623
C   C224      1.0  0.25080  0.72560  0.31010  1.0000 -0.1822944623
C   C225      1.0  0.27440  0.31010  0.74920  1.0000 -0.1822944623
C   C226      1.0  0.27440  0.68990  0.25080  1.0000 -0.1822944623
C   C227      1.0  0.72560  0.31010  0.25080  1.0000 -0.1822944623
C   C228      1.0  0.72560  0.68990  0.74920  1.0000 -0.1822944623
C   C229      1.0  0.24920  0.18990  0.22560  1.0000 -0.1822944623
C   C230      1.0  0.75080  0.81010  0.22560  1.0000 -0.1822944623
C   C231      1.0  0.75080  0.18990  0.77440  1.0000 -0.1822944623
C   C232      1.0  0.24920  0.81010  0.77440  1.0000 -0.1822944623
C   C233      1.0  0.22560  0.24920  0.18990  1.0000 -0.1822944623
C   C234      1.0  0.22560  0.75080  0.81010  1.0000 -0.1822944623
C   C235      1.0  0.77440  0.75080  0.18990  1.0000 -0.1822944623
C   C236      1.0  0.77440  0.24920  0.81010  1.0000 -0.1822944623
C   C237      1.0  0.18990  0.22560  0.24920  1.0000 -0.1822944623
C   C238      1.0  0.81010  0.22560  0.75080  1.0000 -0.1822944623
C   C239      1.0  0.18990  0.77440  0.75080  1.0000 -0.1822944623
C   C240      1.0  0.81010  0.77440  0.24920  1.0000 -0.1822944623
C   C241      1.0  0.25210  0.46000  0.05993  1.0000 0.5425129107
C   C242      1.0  0.74790  0.54000  0.05993  1.0000 0.5425129107
C   C243      1.0  0.74790  0.46000  0.94007  1.0000 0.5425129107
C   C244      1.0  0.25210  0.54000  0.94007  1.0000 0.5425129107
C   C245      1.0  0.05993  0.25210  0.46000  1.0000 0.5425129107
C   C246      1.0  0.05993  0.74790  0.54000  1.0000 0.5425129107
C   C247      1.0  0.94007  0.74790  0.46000  1.0000 0.5425129107
C   C248      1.0  0.94007  0.25210  0.54000  1.0000 0.5425129107
C   C249      1.0  0.46000  0.05993  0.25210  1.0000 0.5425129107
C   C250      1.0  0.54000  0.05993  0.74790  1.0000 0.5425129107
C   C251      1.0  0.46000  0.94007  0.74790  1.0000 0.5425129107
C   C252      1.0  0.54000  0.94007  0.25210  1.0000 0.5425129107
C   C253      1.0  0.04000  0.24790  0.55993  1.0000 0.5425129107
C   C254      1.0  0.96000  0.75210  0.55993  1.0000 0.5425129107
C   C255      1.0  0.04000  0.75210  0.44007  1.0000 0.5425129107
C   C256      1.0  0.96000  0.24790  0.44007  1.0000 0.5425129107
C   C257      1.0  0.24790  0.44007  0.96000  1.0000 0.5425129107
C   C258      1.0  0.75210  0.44007  0.04000  1.0000 0.5425129107
C   C259      1.0  0.75210  0.55993  0.96000  1.0000 0.5425129107
C   C260      1.0  0.24790  0.55993  0.04000  1.0000 0.5425129107
C   C261      1.0  0.44007  0.04000  0.75210  1.0000 0.5425129107
C   C262      1.0  0.44007  0.96000  0.24790  1.0000 0.5425129107
C   C263      1.0  0.55993  0.04000  0.24790  1.0000 0.5425129107
C   C264      1.0  0.55993  0.96000  0.75210  1.0000 0.5425129107
C   C265      1.0  0.25700  0.43385  0.09870  1.0000 -0.0390362992
C   C266      1.0  0.74300  0.56615  0.09870  1.0000 -0.0390362992
C   C267      1.0  0.74300  0.43385  0.90130  1.0000 -0.0390362992
C   C268      1.0  0.25700  0.56615  0.90130  1.0000 -0.0390362992
C   C269      1.0  0.09870  0.25700  0.43385  1.0000 -0.0390362992
C   C270      1.0  0.09870  0.74300  0.56615  1.0000 -0.0390362992
C   C271      1.0  0.90130  0.74300  0.43385  1.0000 -0.0390362992
C   C272      1.0  0.90130  0.25700  0.56615  1.0000 -0.0390362992
C   C273      1.0  0.43385  0.09870  0.25700  1.0000 -0.0390362992
C   C274      1.0  0.56615  0.09870  0.74300  1.0000 -0.0390362992
C   C275      1.0  0.43385  0.90130  0.74300  1.0000 -0.0390362992
C   C276      1.0  0.56615  0.90130  0.25700  1.0000 -0.0390362992
C   C277      1.0  0.06615  0.24300  0.59870  1.0000 -0.0390362992
C   C278      1.0  0.93385  0.75700  0.59870  1.0000 -0.0390362992
C   C279      1.0  0.06615  0.75700  0.40130  1.0000 -0.0390362992
C   C280      1.0  0.93385  0.24300  0.40130  1.0000 -0.0390362992
C   C281      1.0  0.24300  0.40130  0.93385  1.0000 -0.0390362992
C   C282      1.0  0.75700  0.40130  0.06615  1.0000 -0.0390362992
C   C283      1.0  0.75700  0.59870  0.93385  1.0000 -0.0390362992
C   C284      1.0  0.24300  0.59870  0.06615  1.0000 -0.0390362992
C   C285      1.0  0.40130  0.06615  0.75700  1.0000 -0.0390362992
C   C286      1.0  0.40130  0.93385  0.24300  1.0000 -0.0390362992
C   C287      1.0  0.59870  0.06615  0.24300  1.0000 -0.0390362992
C   C288      1.0  0.59870  0.93385  0.75700  1.0000 -0.0390362992
C   C289      1.0  0.29430  0.42044  0.11524  1.0000 -0.0802572364
C   C290      1.0  0.70570  0.57956  0.11524  1.0000 -0.0802572364
C   C291      1.0  0.70570  0.42044  0.88476  1.0000 -0.0802572364
C   C292      1.0  0.29430  0.57956  0.88476  1.0000 -0.0802572364
C   C293      1.0  0.11524  0.29430  0.42044  1.0000 -0.0802572364
C   C294      1.0  0.11524  0.70570  0.57956  1.0000 -0.0802572364
C   C295      1.0  0.88476  0.70570  0.42044  1.0000 -0.0802572364
C   C296      1.0  0.88476  0.29430  0.57956  1.0000 -0.0802572364
C   C297      1.0  0.42044  0.11524  0.29430  1.0000 -0.0802572364
C   C298      1.0  0.57956  0.11524  0.70570  1.0000 -0.0802572364
C   C299      1.0  0.42044  0.88476  0.70570  1.0000 -0.0802572364
C   C300      1.0  0.57956  0.88476  0.29430  1.0000 -0.0802572364
C   C301      1.0  0.07956  0.20570  0.61524  1.0000 -0.0802572364
C   C302      1.0  0.92044  0.79430  0.61524  1.0000 -0.0802572364
C   C303      1.0  0.07956  0.79430  0.38476  1.0000 -0.0802572364
C   C304      1.0  0.92044  0.20570  0.38476  1.0000 -0.0802572364
C   C305      1.0  0.20570  0.38476  0.92044  1.0000 -0.0802572364
C   C306      1.0  0.79430  0.38476  0.07956  1.0000 -0.0802572364
C   C307      1.0  0.79430  0.61524  0.92044  1.0000 -0.0802572364
C   C308      1.0  0.20570  0.61524  0.07956  1.0000 -0.0802572364
C   C309      1.0  0.38476  0.07956  0.79430  1.0000 -0.0802572364
C   C310      1.0  0.38476  0.92044  0.20570  1.0000 -0.0802572364
C   C311      1.0  0.61524  0.07956  0.20570  1.0000 -0.0802572364
C   C312      1.0  0.61524  0.92044  0.79430  1.0000 -0.0802572364
C   C313      1.0  0.29450  0.39531  0.15007  1.0000 -0.2097395502
C   C314      1.0  0.70550  0.60469  0.15007  1.0000 -0.2097395502
C   C315      1.0  0.70550  0.39531  0.84993  1.0000 -0.2097395502
C   C316      1.0  0.29450  0.60469  0.84993  1.0000 -0.2097395502
C   C317      1.0  0.15007  0.29450  0.39531  1.0000 -0.2097395502
C   C318      1.0  0.15007  0.70550  0.60469  1.0000 -0.2097395502
C   C319      1.0  0.84993  0.70550  0.39531  1.0000 -0.2097395502
C   C320      1.0  0.84993  0.29450  0.60469  1.0000 -0.2097395502
C   C321      1.0  0.39531  0.15007  0.29450  1.0000 -0.2097395502
C   C322      1.0  0.60469  0.15007  0.70550  1.0000 -0.2097395502
C   C323      1.0  0.39531  0.84993  0.70550  1.0000 -0.2097395502
C   C324      1.0  0.60469  0.84993  0.29450  1.0000 -0.2097395502
C   C325      1.0  0.10469  0.20550  0.65007  1.0000 -0.2097395502
C   C326      1.0  0.89531  0.79450  0.65007  1.0000 -0.2097395502
C   C327      1.0  0.10469  0.79450  0.34993  1.0000 -0.2097395502
C   C328      1.0  0.89531  0.20550  0.34993  1.0000 -0.2097395502
C   C329      1.0  0.20550  0.34993  0.89531  1.0000 -0.2097395502
C   C330      1.0  0.79450  0.34993  0.10469  1.0000 -0.2097395502
C   C331      1.0  0.79450  0.65007  0.89531  1.0000 -0.2097395502
C   C332      1.0  0.20550  0.65007  0.10469  1.0000 -0.2097395502
C   C333      1.0  0.34993  0.10469  0.79450  1.0000 -0.2097395502
C   C334      1.0  0.34993  0.89531  0.20550  1.0000 -0.2097395502
C   C335      1.0  0.65007  0.10469  0.20550  1.0000 -0.2097395502
C   C336      1.0  0.65007  0.89531  0.79450  1.0000 -0.2097395502
C   C337      1.0  0.25750  0.38359  0.16835  1.0000 0.2382991242
C   C338      1.0  0.74250  0.61641  0.16835  1.0000 0.2382991242
C   C339      1.0  0.74250  0.38359  0.83165  1.0000 0.2382991242
C   C340      1.0  0.25750  0.61641  0.83165  1.0000 0.2382991242
C   C341      1.0  0.16835  0.25750  0.38359  1.0000 0.2382991242
C   C342      1.0  0.16835  0.74250  0.61641  1.0000 0.2382991242
C   C343      1.0  0.83165  0.74250  0.38359  1.0000 0.2382991242
C   C344      1.0  0.83165  0.25750  0.61641  1.0000 0.2382991242
C   C345      1.0  0.38359  0.16835  0.25750  1.0000 0.2382991242
C   C346      1.0  0.61641  0.16835  0.74250  1.0000 0.2382991242
C   C347      1.0  0.38359  0.83165  0.74250  1.0000 0.2382991242
C   C348      1.0  0.61641  0.83165  0.25750  1.0000 0.2382991242
C   C349      1.0  0.11641  0.24250  0.66835  1.0000 0.2382991242
C   C350      1.0  0.88359  0.75750  0.66835  1.0000 0.2382991242
C   C351      1.0  0.11641  0.75750  0.33165  1.0000 0.2382991242
C   C352      1.0  0.88359  0.24250  0.33165  1.0000 0.2382991242
C   C353      1.0  0.24250  0.33165  0.88359  1.0000 0.2382991242
C   C354      1.0  0.75750  0.33165  0.11641  1.0000 0.2382991242
C   C355      1.0  0.75750  0.66835  0.88359  1.0000 0.2382991242
C   C356      1.0  0.24250  0.66835  0.11641  1.0000 0.2382991242
C   C357      1.0  0.33165  0.11641  0.75750  1.0000 0.2382991242
C   C358      1.0  0.33165  0.88359  0.24250  1.0000 0.2382991242
C   C359      1.0  0.66835  0.11641  0.24250  1.0000 0.2382991242
C   C360      1.0  0.66835  0.88359  0.75750  1.0000 0.2382991242
C   C361      1.0  0.22020  0.39700  0.15181  1.0000 -0.2097395502
C   C362      1.0  0.77980  0.60300  0.15181  1.0000 -0.2097395502
C   C363      1.0  0.77980  0.39700  0.84819  1.0000 -0.2097395502
C   C364      1.0  0.22020  0.60300  0.84819  1.0000 -0.2097395502
C   C365      1.0  0.15181  0.22020  0.39700  1.0000 -0.2097395502
C   C366      1.0  0.15181  0.77980  0.60300  1.0000 -0.2097395502
C   C367      1.0  0.84819  0.77980  0.39700  1.0000 -0.2097395502
C   C368      1.0  0.84819  0.22020  0.60300  1.0000 -0.2097395502
C   C369      1.0  0.39700  0.15181  0.22020  1.0000 -0.2097395502
C   C370      1.0  0.60300  0.15181  0.77980  1.0000 -0.2097395502
C   C371      1.0  0.39700  0.84819  0.77980  1.0000 -0.2097395502
C   C372      1.0  0.60300  0.84819  0.22020  1.0000 -0.2097395502
C   C373      1.0  0.10300  0.27980  0.65181  1.0000 -0.2097395502
C   C374      1.0  0.89700  0.72020  0.65181  1.0000 -0.2097395502
C   C375      1.0  0.10300  0.72020  0.34819  1.0000 -0.2097395502
C   C376      1.0  0.89700  0.27980  0.34819  1.0000 -0.2097395502
C   C377      1.0  0.27980  0.34819  0.89700  1.0000 -0.2097395502
C   C378      1.0  0.72020  0.34819  0.10300  1.0000 -0.2097395502
C   C379      1.0  0.72020  0.65181  0.89700  1.0000 -0.2097395502
C   C380      1.0  0.27980  0.65181  0.10300  1.0000 -0.2097395502
C   C381      1.0  0.34819  0.10300  0.72020  1.0000 -0.2097395502
C   C382      1.0  0.34819  0.89700  0.27980  1.0000 -0.2097395502
C   C383      1.0  0.65181  0.10300  0.27980  1.0000 -0.2097395502
C   C384      1.0  0.65181  0.89700  0.72020  1.0000 -0.2097395502
C   C385      1.0  0.21990  0.42213  0.11698  1.0000 -0.0881119145
C   C386      1.0  0.78010  0.57787  0.11698  1.0000 -0.0881119145
C   C387      1.0  0.78010  0.42213  0.88302  1.0000 -0.0881119145
C   C388      1.0  0.21990  0.57787  0.88302  1.0000 -0.0881119145
C   C389      1.0  0.11698  0.21990  0.42213  1.0000 -0.0881119145
C   C390      1.0  0.11698  0.78010  0.57787  1.0000 -0.0881119145
C   C391      1.0  0.88302  0.78010  0.42213  1.0000 -0.0881119145
C   C392      1.0  0.88302  0.21990  0.57787  1.0000 -0.0881119145
C   C393      1.0  0.42213  0.11698  0.21990  1.0000 -0.0881119145
C   C394      1.0  0.57787  0.11698  0.78010  1.0000 -0.0881119145
C   C395      1.0  0.42213  0.88302  0.78010  1.0000 -0.0881119145
C   C396      1.0  0.57787  0.88302  0.21990  1.0000 -0.0881119145
C   C397      1.0  0.07787  0.28010  0.61698  1.0000 -0.0881119145
C   C398      1.0  0.92213  0.71990  0.61698  1.0000 -0.0881119145
C   C399      1.0  0.07787  0.71990  0.38302  1.0000 -0.0881119145
C   C400      1.0  0.92213  0.28010  0.38302  1.0000 -0.0881119145
C   C401      1.0  0.28010  0.38302  0.92213  1.0000 -0.0881119145
C   C402      1.0  0.71990  0.38302  0.07787  1.0000 -0.0881119145
C   C403      1.0  0.71990  0.61698  0.92213  1.0000 -0.0881119145
C   C404      1.0  0.28010  0.61698  0.07787  1.0000 -0.0881119145
C   C405      1.0  0.38302  0.07787  0.71990  1.0000 -0.0881119145
C   C406      1.0  0.38302  0.92213  0.28010  1.0000 -0.0881119145
C   C407      1.0  0.61698  0.07787  0.28010  1.0000 -0.0881119145
C   C408      1.0  0.61698  0.92213  0.71990  1.0000 -0.0881119145
C   C409      1.0  0.28450  0.33310  0.21150  1.0000 0.4213504067
C   C410      1.0  0.71550  0.66690  0.21150  1.0000 0.4213504067
C   C411      1.0  0.71550  0.33310  0.78850  1.0000 0.4213504067
C   C412      1.0  0.28450  0.66690  0.78850  1.0000 0.4213504067
C   C413      1.0  0.21150  0.28450  0.33310  1.0000 0.4213504067
C   C414      1.0  0.21150  0.71550  0.66690  1.0000 0.4213504067
C   C415      1.0  0.78850  0.71550  0.33310  1.0000 0.4213504067
C   C416      1.0  0.78850  0.28450  0.66690  1.0000 0.4213504067
C   C417      1.0  0.33310  0.21150  0.28450  1.0000 0.4213504067
C   C418      1.0  0.66690  0.21150  0.71550  1.0000 0.4213504067
C   C419      1.0  0.33310  0.78850  0.71550  1.0000 0.4213504067
C   C420      1.0  0.66690  0.78850  0.28450  1.0000 0.4213504067
C   C421      1.0  0.16690  0.21550  0.71150  1.0000 0.4213504067
C   C422      1.0  0.83310  0.78450  0.71150  1.0000 0.4213504067
C   C423      1.0  0.16690  0.78450  0.28850  1.0000 0.4213504067
C   C424      1.0  0.83310  0.21550  0.28850  1.0000 0.4213504067
C   C425      1.0  0.21550  0.28850  0.83310  1.0000 0.4213504067
C   C426      1.0  0.78450  0.28850  0.16690  1.0000 0.4213504067
C   C427      1.0  0.78450  0.71150  0.83310  1.0000 0.4213504067
C   C428      1.0  0.21550  0.71150  0.16690  1.0000 0.4213504067
C   C429      1.0  0.28850  0.16690  0.78450  1.0000 0.4213504067
C   C430      1.0  0.28850  0.83310  0.21550  1.0000 0.4213504067
C   C431      1.0  0.71150  0.16690  0.21550  1.0000 0.4213504067
C   C432      1.0  0.71150  0.83310  0.78450  1.0000 0.4213504067
C   C433      1.0  0.28260  0.30660  0.24720  1.0000 -0.0107316063
C   C434      1.0  0.71740  0.69340  0.24720  1.0000 -0.0107316063
C   C435      1.0  0.71740  0.30660  0.75280  1.0000 -0.0107316063
C   C436      1.0  0.28260  0.69340  0.75280  1.0000 -0.0107316063
C   C437      1.0  0.24720  0.28260  0.30660  1.0000 -0.0107316063
C   C438      1.0  0.24720  0.71740  0.69340  1.0000 -0.0107316063
C   C439      1.0  0.75280  0.71740  0.30660  1.0000 -0.0107316063
C   C440      1.0  0.75280  0.28260  0.69340  1.0000 -0.0107316063
C   C441      1.0  0.30660  0.24720  0.28260  1.0000 -0.0107316063
C   C442      1.0  0.69340  0.24720  0.71740  1.0000 -0.0107316063
C   C443      1.0  0.30660  0.75280  0.71740  1.0000 -0.0107316063
C   C444      1.0  0.69340  0.75280  0.28260  1.0000 -0.0107316063
C   C445      1.0  0.19340  0.21740  0.74720  1.0000 -0.0107316063
C   C446      1.0  0.80660  0.78260  0.74720  1.0000 -0.0107316063
C   C447      1.0  0.19340  0.78260  0.25280  1.0000 -0.0107316063
C   C448      1.0  0.80660  0.21740  0.25280  1.0000 -0.0107316063
C   C449      1.0  0.21740  0.25280  0.80660  1.0000 -0.0107316063
C   C450      1.0  0.78260  0.25280  0.19340  1.0000 -0.0107316063
C   C451      1.0  0.78260  0.74720  0.80660  1.0000 -0.0107316063
C   C452      1.0  0.21740  0.74720  0.19340  1.0000 -0.0107316063
C   C453      1.0  0.25280  0.19340  0.78260  1.0000 -0.0107316063
C   C454      1.0  0.25280  0.80660  0.21740  1.0000 -0.0107316063
C   C455      1.0  0.74720  0.19340  0.21740  1.0000 -0.0107316063
C   C456      1.0  0.74720  0.80660  0.78260  1.0000 -0.0107316063
C   C457      1.0  0.25080  0.31010  0.27440  1.0000 -0.1822944623
C   C458      1.0  0.74920  0.68990  0.27440  1.0000 -0.1822944623
C   C459      1.0  0.74920  0.31010  0.72560  1.0000 -0.1822944623
C   C460      1.0  0.25080  0.68990  0.72560  1.0000 -0.1822944623
C   C461      1.0  0.27440  0.25080  0.31010  1.0000 -0.1822944623
C   C462      1.0  0.27440  0.74920  0.68990  1.0000 -0.1822944623
C   C463      1.0  0.72560  0.74920  0.31010  1.0000 -0.1822944623
C   C464      1.0  0.72560  0.25080  0.68990  1.0000 -0.1822944623
C   C465      1.0  0.31010  0.27440  0.25080  1.0000 -0.1822944623
C   C466      1.0  0.68990  0.27440  0.74920  1.0000 -0.1822944623
C   C467      1.0  0.31010  0.72560  0.74920  1.0000 -0.1822944623
C   C468      1.0  0.68990  0.72560  0.25080  1.0000 -0.1822944623
C   C469      1.0  0.18990  0.24920  0.77440  1.0000 -0.1822944623
C   C470      1.0  0.81010  0.75080  0.77440  1.0000 -0.1822944623
C   C471      1.0  0.18990  0.75080  0.22560  1.0000 -0.1822944623
C   C472      1.0  0.81010  0.24920  0.22560  1.0000 -0.1822944623
C   C473      1.0  0.24920  0.22560  0.81010  1.0000 -0.1822944623
C   C474      1.0  0.75080  0.22560  0.18990  1.0000 -0.1822944623
C   C475      1.0  0.75080  0.77440  0.81010  1.0000 -0.1822944623
C   C476      1.0  0.24920  0.77440  0.18990  1.0000 -0.1822944623
C   C477      1.0  0.22560  0.18990  0.75080  1.0000 -0.1822944623
C   C478      1.0  0.22560  0.81010  0.24920  1.0000 -0.1822944623
C   C479      1.0  0.77440  0.18990  0.24920  1.0000 -0.1822944623
C   C480      1.0  0.77440  0.81010  0.75080  1.0000 -0.1822944623
N   N1        1.0  0.36040  0.25630  0.79650  1.0000 -0.3397590472
N   N2        1.0  0.63960  0.74370  0.79650  1.0000 -0.3397590472
N   N3        1.0  0.36040  0.74370  0.20350  1.0000 -0.3397590472
N   N4        1.0  0.63960  0.25630  0.20350  1.0000 -0.3397590472
N   N5        1.0  0.25630  0.20350  0.63960  1.0000 -0.3397590472
N   N6        1.0  0.74370  0.20350  0.36040  1.0000 -0.3397590472
N   N7        1.0  0.74370  0.79650  0.63960  1.0000 -0.3397590472
N   N8        1.0  0.25630  0.79650  0.36040  1.0000 -0.3397590472
N   N9        1.0  0.20350  0.36040  0.74370  1.0000 -0.3397590472
N   N10       1.0  0.20350  0.63960  0.25630  1.0000 -0.3397590472
N   N11       1.0  0.79650  0.36040  0.25630  1.0000 -0.3397590472
N   N12       1.0  0.79650  0.63960  0.74370  1.0000 -0.3397590472
N   N13       1.0  0.24370  0.13960  0.29650  1.0000 -0.3397590472
N   N14       1.0  0.75630  0.86040  0.29650  1.0000 -0.3397590472
N   N15       1.0  0.75630  0.13960  0.70350  1.0000 -0.3397590472
N   N16       1.0  0.24370  0.86040  0.70350  1.0000 -0.3397590472
N   N17       1.0  0.29650  0.24370  0.13960  1.0000 -0.3397590472
N   N18       1.0  0.29650  0.75630  0.86040  1.0000 -0.3397590472
N   N19       1.0  0.70350  0.75630  0.13960  1.0000 -0.3397590472
N   N20       1.0  0.70350  0.24370  0.86040  1.0000 -0.3397590472
N   N21       1.0  0.13960  0.29650  0.24370  1.0000 -0.3397590472
N   N22       1.0  0.86040  0.29650  0.75630  1.0000 -0.3397590472
N   N23       1.0  0.13960  0.70350  0.75630  1.0000 -0.3397590472
N   N24       1.0  0.86040  0.70350  0.24370  1.0000 -0.3397590472
N   N25       1.0  0.25630  0.36040  0.20350  1.0000 -0.3397590472
N   N26       1.0  0.74370  0.63960  0.20350  1.0000 -0.3397590472
N   N27       1.0  0.74370  0.36040  0.79650  1.0000 -0.3397590472
N   N28       1.0  0.25630  0.63960  0.79650  1.0000 -0.3397590472
N   N29       1.0  0.20350  0.25630  0.36040  1.0000 -0.3397590472
N   N30       1.0  0.20350  0.74370  0.63960  1.0000 -0.3397590472
N   N31       1.0  0.79650  0.74370  0.36040  1.0000 -0.3397590472
N   N32       1.0  0.79650  0.25630  0.63960  1.0000 -0.3397590472
N   N33       1.0  0.36040  0.20350  0.25630  1.0000 -0.3397590472
N   N34       1.0  0.63960  0.20350  0.74370  1.0000 -0.3397590472
N   N35       1.0  0.36040  0.79650  0.74370  1.0000 -0.3397590472
N   N36       1.0  0.63960  0.79650  0.25630  1.0000 -0.3397590472
N   N37       1.0  0.13960  0.24370  0.70350  1.0000 -0.3397590472
N   N38       1.0  0.86040  0.75630  0.70350  1.0000 -0.3397590472
N   N39       1.0  0.13960  0.75630  0.29650  1.0000 -0.3397590472
N   N40       1.0  0.86040  0.24370  0.29650  1.0000 -0.3397590472
N   N41       1.0  0.24370  0.29650  0.86040  1.0000 -0.3397590472
N   N42       1.0  0.75630  0.29650  0.13960  1.0000 -0.3397590472
N   N43       1.0  0.75630  0.70350  0.86040  1.0000 -0.3397590472
N   N44       1.0  0.24370  0.70350  0.13960  1.0000 -0.3397590472
N   N45       1.0  0.29650  0.13960  0.75630  1.0000 -0.3397590472
N   N46       1.0  0.29650  0.86040  0.24370  1.0000 -0.3397590472
N   N47       1.0  0.70350  0.13960  0.24370  1.0000 -0.3397590472
N   N48       1.0  0.70350  0.86040  0.75630  1.0000 -0.3397590472
O   O1        1.0  0.46573  0.28636  0.95328  1.0000 -0.4508445211
O   O2        1.0  0.53427  0.71364  0.95328  1.0000 -0.4508445211
O   O3        1.0  0.46573  0.71364  0.04672  1.0000 -0.4508445211
O   O4        1.0  0.53427  0.28636  0.04672  1.0000 -0.4508445211
O   O5        1.0  0.28636  0.04672  0.53427  1.0000 -0.4508445211
O   O6        1.0  0.71364  0.04672  0.46573  1.0000 -0.4508445211
O   O7        1.0  0.71364  0.95328  0.53427  1.0000 -0.4508445211
O   O8        1.0  0.28636  0.95328  0.46573  1.0000 -0.4508445211
O   O9        1.0  0.04672  0.46573  0.71364  1.0000 -0.4508445211
O   O10       1.0  0.04672  0.53427  0.28636  1.0000 -0.4508445211
O   O11       1.0  0.95328  0.46573  0.28636  1.0000 -0.4508445211
O   O12       1.0  0.95328  0.53427  0.71364  1.0000 -0.4508445211
O   O13       1.0  0.21364  0.03427  0.45328  1.0000 -0.4508445211
O   O14       1.0  0.78636  0.96573  0.45328  1.0000 -0.4508445211
O   O15       1.0  0.78636  0.03427  0.54672  1.0000 -0.4508445211
O   O16       1.0  0.21364  0.96573  0.54672  1.0000 -0.4508445211
O   O17       1.0  0.45328  0.21364  0.03427  1.0000 -0.4508445211
O   O18       1.0  0.45328  0.78636  0.96573  1.0000 -0.4508445211
O   O19       1.0  0.54672  0.78636  0.03427  1.0000 -0.4508445211
O   O20       1.0  0.54672  0.21364  0.96573  1.0000 -0.4508445211
O   O21       1.0  0.03427  0.45328  0.21364  1.0000 -0.4508445211
O   O22       1.0  0.96573  0.45328  0.78636  1.0000 -0.4508445211
O   O23       1.0  0.03427  0.54672  0.78636  1.0000 -0.4508445211
O   O24       1.0  0.96573  0.54672  0.21364  1.0000 -0.4508445211
O   O25       1.0  0.46540  0.21610  0.95050  1.0000 -0.4735169967
O   O26       1.0  0.53460  0.78390  0.95050  1.0000 -0.4735169967
O   O27       1.0  0.46540  0.78390  0.04950  1.0000 -0.4735169967
O   O28       1.0  0.53460  0.21610  0.04950  1.0000 -0.4735169967
O   O29       1.0  0.21610  0.04950  0.53460  1.0000 -0.4735169967
O   O30       1.0  0.78390  0.04950  0.46540  1.0000 -0.4735169967
O   O31       1.0  0.78390  0.95050  0.53460  1.0000 -0.4735169967
O   O32       1.0  0.21610  0.95050  0.46540  1.0000 -0.4735169967
O   O33       1.0  0.04950  0.46540  0.78390  1.0000 -0.4735169967
O   O34       1.0  0.04950  0.53460  0.21610  1.0000 -0.4735169967
O   O35       1.0  0.95050  0.46540  0.21610  1.0000 -0.4735169967
O   O36       1.0  0.95050  0.53460  0.78390  1.0000 -0.4735169967
O   O37       1.0  0.28390  0.03460  0.45050  1.0000 -0.4735169967
O   O38       1.0  0.71610  0.96540  0.45050  1.0000 -0.4735169967
O   O39       1.0  0.71610  0.03460  0.54950  1.0000 -0.4735169967
O   O40       1.0  0.28390  0.96540  0.54950  1.0000 -0.4735169967
O   O41       1.0  0.45050  0.28390  0.03460  1.0000 -0.4735169967
O   O42       1.0  0.45050  0.71610  0.96540  1.0000 -0.4735169967
O   O43       1.0  0.54950  0.71610  0.03460  1.0000 -0.4735169967
O   O44       1.0  0.54950  0.28390  0.96540  1.0000 -0.4735169967
O   O45       1.0  0.03460  0.45050  0.28390  1.0000 -0.4735169967
O   O46       1.0  0.96540  0.45050  0.71610  1.0000 -0.4735169967
O   O47       1.0  0.03460  0.54950  0.71610  1.0000 -0.4735169967
O   O48       1.0  0.96540  0.54950  0.28390  1.0000 -0.4735169967
O   O49       1.0  0.32440  0.31690  0.80540  1.0000 -0.4366640918
O   O50       1.0  0.67560  0.68310  0.80540  1.0000 -0.4366640918
O   O51       1.0  0.32440  0.68310  0.19460  1.0000 -0.4366640918
O   O52       1.0  0.67560  0.31690  0.19460  1.0000 -0.4366640918
O   O53       1.0  0.31690  0.19460  0.67560  1.0000 -0.4366640918
O   O54       1.0  0.68310  0.19460  0.32440  1.0000 -0.4366640918
O   O55       1.0  0.68310  0.80540  0.67560  1.0000 -0.4366640918
O   O56       1.0  0.31690  0.80540  0.32440  1.0000 -0.4366640918
O   O57       1.0  0.19460  0.32440  0.68310  1.0000 -0.4366640918
O   O58       1.0  0.19460  0.67560  0.31690  1.0000 -0.4366640918
O   O59       1.0  0.80540  0.32440  0.31690  1.0000 -0.4366640918
O   O60       1.0  0.80540  0.67560  0.68310  1.0000 -0.4366640918
O   O61       1.0  0.18310  0.17560  0.30540  1.0000 -0.4366640918
O   O62       1.0  0.81690  0.82440  0.30540  1.0000 -0.4366640918
O   O63       1.0  0.81690  0.17560  0.69460  1.0000 -0.4366640918
O   O64       1.0  0.18310  0.82440  0.69460  1.0000 -0.4366640918
O   O65       1.0  0.30540  0.18310  0.17560  1.0000 -0.4366640918
O   O66       1.0  0.30540  0.81690  0.82440  1.0000 -0.4366640918
O   O67       1.0  0.69460  0.81690  0.17560  1.0000 -0.4366640918
O   O68       1.0  0.69460  0.18310  0.82440  1.0000 -0.4366640918
O   O69       1.0  0.17560  0.30540  0.18310  1.0000 -0.4366640918
O   O70       1.0  0.82440  0.30540  0.81690  1.0000 -0.4366640918
O   O71       1.0  0.17560  0.69460  0.81690  1.0000 -0.4366640918
O   O72       1.0  0.82440  0.69460  0.18310  1.0000 -0.4366640918
O   O73       1.0  0.28636  0.46573  0.04672  1.0000 -0.4508445211
O   O74       1.0  0.71364  0.53427  0.04672  1.0000 -0.4508445211
O   O75       1.0  0.71364  0.46573  0.95328  1.0000 -0.4508445211
O   O76       1.0  0.28636  0.53427  0.95328  1.0000 -0.4508445211
O   O77       1.0  0.04672  0.28636  0.46573  1.0000 -0.4508445211
O   O78       1.0  0.04672  0.71364  0.53427  1.0000 -0.4508445211
O   O79       1.0  0.95328  0.71364  0.46573  1.0000 -0.4508445211
O   O80       1.0  0.95328  0.28636  0.53427  1.0000 -0.4508445211
O   O81       1.0  0.46573  0.04672  0.28636  1.0000 -0.4508445211
O   O82       1.0  0.53427  0.04672  0.71364  1.0000 -0.4508445211
O   O83       1.0  0.46573  0.95328  0.71364  1.0000 -0.4508445211
O   O84       1.0  0.53427  0.95328  0.28636  1.0000 -0.4508445211
O   O85       1.0  0.03427  0.21364  0.54672  1.0000 -0.4508445211
O   O86       1.0  0.96573  0.78636  0.54672  1.0000 -0.4508445211
O   O87       1.0  0.03427  0.78636  0.45328  1.0000 -0.4508445211
O   O88       1.0  0.96573  0.21364  0.45328  1.0000 -0.4508445211
O   O89       1.0  0.21364  0.45328  0.96573  1.0000 -0.4508445211
O   O90       1.0  0.78636  0.45328  0.03427  1.0000 -0.4508445211
O   O91       1.0  0.78636  0.54672  0.96573  1.0000 -0.4508445211
O   O92       1.0  0.21364  0.54672  0.03427  1.0000 -0.4508445211
O   O93       1.0  0.45328  0.03427  0.78636  1.0000 -0.4508445211
O   O94       1.0  0.45328  0.96573  0.21364  1.0000 -0.4508445211
O   O95       1.0  0.54672  0.03427  0.21364  1.0000 -0.4508445211
O   O96       1.0  0.54672  0.96573  0.78636  1.0000 -0.4508445211
O   O97       1.0  0.21610  0.46540  0.04950  1.0000 -0.4735169967
O   O98       1.0  0.78390  0.53460  0.04950  1.0000 -0.4735169967
O   O99       1.0  0.78390  0.46540  0.95050  1.0000 -0.4735169967
O   O100      1.0  0.21610  0.53460  0.95050  1.0000 -0.4735169967
O   O101      1.0  0.04950  0.21610  0.46540  1.0000 -0.4735169967
O   O102      1.0  0.04950  0.78390  0.53460  1.0000 -0.4735169967
O   O103      1.0  0.95050  0.78390  0.46540  1.0000 -0.4735169967
O   O104      1.0  0.95050  0.21610  0.53460  1.0000 -0.4735169967
O   O105      1.0  0.46540  0.04950  0.21610  1.0000 -0.4735169967
O   O106      1.0  0.53460  0.04950  0.78390  1.0000 -0.4735169967
O   O107      1.0  0.46540  0.95050  0.78390  1.0000 -0.4735169967
O   O108      1.0  0.53460  0.95050  0.21610  1.0000 -0.4735169967
O   O109      1.0  0.03460  0.28390  0.54950  1.0000 -0.4735169967
O   O110      1.0  0.96540  0.71610  0.54950  1.0000 -0.4735169967
O   O111      1.0  0.03460  0.71610  0.45050  1.0000 -0.4735169967
O   O112      1.0  0.96540  0.28390  0.45050  1.0000 -0.4735169967
O   O113      1.0  0.28390  0.45050  0.96540  1.0000 -0.4735169967
O   O114      1.0  0.71610  0.45050  0.03460  1.0000 -0.4735169967
O   O115      1.0  0.71610  0.54950  0.96540  1.0000 -0.4735169967
O   O116      1.0  0.28390  0.54950  0.03460  1.0000 -0.4735169967
O   O117      1.0  0.45050  0.03460  0.71610  1.0000 -0.4735169967
O   O118      1.0  0.45050  0.96540  0.28390  1.0000 -0.4735169967
O   O119      1.0  0.54950  0.03460  0.28390  1.0000 -0.4735169967
O   O120      1.0  0.54950  0.96540  0.71610  1.0000 -0.4735169967
O   O121      1.0  0.31690  0.32440  0.19460  1.0000 -0.4366640918
O   O122      1.0  0.68310  0.67560  0.19460  1.0000 -0.4366640918
O   O123      1.0  0.68310  0.32440  0.80540  1.0000 -0.4366640918
O   O124      1.0  0.31690  0.67560  0.80540  1.0000 -0.4366640918
O   O125      1.0  0.19460  0.31690  0.32440  1.0000 -0.4366640918
O   O126      1.0  0.19460  0.68310  0.67560  1.0000 -0.4366640918
O   O127      1.0  0.80540  0.68310  0.32440  1.0000 -0.4366640918
O   O128      1.0  0.80540  0.31690  0.67560  1.0000 -0.4366640918
O   O129      1.0  0.32440  0.19460  0.31690  1.0000 -0.4366640918
O   O130      1.0  0.67560  0.19460  0.68310  1.0000 -0.4366640918
O   O131      1.0  0.32440  0.80540  0.68310  1.0000 -0.4366640918
O   O132      1.0  0.67560  0.80540  0.31690  1.0000 -0.4366640918
O   O133      1.0  0.17560  0.18310  0.69460  1.0000 -0.4366640918
O   O134      1.0  0.82440  0.81690  0.69460  1.0000 -0.4366640918
O   O135      1.0  0.17560  0.81690  0.30540  1.0000 -0.4366640918
O   O136      1.0  0.82440  0.18310  0.30540  1.0000 -0.4366640918
O   O137      1.0  0.18310  0.30540  0.82440  1.0000 -0.4366640918
O   O138      1.0  0.81690  0.30540  0.17560  1.0000 -0.4366640918
O   O139      1.0  0.81690  0.69460  0.82440  1.0000 -0.4366640918
O   O140      1.0  0.18310  0.69460  0.17560  1.0000 -0.4366640918
O   O141      1.0  0.30540  0.17560  0.81690  1.0000 -0.4366640918
O   O142      1.0  0.30540  0.82440  0.18310  1.0000 -0.4366640918
O   O143      1.0  0.69460  0.17560  0.18310  1.0000 -0.4366640918
O   O144      1.0  0.69460  0.82440  0.81690  1.0000 -0.4366640918
