# DDEC6 charges by PACMAN v1.1 (https://github.com/mtap-research/PACMAN-charge/)
data_2013[CuSi][nan]3[ASR]1
_chemical_formula_sum              "Cu12 Si8 H192 C312 O48"
_cell_length_a       23.6847
_cell_length_b       23.6847
_cell_length_c       23.6847
_cell_angle_alpha    60
_cell_angle_beta     60
_cell_angle_gamma    60

_symmetry_space_group_name_H-M    "P 1"
_symmetry_Int_Tables_number       1

loop_
  _symmetry_equiv_pos_as_xyz
  'x, y, z'

loop_
  _atom_site_type_symbol
  _atom_site_label
  _atom_site_symmetry_multiplicity
  _atom_site_fract_x
  _atom_site_fract_y
  _atom_site_fract_z
  _atom_site_occupancy
  _atom_site_charge
Cu  Cu1       1.0  0.36096  0.63904  0.36096  1.0000 0.8328509639
Cu  Cu2       1.0  0.63904  0.36096  0.63904  1.0000 0.8328509639
Cu  Cu3       1.0  0.36096  0.36096  0.63904  1.0000 0.8328509639
Cu  Cu4       1.0  0.63904  0.63904  0.36096  1.0000 0.8328509639
Cu  Cu5       1.0  0.63904  0.36096  0.36096  1.0000 0.8328509639
Cu  Cu6       1.0  0.36096  0.63904  0.63904  1.0000 0.8328509639
Cu  Cu7       1.0  0.28294  0.71706  0.28294  1.0000 0.7967313439
Cu  Cu8       1.0  0.71706  0.28294  0.71706  1.0000 0.7967313439
Cu  Cu9       1.0  0.28294  0.28294  0.71706  1.0000 0.7967313439
Cu  Cu10      1.0  0.71706  0.71706  0.28294  1.0000 0.7967313439
Cu  Cu11      1.0  0.71706  0.28294  0.28294  1.0000 0.7967313439
Cu  Cu12      1.0  0.28294  0.71706  0.71706  1.0000 0.7967313439
Si  Si1       1.0  0.85754  0.42738  0.85754  1.0000 0.3868357251
Si  Si2       1.0  0.42738  0.85754  0.85754  1.0000 0.3979588981
Si  Si3       1.0  0.85754  0.85754  0.85754  1.0000 0.3868357251
Si  Si4       1.0  0.85754  0.85754  0.42738  1.0000 0.3979588981
Si  Si5       1.0  0.14246  0.57262  0.14246  1.0000 0.3838482211
Si  Si6       1.0  0.57262  0.14246  0.14246  1.0000 0.3979588981
Si  Si7       1.0  0.14246  0.14246  0.57262  1.0000 0.3838482211
Si  Si8       1.0  0.14246  0.14246  0.14246  1.0000 0.3979588981
H   H1        1.0  0.54500  0.54940  0.22420  1.0000 0.1288343678
H   H2        1.0  0.54940  0.54500  0.68140  1.0000 0.1288343678
H   H3        1.0  0.22420  0.68140  0.54500  1.0000 0.1288343678
H   H4        1.0  0.68140  0.22420  0.54940  1.0000 0.1288343678
H   H5        1.0  0.22420  0.54500  0.54940  1.0000 0.1288343678
H   H6        1.0  0.68140  0.54940  0.54500  1.0000 0.1288343678
H   H7        1.0  0.54500  0.22420  0.68140  1.0000 0.1288343678
H   H8        1.0  0.54940  0.68140  0.22420  1.0000 0.1288343678
H   H9        1.0  0.54940  0.22420  0.54500  1.0000 0.1288343678
H   H10       1.0  0.54500  0.68140  0.54940  1.0000 0.1288343678
H   H11       1.0  0.68140  0.54500  0.22420  1.0000 0.1288343678
H   H12       1.0  0.22420  0.54940  0.68140  1.0000 0.1288343678
H   H13       1.0  0.45500  0.45060  0.31860  1.0000 0.1288343678
H   H14       1.0  0.45060  0.45500  0.77580  1.0000 0.1288343678
H   H15       1.0  0.77580  0.31860  0.45060  1.0000 0.1288343678
H   H16       1.0  0.31860  0.77580  0.45500  1.0000 0.1288343678
H   H17       1.0  0.77580  0.45500  0.31860  1.0000 0.1288343678
H   H18       1.0  0.31860  0.45060  0.77580  1.0000 0.1288343678
H   H19       1.0  0.45500  0.77580  0.45060  1.0000 0.1288343678
H   H20       1.0  0.45060  0.31860  0.45500  1.0000 0.1288343678
H   H21       1.0  0.45060  0.77580  0.31860  1.0000 0.1288343678
H   H22       1.0  0.45500  0.31860  0.77580  1.0000 0.1288343678
H   H23       1.0  0.31860  0.45500  0.45060  1.0000 0.1288343678
H   H24       1.0  0.77580  0.45060  0.45500  1.0000 0.1288343678
H   H25       1.0  0.42780  0.64360  0.10220  1.0000 0.1201799732
H   H26       1.0  0.64360  0.42780  0.82640  1.0000 0.1201799732
H   H27       1.0  0.10220  0.82640  0.42780  1.0000 0.1201799732
H   H28       1.0  0.82640  0.10220  0.64360  1.0000 0.1201799732
H   H29       1.0  0.10220  0.42780  0.64360  1.0000 0.1201799732
H   H30       1.0  0.82640  0.64360  0.42780  1.0000 0.1201799732
H   H31       1.0  0.42780  0.10220  0.82640  1.0000 0.1201799732
H   H32       1.0  0.64360  0.82640  0.10220  1.0000 0.1201799732
H   H33       1.0  0.64360  0.10220  0.42780  1.0000 0.1201799732
H   H34       1.0  0.42780  0.82640  0.64360  1.0000 0.1201799732
H   H35       1.0  0.82640  0.42780  0.10220  1.0000 0.1201799732
H   H36       1.0  0.10220  0.64360  0.82640  1.0000 0.1201799732
H   H37       1.0  0.57220  0.35640  0.17360  1.0000 0.1201799732
H   H38       1.0  0.35640  0.57220  0.89780  1.0000 0.1201799732
H   H39       1.0  0.89780  0.17360  0.35640  1.0000 0.1201799732
H   H40       1.0  0.17360  0.89780  0.57220  1.0000 0.1201799732
H   H41       1.0  0.89780  0.57220  0.17360  1.0000 0.1201799732
H   H42       1.0  0.17360  0.35640  0.89780  1.0000 0.1201799732
H   H43       1.0  0.57220  0.89780  0.35640  1.0000 0.1201799732
H   H44       1.0  0.35640  0.17360  0.57220  1.0000 0.1201799732
H   H45       1.0  0.35640  0.89780  0.17360  1.0000 0.1201799732
H   H46       1.0  0.57220  0.17360  0.89780  1.0000 0.1201799732
H   H47       1.0  0.17360  0.57220  0.35640  1.0000 0.1201799732
H   H48       1.0  0.89780  0.35640  0.57220  1.0000 0.1201799732
H   H49       1.0  0.64020  0.50460  0.13920  1.0000 0.1117073483
H   H50       1.0  0.50460  0.64020  0.71600  1.0000 0.1117073483
H   H51       1.0  0.13920  0.71600  0.64020  1.0000 0.1117073483
H   H52       1.0  0.71600  0.13920  0.50460  1.0000 0.1117073483
H   H53       1.0  0.13920  0.64020  0.50460  1.0000 0.1117073483
H   H54       1.0  0.71600  0.50460  0.64020  1.0000 0.1117073483
H   H55       1.0  0.64020  0.13920  0.71600  1.0000 0.1117073483
H   H56       1.0  0.50460  0.71600  0.13920  1.0000 0.1117073483
H   H57       1.0  0.50460  0.13920  0.64020  1.0000 0.1117073483
H   H58       1.0  0.64020  0.71600  0.50460  1.0000 0.1117073483
H   H59       1.0  0.71600  0.64020  0.13920  1.0000 0.1117073483
H   H60       1.0  0.13920  0.50460  0.71600  1.0000 0.1117073483
H   H61       1.0  0.35980  0.49540  0.28400  1.0000 0.1117073483
H   H62       1.0  0.49540  0.35980  0.86080  1.0000 0.1117073483
H   H63       1.0  0.86080  0.28400  0.49540  1.0000 0.1117073483
H   H64       1.0  0.28400  0.86080  0.35980  1.0000 0.1117073483
H   H65       1.0  0.86080  0.35980  0.28400  1.0000 0.1117073483
H   H66       1.0  0.28400  0.49540  0.86080  1.0000 0.1117073483
H   H67       1.0  0.35980  0.86080  0.49540  1.0000 0.1117073483
H   H68       1.0  0.49540  0.28400  0.35980  1.0000 0.1117073483
H   H69       1.0  0.49540  0.86080  0.28400  1.0000 0.1117073483
H   H70       1.0  0.35980  0.28400  0.86080  1.0000 0.1117073483
H   H71       1.0  0.28400  0.35980  0.49540  1.0000 0.1117073483
H   H72       1.0  0.86080  0.49540  0.35980  1.0000 0.1117073483
H   H73       1.0  0.52300  0.59880  0.01720  1.0000 0.1117073483
H   H74       1.0  0.59880  0.52300  0.86100  1.0000 0.1117073483
H   H75       1.0  0.01720  0.86100  0.52300  1.0000 0.1117073483
H   H76       1.0  0.86100  0.01720  0.59880  1.0000 0.1117073483
H   H77       1.0  0.01720  0.52300  0.59880  1.0000 0.1117073483
H   H78       1.0  0.86100  0.59880  0.52300  1.0000 0.1117073483
H   H79       1.0  0.52300  0.01720  0.86100  1.0000 0.1117073483
H   H80       1.0  0.59880  0.86100  0.01720  1.0000 0.1117073483
H   H81       1.0  0.59880  0.01720  0.52300  1.0000 0.1117073483
H   H82       1.0  0.52300  0.86100  0.59880  1.0000 0.1117073483
H   H83       1.0  0.86100  0.52300  0.01720  1.0000 0.1117073483
H   H84       1.0  0.01720  0.59880  0.86100  1.0000 0.1117073483
H   H85       1.0  0.47700  0.40120  0.13900  1.0000 0.1117073483
H   H86       1.0  0.40120  0.47700  0.98280  1.0000 0.1117073483
H   H87       1.0  0.98280  0.13900  0.40120  1.0000 0.1117073483
H   H88       1.0  0.13900  0.98280  0.47700  1.0000 0.1117073483
H   H89       1.0  0.98280  0.47700  0.13900  1.0000 0.1117073483
H   H90       1.0  0.13900  0.40120  0.98280  1.0000 0.1117073483
H   H91       1.0  0.47700  0.98280  0.40120  1.0000 0.1117073483
H   H92       1.0  0.40120  0.13900  0.47700  1.0000 0.1117073483
H   H93       1.0  0.40120  0.98280  0.13900  1.0000 0.1117073483
H   H94       1.0  0.47700  0.13900  0.98280  1.0000 0.1117073483
H   H95       1.0  0.13900  0.47700  0.40120  1.0000 0.1117073483
H   H96       1.0  0.98280  0.40120  0.47700  1.0000 0.1117073483
H   H97       1.0  0.62970  0.59150  0.93470  1.0000 0.1043829817
H   H98       1.0  0.59150  0.62970  0.84410  1.0000 0.1043829817
H   H99       1.0  0.93470  0.84410  0.62970  1.0000 0.1043829817
H   H100      1.0  0.84410  0.93470  0.59150  1.0000 0.1043829817
H   H101      1.0  0.93470  0.62970  0.59150  1.0000 0.1043829817
H   H102      1.0  0.84410  0.59150  0.62970  1.0000 0.1043829817
H   H103      1.0  0.62970  0.93470  0.84410  1.0000 0.1043829817
H   H104      1.0  0.59150  0.84410  0.93470  1.0000 0.1043829817
H   H105      1.0  0.59150  0.93470  0.62970  1.0000 0.1043829817
H   H106      1.0  0.62970  0.84410  0.59150  1.0000 0.1043829817
H   H107      1.0  0.84410  0.62970  0.93470  1.0000 0.1043829817
H   H108      1.0  0.93470  0.59150  0.84410  1.0000 0.1043829817
H   H109      1.0  0.37030  0.40850  0.15590  1.0000 0.1043829817
H   H110      1.0  0.40850  0.37030  0.06530  1.0000 0.1043829817
H   H111      1.0  0.06530  0.15590  0.40850  1.0000 0.1043829817
H   H112      1.0  0.15590  0.06530  0.37030  1.0000 0.1043829817
H   H113      1.0  0.06530  0.37030  0.15590  1.0000 0.1043829817
H   H114      1.0  0.15590  0.40850  0.06530  1.0000 0.1043829817
H   H115      1.0  0.37030  0.06530  0.40850  1.0000 0.1043829817
H   H116      1.0  0.40850  0.15590  0.37030  1.0000 0.1043829817
H   H117      1.0  0.40850  0.06530  0.15590  1.0000 0.1043829817
H   H118      1.0  0.37030  0.15590  0.06530  1.0000 0.1043829817
H   H119      1.0  0.15590  0.37030  0.40850  1.0000 0.1043829817
H   H120      1.0  0.06530  0.40850  0.37030  1.0000 0.1043829817
H   H121      1.0  0.69280  0.42580  0.09060  1.0000 0.1201799732
H   H122      1.0  0.42580  0.69280  0.79080  1.0000 0.1201799732
H   H123      1.0  0.09060  0.79080  0.69280  1.0000 0.1201799732
H   H124      1.0  0.79080  0.09060  0.42580  1.0000 0.1201799732
H   H125      1.0  0.09060  0.69280  0.42580  1.0000 0.1201799732
H   H126      1.0  0.79080  0.42580  0.69280  1.0000 0.1201799732
H   H127      1.0  0.69280  0.09060  0.79080  1.0000 0.1201799732
H   H128      1.0  0.42580  0.79080  0.09060  1.0000 0.1201799732
H   H129      1.0  0.42580  0.09060  0.69280  1.0000 0.1201799732
H   H130      1.0  0.69280  0.79080  0.42580  1.0000 0.1201799732
H   H131      1.0  0.79080  0.69280  0.09060  1.0000 0.1201799732
H   H132      1.0  0.09060  0.42580  0.79080  1.0000 0.1201799732
H   H133      1.0  0.30720  0.57420  0.20920  1.0000 0.1201799732
H   H134      1.0  0.57420  0.30720  0.90940  1.0000 0.1201799732
H   H135      1.0  0.90940  0.20920  0.57420  1.0000 0.1201799732
H   H136      1.0  0.20920  0.90940  0.30720  1.0000 0.1201799732
H   H137      1.0  0.90940  0.30720  0.20920  1.0000 0.1201799732
H   H138      1.0  0.20920  0.57420  0.90940  1.0000 0.1201799732
H   H139      1.0  0.30720  0.90940  0.57420  1.0000 0.1201799732
H   H140      1.0  0.57420  0.20920  0.30720  1.0000 0.1201799732
H   H141      1.0  0.57420  0.90940  0.20920  1.0000 0.1201799732
H   H142      1.0  0.30720  0.20920  0.90940  1.0000 0.1201799732
H   H143      1.0  0.20920  0.30720  0.57420  1.0000 0.1201799732
H   H144      1.0  0.90940  0.57420  0.30720  1.0000 0.1201799732
H   H145      1.0  0.72830  0.54330  0.85390  1.0000 0.1117073483
H   H146      1.0  0.54330  0.72830  0.87450  1.0000 0.1117073483
H   H147      1.0  0.85390  0.87450  0.72830  1.0000 0.1117073483
H   H148      1.0  0.87450  0.85390  0.54330  1.0000 0.1117073483
H   H149      1.0  0.85390  0.72830  0.54330  1.0000 0.1117073483
H   H150      1.0  0.87450  0.54330  0.72830  1.0000 0.1117073483
H   H151      1.0  0.72830  0.85390  0.87450  1.0000 0.1117073483
H   H152      1.0  0.54330  0.87450  0.85390  1.0000 0.1117073483
H   H153      1.0  0.54330  0.85390  0.72830  1.0000 0.1117073483
H   H154      1.0  0.72830  0.87450  0.54330  1.0000 0.1117073483
H   H155      1.0  0.87450  0.72830  0.85390  1.0000 0.1117073483
H   H156      1.0  0.85390  0.54330  0.87450  1.0000 0.1117073483
H   H157      1.0  0.27170  0.45670  0.12550  1.0000 0.1117073483
H   H158      1.0  0.45670  0.27170  0.14610  1.0000 0.1117073483
H   H159      1.0  0.14610  0.12550  0.45670  1.0000 0.1117073483
H   H160      1.0  0.12550  0.14610  0.27170  1.0000 0.1117073483
H   H161      1.0  0.14610  0.27170  0.12550  1.0000 0.1117073483
H   H162      1.0  0.12550  0.45670  0.14610  1.0000 0.1117073483
H   H163      1.0  0.27170  0.14610  0.45670  1.0000 0.1117073483
H   H164      1.0  0.45670  0.12550  0.27170  1.0000 0.1117073483
H   H165      1.0  0.45670  0.14610  0.12550  1.0000 0.1117073483
H   H166      1.0  0.27170  0.12550  0.14610  1.0000 0.1117073483
H   H167      1.0  0.12550  0.27170  0.45670  1.0000 0.1117073483
H   H168      1.0  0.14610  0.45670  0.27170  1.0000 0.1117073483
H   H169      1.0  0.79140  0.37760  0.00960  1.0000 0.1117073483
H   H170      1.0  0.37760  0.79140  0.82140  1.0000 0.1117073483
H   H171      1.0  0.00960  0.82140  0.79140  1.0000 0.1117073483
H   H172      1.0  0.82140  0.00960  0.37760  1.0000 0.1117073483
H   H173      1.0  0.00960  0.79140  0.37760  1.0000 0.1117073483
H   H174      1.0  0.82140  0.37760  0.79140  1.0000 0.1117073483
H   H175      1.0  0.79140  0.00960  0.82140  1.0000 0.1117073483
H   H176      1.0  0.37760  0.82140  0.00960  1.0000 0.1201799732
H   H177      1.0  0.37760  0.00960  0.79140  1.0000 0.1117073483
H   H178      1.0  0.79140  0.82140  0.37760  1.0000 0.1117073483
H   H179      1.0  0.82140  0.79140  0.00960  1.0000 0.1117073483
H   H180      1.0  0.00960  0.37760  0.82140  1.0000 0.1117073483
H   H181      1.0  0.20860  0.62240  0.17860  1.0000 0.1117073483
H   H182      1.0  0.62240  0.20860  0.99040  1.0000 0.1117073483
H   H183      1.0  0.99040  0.17860  0.62240  1.0000 0.1117073483
H   H184      1.0  0.17860  0.99040  0.20860  1.0000 0.1117073483
H   H185      1.0  0.99040  0.20860  0.17860  1.0000 0.1117073483
H   H186      1.0  0.17860  0.62240  0.99040  1.0000 0.1117073483
H   H187      1.0  0.20860  0.99040  0.62240  1.0000 0.1117073483
H   H188      1.0  0.62240  0.17860  0.20860  1.0000 0.1117073483
H   H189      1.0  0.62240  0.99040  0.17860  1.0000 0.1117073483
H   H190      1.0  0.20860  0.17860  0.99040  1.0000 0.1117073483
H   H191      1.0  0.17860  0.20860  0.62240  1.0000 0.1117073483
H   H192      1.0  0.99040  0.62240  0.20860  1.0000 0.1117073483
C   C1        1.0  0.41540  0.63080  0.22740  1.0000 0.5540649181
C   C2        1.0  0.63080  0.41540  0.72640  1.0000 0.5540649181
C   C3        1.0  0.22740  0.72640  0.41540  1.0000 0.5540649181
C   C4        1.0  0.72640  0.22740  0.63080  1.0000 0.5540649181
C   C5        1.0  0.22740  0.41540  0.63080  1.0000 0.5540649181
C   C6        1.0  0.72640  0.63080  0.41540  1.0000 0.5540649181
C   C7        1.0  0.41540  0.22740  0.72640  1.0000 0.5540649181
C   C8        1.0  0.63080  0.72640  0.22740  1.0000 0.5540649181
C   C9        1.0  0.63080  0.22740  0.41540  1.0000 0.5540649181
C   C10       1.0  0.41540  0.72640  0.63080  1.0000 0.5540649181
C   C11       1.0  0.72640  0.41540  0.22740  1.0000 0.5540649181
C   C12       1.0  0.22740  0.63080  0.72640  1.0000 0.5540649181
C   C13       1.0  0.58460  0.36920  0.27360  1.0000 0.5540649181
C   C14       1.0  0.36920  0.58460  0.77260  1.0000 0.5540649181
C   C15       1.0  0.77260  0.27360  0.36920  1.0000 0.5540649181
C   C16       1.0  0.27360  0.77260  0.58460  1.0000 0.5540649181
C   C17       1.0  0.77260  0.58460  0.27360  1.0000 0.5540649181
C   C18       1.0  0.27360  0.36920  0.77260  1.0000 0.5540649181
C   C19       1.0  0.58460  0.77260  0.36920  1.0000 0.5540649181
C   C20       1.0  0.36920  0.27360  0.58460  1.0000 0.5540649181
C   C21       1.0  0.36920  0.77260  0.27360  1.0000 0.5540649181
C   C22       1.0  0.58460  0.27360  0.77260  1.0000 0.5540649181
C   C23       1.0  0.27360  0.58460  0.36920  1.0000 0.5540649181
C   C24       1.0  0.77260  0.36920  0.58460  1.0000 0.5540649181
C   C25       1.0  0.47741  0.60079  0.17119  1.0000 -0.0181172218
C   C26       1.0  0.60079  0.47741  0.75061  1.0000 -0.0181172218
C   C27       1.0  0.17119  0.75061  0.47741  1.0000 -0.0181172218
C   C28       1.0  0.75061  0.17119  0.60079  1.0000 -0.0181172218
C   C29       1.0  0.17119  0.47741  0.60079  1.0000 -0.0181172218
C   C30       1.0  0.75061  0.60079  0.47741  1.0000 -0.0181172218
C   C31       1.0  0.47741  0.17119  0.75061  1.0000 -0.0181172218
C   C32       1.0  0.60079  0.75061  0.17119  1.0000 -0.0181172218
C   C33       1.0  0.60079  0.17119  0.47741  1.0000 -0.0181172218
C   C34       1.0  0.47741  0.75061  0.60079  1.0000 -0.0181172218
C   C35       1.0  0.75061  0.47741  0.17119  1.0000 -0.0181172218
C   C36       1.0  0.17119  0.60079  0.75061  1.0000 -0.0181172218
C   C37       1.0  0.52259  0.39921  0.24939  1.0000 -0.0181172218
C   C38       1.0  0.39921  0.52259  0.82881  1.0000 -0.0181172218
C   C39       1.0  0.82881  0.24939  0.39921  1.0000 -0.0181172218
C   C40       1.0  0.24939  0.82881  0.52259  1.0000 -0.0181172218
C   C41       1.0  0.82881  0.52259  0.24939  1.0000 -0.0181172218
C   C42       1.0  0.24939  0.39921  0.82881  1.0000 -0.0181172218
C   C43       1.0  0.52259  0.82881  0.39921  1.0000 -0.0181172218
C   C44       1.0  0.39921  0.24939  0.52259  1.0000 -0.0181172218
C   C45       1.0  0.39921  0.82881  0.24939  1.0000 -0.0181172218
C   C46       1.0  0.52259  0.24939  0.82881  1.0000 -0.0181172218
C   C47       1.0  0.24939  0.52259  0.39921  1.0000 -0.0181172218
C   C48       1.0  0.82881  0.39921  0.52259  1.0000 -0.0181172218
C   C49       1.0  0.54060  0.55940  0.18220  1.0000 -0.0906975719
C   C50       1.0  0.55940  0.54060  0.71780  1.0000 -0.0906975719
C   C51       1.0  0.18220  0.71780  0.54060  1.0000 -0.0906975719
C   C52       1.0  0.71780  0.18220  0.55940  1.0000 -0.0906975719
C   C53       1.0  0.18220  0.54060  0.55940  1.0000 -0.0906975719
C   C54       1.0  0.71780  0.55940  0.54060  1.0000 -0.0906975719
C   C55       1.0  0.54060  0.18220  0.71780  1.0000 -0.0906975719
C   C56       1.0  0.55940  0.71780  0.18220  1.0000 -0.0906975719
C   C57       1.0  0.55940  0.18220  0.54060  1.0000 -0.0906975719
C   C58       1.0  0.54060  0.71780  0.55940  1.0000 -0.0906975719
C   C59       1.0  0.71780  0.54060  0.18220  1.0000 -0.0906975719
C   C60       1.0  0.18220  0.55940  0.71780  1.0000 -0.0906975719
C   C61       1.0  0.45940  0.44060  0.28220  1.0000 -0.0906975719
C   C62       1.0  0.44060  0.45940  0.81780  1.0000 -0.0906975719
C   C63       1.0  0.81780  0.28220  0.44060  1.0000 -0.0906975719
C   C64       1.0  0.28220  0.81780  0.45940  1.0000 -0.0906975719
C   C65       1.0  0.81780  0.45940  0.28220  1.0000 -0.0906975719
C   C66       1.0  0.28220  0.44060  0.81780  1.0000 -0.0906975719
C   C67       1.0  0.45940  0.81780  0.44060  1.0000 -0.0906975719
C   C68       1.0  0.44060  0.28220  0.45940  1.0000 -0.0906975719
C   C69       1.0  0.44060  0.81780  0.28220  1.0000 -0.0906975719
C   C70       1.0  0.45940  0.28220  0.81780  1.0000 -0.0906975719
C   C71       1.0  0.28220  0.45940  0.44060  1.0000 -0.0906975719
C   C72       1.0  0.81780  0.44060  0.45940  1.0000 -0.0906975719
C   C73       1.0  0.47080  0.61540  0.10980  1.0000 -0.1118761083
C   C74       1.0  0.61540  0.47080  0.80400  1.0000 -0.1118761083
C   C75       1.0  0.10980  0.80400  0.47080  1.0000 -0.1118761083
C   C76       1.0  0.80400  0.10980  0.61540  1.0000 -0.1118761083
C   C77       1.0  0.10980  0.47080  0.61540  1.0000 -0.1118761083
C   C78       1.0  0.80400  0.61540  0.47080  1.0000 -0.1118761083
C   C79       1.0  0.47080  0.10980  0.80400  1.0000 -0.1118761083
C   C80       1.0  0.61540  0.80400  0.10980  1.0000 -0.1118761083
C   C81       1.0  0.61540  0.10980  0.47080  1.0000 -0.1118761083
C   C82       1.0  0.47080  0.80400  0.61540  1.0000 -0.1118761083
C   C83       1.0  0.80400  0.47080  0.10980  1.0000 -0.1118761083
C   C84       1.0  0.10980  0.61540  0.80400  1.0000 -0.1118761083
C   C85       1.0  0.52920  0.38460  0.19600  1.0000 -0.1118761083
C   C86       1.0  0.38460  0.52920  0.89020  1.0000 -0.1118761083
C   C87       1.0  0.89020  0.19600  0.38460  1.0000 -0.1118761083
C   C88       1.0  0.19600  0.89020  0.52920  1.0000 -0.1118761083
C   C89       1.0  0.89020  0.52920  0.19600  1.0000 -0.1118761083
C   C90       1.0  0.19600  0.38460  0.89020  1.0000 -0.1118761083
C   C91       1.0  0.52920  0.89020  0.38460  1.0000 -0.1118761083
C   C92       1.0  0.38460  0.19600  0.52920  1.0000 -0.1118761083
C   C93       1.0  0.38460  0.89020  0.19600  1.0000 -0.1118761083
C   C94       1.0  0.52920  0.19600  0.89020  1.0000 -0.1118761083
C   C95       1.0  0.19600  0.52920  0.38460  1.0000 -0.1118761083
C   C96       1.0  0.89020  0.38460  0.52920  1.0000 -0.1118761083
C   C97       1.0  0.59721  0.53279  0.13161  1.0000 -0.1424627943
C   C98       1.0  0.53279  0.59721  0.73839  1.0000 -0.1424627943
C   C99       1.0  0.13161  0.73839  0.59721  1.0000 -0.1424627943
C   C100      1.0  0.73839  0.13161  0.53279  1.0000 -0.1424627943
C   C101      1.0  0.13161  0.59721  0.53279  1.0000 -0.1424627943
C   C102      1.0  0.73839  0.53279  0.59721  1.0000 -0.1424627943
C   C103      1.0  0.59721  0.13161  0.73839  1.0000 -0.1424627943
C   C104      1.0  0.53279  0.73839  0.13161  1.0000 -0.1424627943
C   C105      1.0  0.53279  0.13161  0.59721  1.0000 -0.1424627943
C   C106      1.0  0.59721  0.73839  0.53279  1.0000 -0.1424627943
C   C107      1.0  0.73839  0.59721  0.13161  1.0000 -0.1424627943
C   C108      1.0  0.13161  0.53279  0.73839  1.0000 -0.1424627943
C   C109      1.0  0.40279  0.46721  0.26161  1.0000 -0.1424627943
C   C110      1.0  0.46721  0.40279  0.86839  1.0000 -0.1424627943
C   C111      1.0  0.86839  0.26161  0.46721  1.0000 -0.1424627943
C   C112      1.0  0.26161  0.86839  0.40279  1.0000 -0.1424627943
C   C113      1.0  0.86839  0.40279  0.26161  1.0000 -0.1424627943
C   C114      1.0  0.26161  0.46721  0.86839  1.0000 -0.1424627943
C   C115      1.0  0.40279  0.86839  0.46721  1.0000 -0.1424627943
C   C116      1.0  0.46721  0.26161  0.40279  1.0000 -0.1424627943
C   C117      1.0  0.46721  0.86839  0.26161  1.0000 -0.1424627943
C   C118      1.0  0.40279  0.26161  0.86839  1.0000 -0.1424627943
C   C119      1.0  0.26161  0.40279  0.46721  1.0000 -0.1424627943
C   C120      1.0  0.86839  0.46721  0.40279  1.0000 -0.1424627943
C   C121      1.0  0.52744  0.58876  0.05924  1.0000 -0.1491356669
C   C122      1.0  0.58876  0.52744  0.82456  1.0000 -0.1491356669
C   C123      1.0  0.05924  0.82456  0.52744  1.0000 -0.1491356669
C   C124      1.0  0.82456  0.05924  0.58876  1.0000 -0.1491356669
C   C125      1.0  0.05924  0.52744  0.58876  1.0000 -0.1491356669
C   C126      1.0  0.82456  0.58876  0.52744  1.0000 -0.1491356669
C   C127      1.0  0.52744  0.05924  0.82456  1.0000 -0.1491356669
C   C128      1.0  0.58876  0.82456  0.05924  1.0000 -0.1491356669
C   C129      1.0  0.58876  0.05924  0.52744  1.0000 -0.1491356669
C   C130      1.0  0.52744  0.82456  0.58876  1.0000 -0.1491356669
C   C131      1.0  0.82456  0.52744  0.05924  1.0000 -0.1491356669
C   C132      1.0  0.05924  0.58876  0.82456  1.0000 -0.1491356669
C   C133      1.0  0.47256  0.41124  0.17544  1.0000 -0.1491356669
C   C134      1.0  0.41124  0.47256  0.94076  1.0000 -0.1491356669
C   C135      1.0  0.94076  0.17544  0.41124  1.0000 -0.1491356669
C   C136      1.0  0.17544  0.94076  0.47256  1.0000 -0.1491356669
C   C137      1.0  0.94076  0.47256  0.17544  1.0000 -0.1491356669
C   C138      1.0  0.17544  0.41124  0.94076  1.0000 -0.1491356669
C   C139      1.0  0.47256  0.94076  0.41124  1.0000 -0.1491356669
C   C140      1.0  0.41124  0.17544  0.47256  1.0000 -0.1491356669
C   C141      1.0  0.41124  0.94076  0.17544  1.0000 -0.1491356669
C   C142      1.0  0.47256  0.17544  0.94076  1.0000 -0.1491356669
C   C143      1.0  0.17544  0.47256  0.41124  1.0000 -0.1491356669
C   C144      1.0  0.94076  0.41124  0.47256  1.0000 -0.1491356669
C   C145      1.0  0.59058  0.54742  0.07022  1.0000 0.0787434675
C   C146      1.0  0.54742  0.59058  0.79178  1.0000 0.0787434675
C   C147      1.0  0.07022  0.79178  0.59058  1.0000 0.0787434675
C   C148      1.0  0.79178  0.07022  0.54742  1.0000 0.0787434675
C   C149      1.0  0.07022  0.59058  0.54742  1.0000 0.0787434675
C   C150      1.0  0.79178  0.54742  0.59058  1.0000 0.0787434675
C   C151      1.0  0.59058  0.07022  0.79178  1.0000 0.0787434675
C   C152      1.0  0.54742  0.79178  0.07022  1.0000 0.0787434675
C   C153      1.0  0.54742  0.07022  0.59058  1.0000 0.0787434675
C   C154      1.0  0.59058  0.79178  0.54742  1.0000 0.0787434675
C   C155      1.0  0.79178  0.59058  0.07022  1.0000 0.0787434675
C   C156      1.0  0.07022  0.54742  0.79178  1.0000 0.0787434675
C   C157      1.0  0.40942  0.45258  0.20822  1.0000 0.0787434675
C   C158      1.0  0.45258  0.40942  0.92978  1.0000 0.0787434675
C   C159      1.0  0.92978  0.20822  0.45258  1.0000 0.0787434675
C   C160      1.0  0.20822  0.92978  0.40942  1.0000 0.0787434675
C   C161      1.0  0.92978  0.40942  0.20822  1.0000 0.0787434675
C   C162      1.0  0.20822  0.45258  0.92978  1.0000 0.0787434675
C   C163      1.0  0.40942  0.92978  0.45258  1.0000 0.0787434675
C   C164      1.0  0.45258  0.20822  0.40942  1.0000 0.0787434675
C   C165      1.0  0.45258  0.92978  0.20822  1.0000 0.0787434675
C   C166      1.0  0.40942  0.20822  0.92978  1.0000 0.0787434675
C   C167      1.0  0.20822  0.40942  0.45258  1.0000 0.0787434675
C   C168      1.0  0.92978  0.45258  0.40942  1.0000 0.0787434675
C   C169      1.0  0.65200  0.51320  0.02020  1.0000 0.0787434675
C   C170      1.0  0.51320  0.65200  0.81460  1.0000 0.0787434675
C   C171      1.0  0.02020  0.81460  0.65200  1.0000 0.0787434675
C   C172      1.0  0.81460  0.02020  0.51320  1.0000 0.0787434675
C   C173      1.0  0.02020  0.65200  0.51320  1.0000 0.0787434675
C   C174      1.0  0.81460  0.51320  0.65200  1.0000 0.0787434675
C   C175      1.0  0.65200  0.02020  0.81460  1.0000 0.0787434675
C   C176      1.0  0.51320  0.81460  0.02020  1.0000 0.0787434675
C   C177      1.0  0.51320  0.02020  0.65200  1.0000 0.0787434675
C   C178      1.0  0.65200  0.81460  0.51320  1.0000 0.0787434675
C   C179      1.0  0.81460  0.65200  0.02020  1.0000 0.0787434675
C   C180      1.0  0.02020  0.51320  0.81460  1.0000 0.0787434675
C   C181      1.0  0.34800  0.48680  0.18540  1.0000 0.0787434675
C   C182      1.0  0.48680  0.34800  0.97980  1.0000 0.0787434675
C   C183      1.0  0.97980  0.18540  0.48680  1.0000 0.0787434675
C   C184      1.0  0.18540  0.97980  0.34800  1.0000 0.0787434675
C   C185      1.0  0.97980  0.34800  0.18540  1.0000 0.0787434675
C   C186      1.0  0.18540  0.48680  0.97980  1.0000 0.0787434675
C   C187      1.0  0.34800  0.97980  0.48680  1.0000 0.0787434675
C   C188      1.0  0.48680  0.18540  0.34800  1.0000 0.0787434675
C   C189      1.0  0.48680  0.97980  0.18540  1.0000 0.0787434675
C   C190      1.0  0.34800  0.18540  0.97980  1.0000 0.0787434675
C   C191      1.0  0.18540  0.34800  0.48680  1.0000 0.0787434675
C   C192      1.0  0.97980  0.48680  0.34800  1.0000 0.0787434675
C   C193      1.0  0.66250  0.54810  0.94990  1.0000 -0.1424627943
C   C194      1.0  0.54810  0.66250  0.83950  1.0000 -0.1424627943
C   C195      1.0  0.94990  0.83950  0.66250  1.0000 -0.1424627943
C   C196      1.0  0.83950  0.94990  0.54810  1.0000 -0.1424627943
C   C197      1.0  0.94990  0.66250  0.54810  1.0000 -0.1424627943
C   C198      1.0  0.83950  0.54810  0.66250  1.0000 -0.1424627943
C   C199      1.0  0.66250  0.94990  0.83950  1.0000 -0.1424627943
C   C200      1.0  0.54810  0.83950  0.94990  1.0000 -0.1424627943
C   C201      1.0  0.54810  0.94990  0.66250  1.0000 -0.1424627943
C   C202      1.0  0.66250  0.83950  0.54810  1.0000 -0.1424627943
C   C203      1.0  0.83950  0.66250  0.94990  1.0000 -0.1424627943
C   C204      1.0  0.94990  0.54810  0.83950  1.0000 -0.1424627943
C   C205      1.0  0.33750  0.45190  0.16050  1.0000 -0.1424627943
C   C206      1.0  0.45190  0.33750  0.05010  1.0000 -0.1424627943
C   C207      1.0  0.05010  0.16050  0.45190  1.0000 -0.1424627943
C   C208      1.0  0.16050  0.05010  0.33750  1.0000 -0.1424627943
C   C209      1.0  0.05010  0.33750  0.16050  1.0000 -0.1424627943
C   C210      1.0  0.16050  0.45190  0.05010  1.0000 -0.1424627943
C   C211      1.0  0.33750  0.05010  0.45190  1.0000 -0.1424627943
C   C212      1.0  0.45190  0.16050  0.33750  1.0000 -0.1424627943
C   C213      1.0  0.45190  0.05010  0.16050  1.0000 -0.1424627943
C   C214      1.0  0.33750  0.16050  0.05010  1.0000 -0.1424627943
C   C215      1.0  0.16050  0.33750  0.45190  1.0000 -0.1424627943
C   C216      1.0  0.05010  0.45190  0.33750  1.0000 -0.1424627943
C   C217      1.0  0.69990  0.44970  0.04250  1.0000 -0.1331391399
C   C218      1.0  0.44970  0.69990  0.80790  1.0000 -0.1331391399
C   C219      1.0  0.04250  0.80790  0.69990  1.0000 -0.1331391399
C   C220      1.0  0.80790  0.04250  0.44970  1.0000 -0.1331391399
C   C221      1.0  0.04250  0.69990  0.44970  1.0000 -0.1331391399
C   C222      1.0  0.80790  0.44970  0.69990  1.0000 -0.1331391399
C   C223      1.0  0.69990  0.04250  0.80790  1.0000 -0.1331391399
C   C224      1.0  0.44970  0.80790  0.04250  1.0000 -0.1331391399
C   C225      1.0  0.44970  0.04250  0.69990  1.0000 -0.1331391399
C   C226      1.0  0.69990  0.80790  0.44970  1.0000 -0.1331391399
C   C227      1.0  0.80790  0.69990  0.04250  1.0000 -0.1331391399
C   C228      1.0  0.04250  0.44970  0.80790  1.0000 -0.1331391399
C   C229      1.0  0.30010  0.55030  0.19210  1.0000 -0.1331391399
C   C230      1.0  0.55030  0.30010  0.95750  1.0000 -0.1331391399
C   C231      1.0  0.95750  0.19210  0.55030  1.0000 -0.1331391399
C   C232      1.0  0.19210  0.95750  0.30010  1.0000 -0.1331391399
C   C233      1.0  0.95750  0.30010  0.19210  1.0000 -0.1331391399
C   C234      1.0  0.19210  0.55030  0.95750  1.0000 -0.1331391399
C   C235      1.0  0.30010  0.95750  0.55030  1.0000 -0.1331391399
C   C236      1.0  0.55030  0.19210  0.30010  1.0000 -0.1331391399
C   C237      1.0  0.55030  0.95750  0.19210  1.0000 -0.1331391399
C   C238      1.0  0.30010  0.19210  0.95750  1.0000 -0.1331391399
C   C239      1.0  0.19210  0.30010  0.55030  1.0000 -0.1331391399
C   C240      1.0  0.95750  0.55030  0.30010  1.0000 -0.1331391399
C   C241      1.0  0.72110  0.51950  0.90190  1.0000 -0.1011004773
C   C242      1.0  0.51950  0.72110  0.85750  1.0000 -0.1011004773
C   C243      1.0  0.90190  0.85750  0.72110  1.0000 -0.1011004773
C   C244      1.0  0.85750  0.90190  0.51950  1.0000 -0.1011004773
C   C245      1.0  0.90190  0.72110  0.51950  1.0000 -0.1011004773
C   C246      1.0  0.85750  0.51950  0.72110  1.0000 -0.1011004773
C   C247      1.0  0.72110  0.90190  0.85750  1.0000 -0.1011004773
C   C248      1.0  0.51950  0.85750  0.90190  1.0000 -0.1011004773
C   C249      1.0  0.51950  0.90190  0.72110  1.0000 -0.1011004773
C   C250      1.0  0.72110  0.85750  0.51950  1.0000 -0.1011004773
C   C251      1.0  0.85750  0.72110  0.90190  1.0000 -0.1011004773
C   C252      1.0  0.90190  0.51950  0.85750  1.0000 -0.1011004773
C   C253      1.0  0.27890  0.48050  0.14250  1.0000 -0.1011004773
C   C254      1.0  0.48050  0.27890  0.09810  1.0000 -0.1011004773
C   C255      1.0  0.09810  0.14250  0.48050  1.0000 -0.1011004773
C   C256      1.0  0.14250  0.09810  0.27890  1.0000 -0.1011004773
C   C257      1.0  0.09810  0.27890  0.14250  1.0000 -0.1011004773
C   C258      1.0  0.14250  0.48050  0.09810  1.0000 -0.1011004773
C   C259      1.0  0.27890  0.09810  0.48050  1.0000 -0.1011004773
C   C260      1.0  0.48050  0.14250  0.27890  1.0000 -0.1011004773
C   C261      1.0  0.48050  0.09810  0.14250  1.0000 -0.1011004773
C   C262      1.0  0.27890  0.14250  0.09810  1.0000 -0.1011004773
C   C263      1.0  0.14250  0.27890  0.48050  1.0000 -0.1011004773
C   C264      1.0  0.09810  0.48050  0.27890  1.0000 -0.1011004773
C   C265      1.0  0.75860  0.42100  0.99440  1.0000 -0.0906975719
C   C266      1.0  0.42100  0.75860  0.82600  1.0000 -0.0906975719
C   C267      1.0  0.99440  0.82600  0.75860  1.0000 -0.0906975719
C   C268      1.0  0.82600  0.99440  0.42100  1.0000 -0.0906975719
C   C269      1.0  0.99440  0.75860  0.42100  1.0000 -0.0906975719
C   C270      1.0  0.82600  0.42100  0.75860  1.0000 -0.0906975719
C   C271      1.0  0.75860  0.99440  0.82600  1.0000 -0.0906975719
C   C272      1.0  0.42100  0.82600  0.99440  1.0000 -0.0906975719
C   C273      1.0  0.42100  0.99440  0.75860  1.0000 -0.0906975719
C   C274      1.0  0.75860  0.82600  0.42100  1.0000 -0.0906975719
C   C275      1.0  0.82600  0.75860  0.99440  1.0000 -0.0906975719
C   C276      1.0  0.99440  0.42100  0.82600  1.0000 -0.0906975719
C   C277      1.0  0.24140  0.57900  0.17400  1.0000 -0.0906975719
C   C278      1.0  0.57900  0.24140  0.00560  1.0000 -0.0906975719
C   C279      1.0  0.00560  0.17400  0.57900  1.0000 -0.0906975719
C   C280      1.0  0.17400  0.00560  0.24140  1.0000 -0.0906975719
C   C281      1.0  0.00560  0.24140  0.17400  1.0000 -0.0906975719
C   C282      1.0  0.17400  0.57900  0.00560  1.0000 -0.0906975719
C   C283      1.0  0.24140  0.00560  0.57900  1.0000 -0.0906975719
C   C284      1.0  0.57900  0.17400  0.24140  1.0000 -0.0906975719
C   C285      1.0  0.57900  0.00560  0.17400  1.0000 -0.0906975719
C   C286      1.0  0.24140  0.17400  0.00560  1.0000 -0.0906975719
C   C287      1.0  0.17400  0.24140  0.57900  1.0000 -0.0906975719
C   C288      1.0  0.00560  0.57900  0.24140  1.0000 -0.0906975719
C   C289      1.0  0.76910  0.45590  0.92410  1.0000 -0.1877253555
C   C290      1.0  0.45590  0.76910  0.85090  1.0000 -0.1877253555
C   C291      1.0  0.92410  0.85090  0.76910  1.0000 -0.1877253555
C   C292      1.0  0.85090  0.92410  0.45590  1.0000 -0.1877253555
C   C293      1.0  0.92410  0.76910  0.45590  1.0000 -0.1877253555
C   C294      1.0  0.85090  0.45590  0.76910  1.0000 -0.1877253555
C   C295      1.0  0.76910  0.92410  0.85090  1.0000 -0.1877253555
C   C296      1.0  0.45590  0.85090  0.92410  1.0000 -0.1877253555
C   C297      1.0  0.45590  0.92410  0.76910  1.0000 -0.1877253555
C   C298      1.0  0.76910  0.85090  0.45590  1.0000 -0.1877253555
C   C299      1.0  0.85090  0.76910  0.92410  1.0000 -0.1877253555
C   C300      1.0  0.92410  0.45590  0.85090  1.0000 -0.1877253555
C   C301      1.0  0.23090  0.54410  0.14910  1.0000 -0.1877253555
C   C302      1.0  0.54410  0.23090  0.07590  1.0000 -0.1877253555
C   C303      1.0  0.07590  0.14910  0.54410  1.0000 -0.1877253555
C   C304      1.0  0.14910  0.07590  0.23090  1.0000 -0.1877253555
C   C305      1.0  0.07590  0.23090  0.14910  1.0000 -0.1877253555
C   C306      1.0  0.14910  0.54410  0.07590  1.0000 -0.1877253555
C   C307      1.0  0.23090  0.07590  0.54410  1.0000 -0.1877253555
C   C308      1.0  0.54410  0.14910  0.23090  1.0000 -0.1877253555
C   C309      1.0  0.54410  0.07590  0.14910  1.0000 -0.1877253555
C   C310      1.0  0.23090  0.14910  0.07590  1.0000 -0.1877253555
C   C311      1.0  0.14910  0.23090  0.54410  1.0000 -0.1877253555
C   C312      1.0  0.07590  0.54410  0.23090  1.0000 -0.1877253555
O   O1        1.0  0.43190  0.61390  0.27910  1.0000 -0.5141224553
O   O2        1.0  0.61390  0.43190  0.67510  1.0000 -0.5141224553
O   O3        1.0  0.27910  0.67510  0.43190  1.0000 -0.5141224553
O   O4        1.0  0.67510  0.27910  0.61390  1.0000 -0.5141224553
O   O5        1.0  0.27910  0.43190  0.61390  1.0000 -0.5141224553
O   O6        1.0  0.67510  0.61390  0.43190  1.0000 -0.5141224553
O   O7        1.0  0.43190  0.27910  0.67510  1.0000 -0.5141224553
O   O8        1.0  0.61390  0.67510  0.27910  1.0000 -0.5141224553
O   O9        1.0  0.61390  0.27910  0.43190  1.0000 -0.5141224553
O   O10       1.0  0.43190  0.67510  0.61390  1.0000 -0.5141224553
O   O11       1.0  0.67510  0.43190  0.27910  1.0000 -0.5141224553
O   O12       1.0  0.27910  0.61390  0.67510  1.0000 -0.5141224553
O   O13       1.0  0.56810  0.38610  0.32490  1.0000 -0.5141224553
O   O14       1.0  0.38610  0.56810  0.72090  1.0000 -0.5141224553
O   O15       1.0  0.72090  0.32490  0.38610  1.0000 -0.5141224553
O   O16       1.0  0.32490  0.72090  0.56810  1.0000 -0.5141224553
O   O17       1.0  0.72090  0.56810  0.32490  1.0000 -0.5141224553
O   O18       1.0  0.32490  0.38610  0.72090  1.0000 -0.5141224553
O   O19       1.0  0.56810  0.72090  0.38610  1.0000 -0.5141224553
O   O20       1.0  0.38610  0.32490  0.56810  1.0000 -0.5141224553
O   O21       1.0  0.38610  0.72090  0.32490  1.0000 -0.5141224553
O   O22       1.0  0.56810  0.32490  0.72090  1.0000 -0.5141224553
O   O23       1.0  0.32490  0.56810  0.38610  1.0000 -0.5141224553
O   O24       1.0  0.72090  0.38610  0.56810  1.0000 -0.5141224553
O   O25       1.0  0.35980  0.67100  0.21780  1.0000 -0.4887201329
O   O26       1.0  0.67100  0.35980  0.75140  1.0000 -0.4887201329
O   O27       1.0  0.21780  0.75140  0.35980  1.0000 -0.4887201329
O   O28       1.0  0.75140  0.21780  0.67100  1.0000 -0.4887201329
O   O29       1.0  0.21780  0.35980  0.67100  1.0000 -0.4887201329
O   O30       1.0  0.75140  0.67100  0.35980  1.0000 -0.4887201329
O   O31       1.0  0.35980  0.21780  0.75140  1.0000 -0.4887201329
O   O32       1.0  0.67100  0.75140  0.21780  1.0000 -0.4887201329
O   O33       1.0  0.67100  0.21780  0.35980  1.0000 -0.4887201329
O   O34       1.0  0.35980  0.75140  0.67100  1.0000 -0.4887201329
O   O35       1.0  0.75140  0.35980  0.21780  1.0000 -0.4887201329
O   O36       1.0  0.21780  0.67100  0.75140  1.0000 -0.4887201329
O   O37       1.0  0.64020  0.32900  0.24860  1.0000 -0.4887201329
O   O38       1.0  0.32900  0.64020  0.78220  1.0000 -0.4887201329
O   O39       1.0  0.78220  0.24860  0.32900  1.0000 -0.4887201329
O   O40       1.0  0.24860  0.78220  0.64020  1.0000 -0.4887201329
O   O41       1.0  0.78220  0.64020  0.24860  1.0000 -0.4887201329
O   O42       1.0  0.24860  0.32900  0.78220  1.0000 -0.4887201329
O   O43       1.0  0.64020  0.78220  0.32900  1.0000 -0.4887201329
O   O44       1.0  0.32900  0.24860  0.64020  1.0000 -0.4887201329
O   O45       1.0  0.32900  0.78220  0.24860  1.0000 -0.4887201329
O   O46       1.0  0.64020  0.24860  0.78220  1.0000 -0.4887201329
O   O47       1.0  0.24860  0.64020  0.32900  1.0000 -0.4887201329
O   O48       1.0  0.78220  0.32900  0.64020  1.0000 -0.4887201329
