# DDEC6 charges by PACMAN v1.1 (https://github.com/mtap-research/PACMAN-charge/)
data_2013[Zr][bct]3[ASR]1
_chemical_formula_sum              "Zr24 H56 C120 S20 O112"
_cell_length_a       13.57
_cell_length_b       19.8
_cell_length_c       28.39
_cell_angle_alpha    90
_cell_angle_beta     90
_cell_angle_gamma    90

_symmetry_space_group_name_H-M    "P 1"
_symmetry_Int_Tables_number       1

loop_
  _symmetry_equiv_pos_as_xyz
  'x, y, z'

loop_
  _atom_site_type_symbol
  _atom_site_label
  _atom_site_symmetry_multiplicity
  _atom_site_fract_x
  _atom_site_fract_y
  _atom_site_fract_z
  _atom_site_occupancy
  _atom_site_charge
Zr  Zr1       1.0  0.19373  0.12193  0.62660  1.0000 2.2474778021
Zr  Zr2       1.0  0.30390  0.88310  0.62360  1.0000 2.1809122885
Zr  Zr3       1.0  0.14250  0.97739  0.69615  1.0000 2.3092199399
Zr  Zr4       1.0  0.38750  0.03000  0.67869  1.0000 2.2601901615
Zr  Zr5       1.0  0.35370  0.02780  0.55588  1.0000 2.3092199399
Zr  Zr6       1.0  0.10930  0.97530  0.57093  1.0000 2.3169810499
Zr  Zr7       1.0  0.30627  0.87807  0.12660  1.0000 2.2474778021
Zr  Zr8       1.0  0.19610  0.11690  0.12360  1.0000 2.1809122885
Zr  Zr9       1.0  0.35750  0.02261  0.19615  1.0000 2.3092199399
Zr  Zr10      1.0  0.11250  0.97000  0.17869  1.0000 2.2601901615
Zr  Zr11      1.0  0.14630  0.97220  0.05588  1.0000 2.3092199399
Zr  Zr12      1.0  0.39070  0.02470  0.07093  1.0000 2.3092199399
Zr  Zr13      1.0  0.80627  0.62193  0.87340  1.0000 2.2474778021
Zr  Zr14      1.0  0.69610  0.38310  0.87640  1.0000 2.1809122885
Zr  Zr15      1.0  0.85750  0.47739  0.80385  1.0000 2.3092199399
Zr  Zr16      1.0  0.61250  0.53000  0.82131  1.0000 2.2601901615
Zr  Zr17      1.0  0.64630  0.52780  0.94412  1.0000 2.3092199399
Zr  Zr18      1.0  0.89070  0.47530  0.92907  1.0000 2.3092199399
Zr  Zr19      1.0  0.69373  0.37807  0.37340  1.0000 2.2474778021
Zr  Zr20      1.0  0.80390  0.61690  0.37640  1.0000 2.1809122885
Zr  Zr21      1.0  0.64250  0.52261  0.30385  1.0000 2.3092199399
Zr  Zr22      1.0  0.88750  0.47000  0.32131  1.0000 2.2601901615
Zr  Zr23      1.0  0.85370  0.47220  0.44412  1.0000 2.3092199399
Zr  Zr24      1.0  0.60930  0.52470  0.42907  1.0000 2.3092199399
H   H1        1.0  0.29510  0.32370  0.68980  1.0000 0.1297437668
H   H2        1.0  0.37770  0.41350  0.73540  1.0000 0.1198700326
H   H3        1.0  0.27760  0.32690  0.55530  1.0000 0.1297437668
H   H4        1.0  0.37700  0.41400  0.51560  1.0000 0.1198700326
H   H5        1.0  0.20780  0.67520  0.56170  1.0000 0.1198700326
H   H6        1.0  0.09600  0.58680  0.53250  1.0000 0.1198700326
H   H7        1.0  0.17910  0.67940  0.67190  1.0000 0.1198700326
H   H8        1.0  0.07890  0.59160  0.71540  1.0000 0.1198700326
H   H9        1.0  0.45820  0.01500  0.83340  1.0000 0.1198700326
H   H10       1.0  0.45990  0.03460  0.91810  1.0000 0.1144374634
H   H11       1.0  0.69266  0.41537  0.45319  1.0000 0.3327030266
H   H12       1.0  0.75674  0.42122  0.29980  1.0000 0.2420626009
H   H13       1.0  0.64466  0.61967  0.36411  1.0000 0.2884226019
H   H14       1.0  0.93031  0.55828  0.37827  1.0000 0.2670462951
H   H15       1.0  0.20490  0.67630  0.18980  1.0000 0.1297437668
H   H16       1.0  0.12230  0.58650  0.23540  1.0000 0.1198700326
H   H17       1.0  0.22240  0.67310  0.05530  1.0000 0.1297437668
H   H18       1.0  0.12300  0.58600  0.01560  1.0000 0.1198700326
H   H19       1.0  0.29220  0.32480  0.06170  1.0000 0.1198700326
H   H20       1.0  0.40400  0.41320  0.03250  1.0000 0.1198700326
H   H21       1.0  0.32090  0.32060  0.17190  1.0000 0.1198700326
H   H22       1.0  0.42110  0.40840  0.21540  1.0000 0.1198700326
H   H23       1.0  0.04180  0.98500  0.33340  1.0000 0.1198700326
H   H24       1.0  0.04010  0.96540  0.41810  1.0000 0.1198700326
H   H25       1.0  0.80734  0.58463  0.95319  1.0000 0.3327030266
H   H26       1.0  0.74326  0.57878  0.79980  1.0000 0.2420626009
H   H27       1.0  0.85534  0.38033  0.86411  1.0000 0.2884226019
H   H28       1.0  0.56969  0.44172  0.87827  1.0000 0.2670462951
H   H29       1.0  0.70490  0.82370  0.81020  1.0000 0.1297437668
H   H30       1.0  0.62230  0.91350  0.76460  1.0000 0.1198700326
H   H31       1.0  0.72240  0.82690  0.94470  1.0000 0.1297437668
H   H32       1.0  0.62300  0.91400  0.98440  1.0000 0.1198700326
H   H33       1.0  0.79220  0.17520  0.93830  1.0000 0.1198700326
H   H34       1.0  0.90400  0.08680  0.96750  1.0000 0.1198700326
H   H35       1.0  0.82090  0.17940  0.82810  1.0000 0.1198700326
H   H36       1.0  0.92110  0.09160  0.78460  1.0000 0.1198700326
H   H37       1.0  0.54180  0.51500  0.66667  1.0000 0.1198700326
H   H38       1.0  0.54010  0.53460  0.58190  1.0000 0.1198700326
H   H39       1.0  0.30734  0.91537  0.04681  1.0000 0.3327030266
H   H40       1.0  0.24326  0.92122  0.20020  1.0000 0.2420626009
H   H41       1.0  0.35534  0.11967  0.13589  1.0000 0.2884226019
H   H42       1.0  0.06969  0.05828  0.12173  1.0000 0.2633303727
H   H43       1.0  0.79510  0.17630  0.31020  1.0000 0.1297437668
H   H44       1.0  0.87770  0.08650  0.26460  1.0000 0.1198700326
H   H45       1.0  0.77760  0.17310  0.44470  1.0000 0.1297437668
H   H46       1.0  0.87700  0.08600  0.48440  1.0000 0.1198700326
H   H47       1.0  0.70780  0.82480  0.43830  1.0000 0.1198700326
H   H48       1.0  0.59600  0.91320  0.46750  1.0000 0.1198700326
H   H49       1.0  0.67910  0.82060  0.32810  1.0000 0.1198700326
H   H50       1.0  0.57890  0.90840  0.28460  1.0000 0.1198700326
H   H51       1.0  0.95820  0.48500  0.16660  1.0000 0.1198700326
H   H52       1.0  0.95990  0.46540  0.08190  1.0000 0.1198700326
H   H53       1.0  0.19266  0.08463  0.54681  1.0000 0.3327030266
H   H54       1.0  0.25674  0.07878  0.70020  1.0000 0.2420626009
H   H55       1.0  0.14466  0.88033  0.63589  1.0000 0.2884226019
H   H56       1.0  0.43031  0.94172  0.62173  1.0000 0.2670462951
C   C1        1.0  0.33840  0.19180  0.69830  1.0000 0.6108671451
C   C2        1.0  0.36740  0.25490  0.72500  1.0000 -0.1098610301
C   C3        1.0  0.34100  0.31490  0.71350  1.0000 -0.1098610301
C   C4        1.0  0.38700  0.36760  0.74060  1.0000 -0.1098610301
C   C5        1.0  0.44810  0.34200  0.77520  1.0000 -0.1584009634
C   C6        1.0  0.51270  0.38200  0.80480  1.0000 0.6202799301
C   C7        1.0  0.31660  0.18580  0.54210  1.0000 0.6108671451
C   C8        1.0  0.35200  0.25360  0.52260  1.0000 -0.0991334942
C   C9        1.0  0.32700  0.31690  0.53380  1.0000 -0.1305834999
C   C10       1.0  0.38300  0.36790  0.50990  1.0000 -0.1098610301
C   C11       1.0  0.44500  0.33940  0.47760  1.0000 -0.1584009634
C   C12       1.0  0.51210  0.37620  0.44610  1.0000 0.6202799301
C   C13       1.0  0.14670  0.81490  0.55500  1.0000 0.6202799301
C   C14       1.0  0.11000  0.74520  0.53450  1.0000 -0.1305834999
C   C15       1.0  0.15000  0.68260  0.54470  1.0000 -0.1205946738
C   C16       1.0  0.09100  0.63250  0.52530  1.0000 -0.1409272018
C   C17       1.0  0.02150  0.65920  0.49370  1.0000 -0.1205946738
C   C18       1.0  0.95290  0.61880  0.46150  1.0000 0.6202799301
C   C19       1.0  0.16750  0.81550  0.70060  1.0000 0.6202799301
C   C20       1.0  0.11800  0.75230  0.71400  1.0000 -0.150834422
C   C21       1.0  0.13500  0.68890  0.69620  1.0000 -0.1205946738
C   C22       1.0  0.07500  0.63780  0.72090  1.0000 -0.0991334942
C   C23       1.0  0.01600  0.66570  0.75130  1.0000 -0.1305834999
C   C24       1.0  0.95180  0.62460  0.78360  1.0000 0.640131923
C   C25       1.0  0.28500  0.00550  0.77980  1.0000 0.6202799301
C   C26       1.0  0.30950  0.00830  0.82960  1.0000 -0.150834422
C   C27       1.0  0.40100  0.01500  0.85130  1.0000 -0.1205946738
C   C28       1.0  0.40600  0.02100  0.90040  1.0000 -0.0991334942
C   C29       1.0  0.31200  0.00250  0.91800  1.0000 -0.1911210542
C   C30       1.0  0.29200  0.99940  0.96830  1.0000 0.6308872188
C   C31       1.0  0.16160  0.80820  0.19830  1.0000 0.6108671451
C   C32       1.0  0.13260  0.74510  0.22500  1.0000 -0.1098610301
C   C33       1.0  0.15900  0.68510  0.21350  1.0000 -0.1098610301
C   C34       1.0  0.11300  0.63240  0.24060  1.0000 -0.1098610301
C   C35       1.0  0.05190  0.65800  0.27520  1.0000 -0.1584009634
C   C36       1.0  0.98730  0.61800  0.30480  1.0000 0.6202799301
C   C37       1.0  0.18340  0.81420  0.04210  1.0000 0.6108671451
C   C38       1.0  0.14800  0.74640  0.02260  1.0000 -0.0949332168
C   C39       1.0  0.17300  0.68310  0.03380  1.0000 -0.1409272018
C   C40       1.0  0.11700  0.63210  0.00990  1.0000 -0.1098610301
C   C41       1.0  0.05500  0.66060  0.97760  1.0000 -0.1584009634
C   C42       1.0  0.98790  0.62380  0.94610  1.0000 0.6202799301
C   C43       1.0  0.35330  0.18510  0.05500  1.0000 0.6202799301
C   C44       1.0  0.39000  0.25480  0.03450  1.0000 -0.1305834999
C   C45       1.0  0.35000  0.31740  0.04470  1.0000 -0.1205946738
C   C46       1.0  0.40900  0.36750  0.02530  1.0000 -0.1409272018
C   C47       1.0  0.47850  0.34080  0.99370  1.0000 -0.1205946738
C   C48       1.0  0.54710  0.38120  0.96150  1.0000 0.6202799301
C   C49       1.0  0.33250  0.18450  0.20060  1.0000 0.6202799301
C   C50       1.0  0.38200  0.24770  0.21400  1.0000 -0.150834422
C   C51       1.0  0.36500  0.31110  0.19620  1.0000 -0.1205946738
C   C52       1.0  0.42500  0.36220  0.22090  1.0000 -0.0991334942
C   C53       1.0  0.48400  0.33430  0.25130  1.0000 -0.1305834999
C   C54       1.0  0.54820  0.37540  0.28360  1.0000 0.640131923
C   C55       1.0  0.21500  0.99450  0.27980  1.0000 0.6202799301
C   C56       1.0  0.19050  0.99170  0.32960  1.0000 -0.150834422
C   C57       1.0  0.09900  0.98500  0.35130  1.0000 -0.1205946738
C   C58       1.0  0.09400  0.97900  0.40040  1.0000 -0.0949332168
C   C59       1.0  0.18800  0.99750  0.41800  1.0000 -0.1911210542
C   C60       1.0  0.20800  0.00060  0.46830  1.0000 0.6308872188
C   C61       1.0  0.66160  0.69180  0.80170  1.0000 0.6108671451
C   C62       1.0  0.63260  0.75490  0.77500  1.0000 -0.1098610301
C   C63       1.0  0.65900  0.81490  0.78650  1.0000 -0.0991334942
C   C64       1.0  0.61300  0.86760  0.75940  1.0000 -0.1098610301
C   C65       1.0  0.55190  0.84200  0.72480  1.0000 -0.1584009634
C   C66       1.0  0.48730  0.88200  0.69520  1.0000 0.6202799301
C   C67       1.0  0.68340  0.68580  0.95790  1.0000 0.6108671451
C   C68       1.0  0.64800  0.75360  0.97740  1.0000 -0.0991334942
C   C69       1.0  0.67300  0.81690  0.96620  1.0000 -0.1305834999
C   C70       1.0  0.61700  0.86790  0.99010  1.0000 -0.1098610301
C   C71       1.0  0.55500  0.83940  0.02240  1.0000 -0.1584009634
C   C72       1.0  0.48790  0.87620  0.05390  1.0000 0.6308872188
C   C73       1.0  0.85330  0.31490  0.94500  1.0000 0.6202799301
C   C74       1.0  0.89000  0.24520  0.96550  1.0000 -0.1305834999
C   C75       1.0  0.85000  0.18260  0.95530  1.0000 -0.1205946738
C   C76       1.0  0.90900  0.13250  0.97470  1.0000 -0.1409272018
C   C77       1.0  0.97850  0.15920  0.00630  1.0000 -0.1098610301
C   C78       1.0  0.04710  0.11880  0.03850  1.0000 0.6202799301
C   C79       1.0  0.83250  0.31550  0.79940  1.0000 0.6202799301
C   C80       1.0  0.88200  0.25230  0.78600  1.0000 -0.150834422
C   C81       1.0  0.86500  0.18890  0.80380  1.0000 -0.1205946738
C   C82       1.0  0.92500  0.13780  0.77910  1.0000 -0.0991334942
C   C83       1.0  0.98400  0.16570  0.74870  1.0000 -0.1409272018
C   C84       1.0  0.04820  0.12460  0.71640  1.0000 0.640131923
C   C85       1.0  0.71500  0.50550  0.72020  1.0000 0.6202799301
C   C86       1.0  0.69050  0.50830  0.67040  1.0000 -0.150834422
C   C87       1.0  0.59900  0.51500  0.64870  1.0000 -0.1205946738
C   C88       1.0  0.59400  0.52100  0.59960  1.0000 -0.0991334942
C   C89       1.0  0.68800  0.50250  0.58200  1.0000 -0.1911210542
C   C90       1.0  0.70800  0.49940  0.53170  1.0000 0.6308872188
C   C91       1.0  0.83840  0.30820  0.30170  1.0000 0.6108671451
C   C92       1.0  0.86740  0.24510  0.27500  1.0000 -0.1098610301
C   C93       1.0  0.84100  0.18510  0.28650  1.0000 -0.1098610301
C   C94       1.0  0.88700  0.13240  0.25940  1.0000 -0.1098610301
C   C95       1.0  0.94810  0.15800  0.22480  1.0000 -0.1584009634
C   C96       1.0  0.01270  0.11800  0.19520  1.0000 0.6202799301
C   C97       1.0  0.81660  0.31420  0.45790  1.0000 0.6108671451
C   C98       1.0  0.85200  0.24640  0.47740  1.0000 -0.0991334942
C   C99       1.0  0.82700  0.18310  0.46620  1.0000 -0.1305834999
C   C100      1.0  0.88300  0.13210  0.49010  1.0000 -0.1098610301
C   C101      1.0  0.94500  0.16060  0.52240  1.0000 -0.1584009634
C   C102      1.0  0.01210  0.12380  0.55390  1.0000 0.6202799301
C   C103      1.0  0.64670  0.68510  0.44500  1.0000 0.6202799301
C   C104      1.0  0.61000  0.75480  0.46550  1.0000 -0.1305834999
C   C105      1.0  0.65000  0.81740  0.45530  1.0000 -0.1205946738
C   C106      1.0  0.59100  0.86750  0.47470  1.0000 -0.1409272018
C   C107      1.0  0.52150  0.84080  0.50630  1.0000 -0.1205946738
C   C108      1.0  0.45290  0.88120  0.53850  1.0000 0.6202799301
C   C109      1.0  0.66750  0.68450  0.29940  1.0000 0.6202799301
C   C110      1.0  0.61800  0.74770  0.28600  1.0000 -0.150834422
C   C111      1.0  0.63500  0.81110  0.30380  1.0000 -0.1205946738
C   C112      1.0  0.57500  0.86220  0.27910  1.0000 -0.0991334942
C   C113      1.0  0.51600  0.83430  0.24870  1.0000 -0.1305834999
C   C114      1.0  0.45180  0.87540  0.21640  1.0000 0.640131923
C   C115      1.0  0.78500  0.49450  0.22020  1.0000 0.6202799301
C   C116      1.0  0.80950  0.49170  0.17040  1.0000 -0.150834422
C   C117      1.0  0.90100  0.48500  0.14870  1.0000 -0.1205946738
C   C118      1.0  0.90600  0.47900  0.09960  1.0000 -0.0949332168
C   C119      1.0  0.81200  0.49750  0.08200  1.0000 -0.1911210542
C   C120      1.0  0.79200  0.50060  0.03170  1.0000 0.6308872188
S   S1        1.0  0.45600  0.25610  0.76900  1.0000 0.169517692
S   S2        1.0  0.43700  0.25210  0.47690  1.0000 0.1297437668
S   S3        1.0  0.02160  0.74460  0.49340  1.0000 0.1468807633
S   S4        1.0  0.02860  0.74910  0.75860  1.0000 0.169517692
S   S5        1.0  0.22710  0.99140  0.87540  1.0000 0.1784830788
S   S6        1.0  0.04400  0.74390  0.26900  1.0000 0.169517692
S   S7        1.0  0.06300  0.74790  0.97690  1.0000 0.1297437668
S   S8        1.0  0.47840  0.25540  0.99340  1.0000 0.1468807633
S   S9        1.0  0.47140  0.25090  0.25860  1.0000 0.169517692
S   S10       1.0  0.27290  0.00860  0.37540  1.0000 0.1982468242
S   S11       1.0  0.54400  0.75610  0.73100  1.0000 0.169517692
S   S12       1.0  0.56300  0.75210  0.02310  1.0000 0.1387576635
S   S13       1.0  0.97840  0.24460  0.00660  1.0000 0.1468807633
S   S14       1.0  0.97140  0.24910  0.74140  1.0000 0.169517692
S   S15       1.0  0.77290  0.49140  0.62460  1.0000 0.1784830788
S   S16       1.0  0.95600  0.24390  0.23100  1.0000 0.169517692
S   S17       1.0  0.93700  0.24790  0.52310  1.0000 0.1297437668
S   S18       1.0  0.52160  0.75540  0.50660  1.0000 0.1468807633
S   S19       1.0  0.52860  0.75090  0.24140  1.0000 0.1624985362
S   S20       1.0  0.72710  0.50860  0.12460  1.0000 0.1982468242
O   O1        1.0  0.36330  0.09790  0.61890  1.0000 -1.169636858
O   O2        1.0  0.21700  0.05340  0.57360  1.0000 -1.0315635478
O   O3        1.0  0.07830  0.03450  0.63380  1.0000 -1.169636858
O   O4        1.0  0.23560  0.05580  0.67800  1.0000 -1.0080170905
O   O5        1.0  0.29630  0.93620  0.69360  1.0000 -1.1120392119
O   O6        1.0  0.37990  0.97360  0.62030  1.0000 -1.0080170905
O   O7        1.0  0.26640  0.93450  0.55570  1.0000 -1.1120392119
O   O8        1.0  0.16520  0.92650  0.63000  1.0000 -1.0315635478
O   O9        1.0  0.25190  0.19240  0.57470  1.0000 -0.5990718221
O   O10       1.0  0.34690  0.13570  0.52630  1.0000 -0.5506879024
O   O11       1.0  0.56470  0.34390  0.41700  1.0000 -0.5943558013
O   O12       1.0  0.51670  0.44020  0.45530  1.0000 -0.6403260653
O   O13       1.0  0.91120  0.65710  0.81830  1.0000 -0.6187933882
O   O14       1.0  0.93400  0.56630  0.77190  1.0000 -0.5823635583
O   O15       1.0  0.27360  0.19870  0.67130  1.0000 -0.5160959934
O   O16       1.0  0.38850  0.13750  0.71140  1.0000 -0.629223456
O   O17       1.0  0.19830  0.98750  0.76730  1.0000 -0.6187933882
O   O18       1.0  0.35910  0.02240  0.75700  1.0000 -0.5595018988
O   O19       1.0  0.36430  0.01650  0.99310  1.0000 -0.5823635583
O   O20       1.0  0.20540  0.98130  0.98200  1.0000 -0.6095747506
O   O21       1.0  0.51040  0.44500  0.80070  1.0000 -0.5943558013
O   O22       1.0  0.56740  0.34930  0.83470  1.0000 -0.5990718221
O   O23       1.0  0.95070  0.55520  0.47150  1.0000 -0.629223456
O   O24       1.0  0.91520  0.64990  0.42950  1.0000 -0.5506879024
O   O25       1.0  0.10230  0.86500  0.54490  1.0000 -0.5595018988
O   O26       1.0  0.22090  0.80910  0.58080  1.0000 -0.5595018988
O   O27       1.0  0.13070  0.86910  0.71950  1.0000 -0.6403260653
O   O28       1.0  0.23430  0.80730  0.67190  1.0000 -0.5506879024
O   O29       1.0  0.13670  0.90210  0.11890  1.0000 -1.169636858
O   O30       1.0  0.28300  0.94660  0.07360  1.0000 -1.0315635478
O   O31       1.0  0.42170  0.96550  0.13380  1.0000 -1.169636858
O   O32       1.0  0.26440  0.94420  0.17800  1.0000 -1.0034132078
O   O33       1.0  0.20370  0.06380  0.19360  1.0000 -1.1206342653
O   O34       1.0  0.12010  0.02640  0.12030  1.0000 -1.0080170905
O   O35       1.0  0.23360  0.06550  0.05570  1.0000 -1.1120392119
O   O36       1.0  0.33480  0.07350  0.13000  1.0000 -1.0315635478
O   O37       1.0  0.24810  0.80760  0.07470  1.0000 -0.5990718221
O   O38       1.0  0.15310  0.86430  0.02630  1.0000 -0.5446784173
O   O39       1.0  0.93530  0.65610  0.91700  1.0000 -0.5990718221
O   O40       1.0  0.98330  0.55980  0.95530  1.0000 -0.6403260653
O   O41       1.0  0.58880  0.34290  0.31830  1.0000 -0.6187933882
O   O42       1.0  0.56600  0.43370  0.27190  1.0000 -0.5823635583
O   O43       1.0  0.22640  0.80130  0.17130  1.0000 -0.5148334777
O   O44       1.0  0.11150  0.86250  0.21140  1.0000 -0.629223456
O   O45       1.0  0.30170  0.01250  0.26730  1.0000 -0.6187933882
O   O46       1.0  0.14090  0.97760  0.25700  1.0000 -0.5595018988
O   O47       1.0  0.13570  0.98350  0.49310  1.0000 -0.5823635583
O   O48       1.0  0.29460  0.01870  0.48200  1.0000 -0.6095747506
O   O49       1.0  0.98960  0.55500  0.30070  1.0000 -0.5943558013
O   O50       1.0  0.93260  0.65070  0.33470  1.0000 -0.5990718221
O   O51       1.0  0.54930  0.44480  0.97150  1.0000 -0.629223456
O   O52       1.0  0.58480  0.35010  0.92950  1.0000 -0.5506879024
O   O53       1.0  0.39770  0.13500  0.04490  1.0000 -0.5595018988
O   O54       1.0  0.27910  0.19090  0.08080  1.0000 -0.5595018988
O   O55       1.0  0.36930  0.13090  0.21950  1.0000 -0.6403260653
O   O56       1.0  0.26570  0.19270  0.17190  1.0000 -0.5446784173
O   O57       1.0  0.63670  0.59790  0.88110  1.0000 -1.169636858
O   O58       1.0  0.78300  0.55340  0.92640  1.0000 -1.0315635478
O   O59       1.0  0.92170  0.53450  0.86620  1.0000 -1.169636858
O   O60       1.0  0.76440  0.55580  0.82200  1.0000 -1.0034132078
O   O61       1.0  0.70370  0.43620  0.80640  1.0000 -1.1206342653
O   O62       1.0  0.62010  0.47360  0.87970  1.0000 -1.0080170905
O   O63       1.0  0.73360  0.43450  0.94430  1.0000 -1.1120392119
O   O64       1.0  0.83480  0.42650  0.87000  1.0000 -1.0315635478
O   O65       1.0  0.74810  0.69240  0.92530  1.0000 -0.5990718221
O   O66       1.0  0.65310  0.63570  0.97370  1.0000 -0.5446784173
O   O67       1.0  0.43530  0.84390  0.08300  1.0000 -0.5943558013
O   O68       1.0  0.48330  0.94020  0.04470  1.0000 -0.6403260653
O   O69       1.0  0.08880  0.15710  0.68170  1.0000 -0.6187933882
O   O70       1.0  0.06600  0.06630  0.72810  1.0000 -0.5823635583
O   O71       1.0  0.72640  0.69870  0.82870  1.0000 -0.5148334777
O   O72       1.0  0.61150  0.63750  0.78860  1.0000 -0.629223456
O   O73       1.0  0.80170  0.48750  0.73270  1.0000 -0.6187933882
O   O74       1.0  0.64090  0.52240  0.74300  1.0000 -0.5595018988
O   O75       1.0  0.63570  0.51650  0.50690  1.0000 -0.5823635583
O   O76       1.0  0.79460  0.48130  0.51800  1.0000 -0.6095747506
O   O77       1.0  0.48960  0.94500  0.69930  1.0000 -0.5990718221
O   O78       1.0  0.43260  0.84930  0.66530  1.0000 -0.6095747506
O   O79       1.0  0.04930  0.05520  0.02850  1.0000 -0.629223456
O   O80       1.0  0.08480  0.14990  0.07050  1.0000 -0.5506879024
O   O81       1.0  0.89770  0.36500  0.95510  1.0000 -0.5595018988
O   O82       1.0  0.77910  0.30910  0.91920  1.0000 -0.5595018988
O   O83       1.0  0.86930  0.36910  0.78050  1.0000 -0.6403260653
O   O84       1.0  0.76570  0.30730  0.82810  1.0000 -0.5446784173
O   O85       1.0  0.86330  0.40210  0.38110  1.0000 -1.169636858
O   O86       1.0  0.71700  0.44660  0.42640  1.0000 -1.0315635478
O   O87       1.0  0.57830  0.46550  0.36620  1.0000 -1.169636858
O   O88       1.0  0.73560  0.44420  0.32200  1.0000 -1.0034132078
O   O89       1.0  0.79630  0.56380  0.30640  1.0000 -1.1206342653
O   O90       1.0  0.87990  0.52640  0.37970  1.0000 -1.0080170905
O   O91       1.0  0.76640  0.56550  0.44430  1.0000 -1.1120392119
O   O92       1.0  0.66520  0.57350  0.37000  1.0000 -1.0315635478
O   O93       1.0  0.75190  0.30760  0.42530  1.0000 -0.5990718221
O   O94       1.0  0.84690  0.36430  0.47370  1.0000 -0.5506879024
O   O95       1.0  0.06470  0.15610  0.58300  1.0000 -0.5990718221
O   O96       1.0  0.01670  0.05980  0.54470  1.0000 -0.6403260653
O   O97       1.0  0.41120  0.84290  0.18170  1.0000 -0.6187933882
O   O98       1.0  0.43400  0.93370  0.22810  1.0000 -0.5823635583
O   O99       1.0  0.77360  0.30130  0.32870  1.0000 -0.5160959934
O   O100      1.0  0.88850  0.36250  0.28860  1.0000 -0.629223456
O   O101      1.0  0.69830  0.51250  0.23270  1.0000 -0.6187933882
O   O102      1.0  0.85910  0.47760  0.24300  1.0000 -0.5595018988
O   O103      1.0  0.86430  0.48350  0.00690  1.0000 -0.5823635583
O   O104      1.0  0.70540  0.51870  0.01800  1.0000 -0.6095747506
O   O105      1.0  0.01040  0.05500  0.19930  1.0000 -0.5943558013
O   O106      1.0  0.06740  0.15070  0.16530  1.0000 -0.5990718221
O   O107      1.0  0.45070  0.94480  0.52850  1.0000 -0.629223456
O   O108      1.0  0.41520  0.85010  0.57050  1.0000 -0.5506879024
O   O109      1.0  0.60230  0.63500  0.45510  1.0000 -0.5595018988
O   O110      1.0  0.72090  0.69090  0.41920  1.0000 -0.5595018988
O   O111      1.0  0.63070  0.63090  0.28050  1.0000 -0.6403260653
O   O112      1.0  0.73430  0.69270  0.32810  1.0000 -0.5446784173
