# DDEC6 charges by PACMAN v1.1 (https://github.com/mtap-research/PACMAN-charge/)
data_2013[ZnTi][nan]3[ASR]1
_chemical_formula_sum              "Ti4 Zn12 H84 C158 N4 O66"
_cell_length_a       20.171
_cell_length_b       20.171
_cell_length_c       26.197
_cell_angle_alpha    90
_cell_angle_beta     90
_cell_angle_gamma    120

_symmetry_space_group_name_H-M    "P 1"
_symmetry_Int_Tables_number       1

loop_
  _symmetry_equiv_pos_as_xyz
  'x, y, z'

loop_
  _atom_site_type_symbol
  _atom_site_label
  _atom_site_symmetry_multiplicity
  _atom_site_fract_x
  _atom_site_fract_y
  _atom_site_fract_z
  _atom_site_occupancy
  _atom_site_charge
Ti  Ti1       1.0  0.33333  0.66667  0.59294  1.0000 1.8591401904
Ti  Ti2       1.0  0.66667  0.33333  0.09294  1.0000 1.8591401904
Ti  Ti3       1.0  0.66667  0.33333  0.40706  1.0000 1.8591401904
Ti  Ti4       1.0  0.33333  0.66667  0.90706  1.0000 1.8591401904
Zn  Zn1       1.0  0.00000  0.00000  0.62405  1.0000 0.8072312057
Zn  Zn2       1.0  0.00000  0.00000  0.12405  1.0000 0.8072312057
Zn  Zn3       1.0  0.00000  0.00000  0.37595  1.0000 0.8072312057
Zn  Zn4       1.0  0.00000  0.00000  0.87595  1.0000 0.8072312057
Zn  Zn5       1.0  0.00000  0.00000  0.50000  1.0000 0.9788437217
Zn  Zn6       1.0  0.00000  0.00000  0.00000  1.0000 0.9788437217
Zn  Zn7       1.0  0.37811  0.56537  0.75000  1.0000 0.9788437217
Zn  Zn8       1.0  0.43463  0.81274  0.75000  1.0000 0.9788437217
Zn  Zn9       1.0  0.18726  0.62189  0.75000  1.0000 0.9788437217
Zn  Zn10      1.0  0.62189  0.43463  0.25000  1.0000 0.9788437217
Zn  Zn11      1.0  0.56537  0.18726  0.25000  1.0000 0.9788437217
Zn  Zn12      1.0  0.81274  0.37811  0.25000  1.0000 0.9788437217
H   H1        1.0  0.14250  0.24640  0.62640  1.0000 0.1192883803
H   H2        1.0  0.75360  0.89610  0.62640  1.0000 0.1192883803
H   H3        1.0  0.10390  0.85750  0.62640  1.0000 0.1192883803
H   H4        1.0  0.85750  0.75360  0.12640  1.0000 0.1192883803
H   H5        1.0  0.24640  0.10390  0.12640  1.0000 0.1192883803
H   H6        1.0  0.89610  0.14250  0.12640  1.0000 0.1192883803
H   H7        1.0  0.85750  0.75360  0.37360  1.0000 0.1192883803
H   H8        1.0  0.24640  0.10390  0.37360  1.0000 0.1192883803
H   H9        1.0  0.89610  0.14250  0.37360  1.0000 0.1192883803
H   H10       1.0  0.14250  0.24640  0.87360  1.0000 0.1192883803
H   H11       1.0  0.75360  0.89610  0.87360  1.0000 0.1192883803
H   H12       1.0  0.10390  0.85750  0.87360  1.0000 0.1192883803
H   H13       1.0  0.23280  0.38000  0.65170  1.0000 0.1192883803
H   H14       1.0  0.62000  0.85280  0.65170  1.0000 0.1192883803
H   H15       1.0  0.14720  0.76720  0.65170  1.0000 0.1192883803
H   H16       1.0  0.76720  0.62000  0.15170  1.0000 0.1192883803
H   H17       1.0  0.38000  0.14720  0.15170  1.0000 0.1192883803
H   H18       1.0  0.85280  0.23280  0.15170  1.0000 0.1192883803
H   H19       1.0  0.76720  0.62000  0.34830  1.0000 0.1192883803
H   H20       1.0  0.38000  0.14720  0.34830  1.0000 0.1192883803
H   H21       1.0  0.85280  0.23280  0.34830  1.0000 0.1192883803
H   H22       1.0  0.23280  0.38000  0.84830  1.0000 0.1192883803
H   H23       1.0  0.62000  0.85280  0.84830  1.0000 0.1192883803
H   H24       1.0  0.14720  0.76720  0.84830  1.0000 0.1192883803
H   H25       1.0  0.18050  0.46910  0.50040  1.0000 0.145032528
H   H26       1.0  0.53090  0.71140  0.50040  1.0000 0.145032528
H   H27       1.0  0.28860  0.81950  0.50040  1.0000 0.145032528
H   H28       1.0  0.81950  0.53090  0.00040  1.0000 0.145032528
H   H29       1.0  0.46910  0.28860  0.00040  1.0000 0.145032528
H   H30       1.0  0.71140  0.18050  0.00040  1.0000 0.145032528
H   H31       1.0  0.81950  0.53090  0.49960  1.0000 0.145032528
H   H32       1.0  0.46910  0.28860  0.49960  1.0000 0.145032528
H   H33       1.0  0.71140  0.18050  0.49960  1.0000 0.145032528
H   H34       1.0  0.18050  0.46910  0.99960  1.0000 0.145032528
H   H35       1.0  0.53090  0.71140  0.99960  1.0000 0.145032528
H   H36       1.0  0.28860  0.81950  0.99960  1.0000 0.145032528
H   H37       1.0  0.09170  0.33290  0.47330  1.0000 0.1192883803
H   H38       1.0  0.66710  0.75880  0.47330  1.0000 0.1192883803
H   H39       1.0  0.24120  0.90830  0.47330  1.0000 0.1192883803
H   H40       1.0  0.90830  0.66710  0.97330  1.0000 0.1192883803
H   H41       1.0  0.33290  0.24120  0.97330  1.0000 0.1192883803
H   H42       1.0  0.75880  0.09170  0.97330  1.0000 0.1192883803
H   H43       1.0  0.90830  0.66710  0.52670  1.0000 0.1192883803
H   H44       1.0  0.33290  0.24120  0.52670  1.0000 0.1192883803
H   H45       1.0  0.75880  0.09170  0.52670  1.0000 0.1192883803
H   H46       1.0  0.09170  0.33290  0.02670  1.0000 0.1192883803
H   H47       1.0  0.66710  0.75880  0.02670  1.0000 0.1192883803
H   H48       1.0  0.24120  0.90830  0.02670  1.0000 0.1192883803
H   H49       1.0  0.03080  0.20450  0.49100  1.0000 0.1306391562
H   H50       1.0  0.79550  0.82630  0.49100  1.0000 0.1306391562
H   H51       1.0  0.17370  0.96920  0.49100  1.0000 0.1306391562
H   H52       1.0  0.96920  0.79550  0.99100  1.0000 0.1306391562
H   H53       1.0  0.20450  0.17370  0.99100  1.0000 0.1306391562
H   H54       1.0  0.82630  0.03080  0.99100  1.0000 0.1306391562
H   H55       1.0  0.96920  0.79550  0.50900  1.0000 0.1306391562
H   H56       1.0  0.20450  0.17370  0.50900  1.0000 0.1306391562
H   H57       1.0  0.82630  0.03080  0.50900  1.0000 0.1306391562
H   H58       1.0  0.03080  0.20450  0.00900  1.0000 0.1306391562
H   H59       1.0  0.79550  0.82630  0.00900  1.0000 0.1306391562
H   H60       1.0  0.17370  0.96920  0.00900  1.0000 0.1306391562
H   H61       1.0  0.99180  0.89560  0.70760  1.0000 0.1192883803
H   H62       1.0  0.10440  0.09620  0.70760  1.0000 0.1192883803
H   H63       1.0  0.90380  0.00820  0.70760  1.0000 0.1192883803
H   H64       1.0  0.00820  0.10440  0.20760  1.0000 0.1192883803
H   H65       1.0  0.89560  0.90380  0.20760  1.0000 0.1192883803
H   H66       1.0  0.09620  0.99180  0.20760  1.0000 0.1192883803
H   H67       1.0  0.00820  0.10440  0.29240  1.0000 0.1192883803
H   H68       1.0  0.89560  0.90380  0.29240  1.0000 0.1192883803
H   H69       1.0  0.09620  0.99180  0.29240  1.0000 0.1192883803
H   H70       1.0  0.99180  0.89560  0.79240  1.0000 0.1192883803
H   H71       1.0  0.10440  0.09620  0.79240  1.0000 0.1192883803
H   H72       1.0  0.90380  0.00820  0.79240  1.0000 0.1192883803
H   H73       1.0  0.91020  0.89130  0.70750  1.0000 0.1192883803
H   H74       1.0  0.10870  0.01890  0.70750  1.0000 0.1192883803
H   H75       1.0  0.98110  0.08980  0.70750  1.0000 0.1192883803
H   H76       1.0  0.08980  0.10870  0.20750  1.0000 0.1192883803
H   H77       1.0  0.89130  0.98110  0.20750  1.0000 0.1192883803
H   H78       1.0  0.01890  0.91020  0.20750  1.0000 0.1192883803
H   H79       1.0  0.08980  0.10870  0.29250  1.0000 0.1192883803
H   H80       1.0  0.89130  0.98110  0.29250  1.0000 0.1192883803
H   H81       1.0  0.01890  0.91020  0.29250  1.0000 0.1192883803
H   H82       1.0  0.91020  0.89130  0.79250  1.0000 0.1192883803
H   H83       1.0  0.10870  0.01890  0.79250  1.0000 0.1192883803
H   H84       1.0  0.98110  0.08980  0.79250  1.0000 0.1192883803
C   C1        1.0  0.08139  0.21373  0.56153  1.0000 -0.0305479723
C   C2        1.0  0.78627  0.86766  0.56153  1.0000 -0.0305479723
C   C3        1.0  0.13234  0.91861  0.56153  1.0000 -0.0305479723
C   C4        1.0  0.91861  0.78627  0.06153  1.0000 -0.0305479723
C   C5        1.0  0.21373  0.13234  0.06153  1.0000 -0.0305479723
C   C6        1.0  0.86766  0.08139  0.06153  1.0000 -0.0305479723
C   C7        1.0  0.91861  0.78627  0.43847  1.0000 -0.0305479723
C   C8        1.0  0.21373  0.13234  0.43847  1.0000 -0.0305479723
C   C9        1.0  0.86766  0.08139  0.43847  1.0000 -0.0305479723
C   C10       1.0  0.08139  0.21373  0.93847  1.0000 -0.0305479723
C   C11       1.0  0.78627  0.86766  0.93847  1.0000 -0.0305479723
C   C12       1.0  0.13234  0.91861  0.93847  1.0000 -0.0305479723
C   C13       1.0  0.13240  0.26478  0.59568  1.0000 -0.1445231061
C   C14       1.0  0.73522  0.86762  0.59568  1.0000 -0.1445231061
C   C15       1.0  0.13238  0.86760  0.59568  1.0000 -0.1445231061
C   C16       1.0  0.86760  0.73522  0.09568  1.0000 -0.1445231061
C   C17       1.0  0.26478  0.13238  0.09568  1.0000 -0.1445231061
C   C18       1.0  0.86762  0.13240  0.09568  1.0000 -0.1445231061
C   C19       1.0  0.86760  0.73522  0.40432  1.0000 -0.1445231061
C   C20       1.0  0.26478  0.13238  0.40432  1.0000 -0.1445231061
C   C21       1.0  0.86762  0.13240  0.40432  1.0000 -0.1445231061
C   C22       1.0  0.13240  0.26478  0.90432  1.0000 -0.1445231061
C   C23       1.0  0.73522  0.86762  0.90432  1.0000 -0.1445231061
C   C24       1.0  0.13238  0.86760  0.90432  1.0000 -0.1445231061
C   C25       1.0  0.17036  0.34399  0.58637  1.0000 0.0524758446
C   C26       1.0  0.65601  0.82637  0.58637  1.0000 0.0524758446
C   C27       1.0  0.17363  0.82964  0.58637  1.0000 0.0524758446
C   C28       1.0  0.82964  0.65601  0.08637  1.0000 0.0524758446
C   C29       1.0  0.34399  0.17363  0.08637  1.0000 0.0524758446
C   C30       1.0  0.82637  0.17036  0.08637  1.0000 0.0524758446
C   C31       1.0  0.82964  0.65601  0.41363  1.0000 0.0524758446
C   C32       1.0  0.34399  0.17363  0.41363  1.0000 0.0524758446
C   C33       1.0  0.82637  0.17036  0.41363  1.0000 0.0524758446
C   C34       1.0  0.17036  0.34399  0.91363  1.0000 0.0524758446
C   C35       1.0  0.65601  0.82637  0.91363  1.0000 0.0524758446
C   C36       1.0  0.17363  0.82964  0.91363  1.0000 0.0524758446
C   C37       1.0  0.22188  0.39765  0.62097  1.0000 -0.1262387861
C   C38       1.0  0.60235  0.82423  0.62097  1.0000 -0.1262387861
C   C39       1.0  0.17577  0.77812  0.62097  1.0000 -0.1262387861
C   C40       1.0  0.77812  0.60235  0.12097  1.0000 -0.1262387861
C   C41       1.0  0.39765  0.17577  0.12097  1.0000 -0.1262387861
C   C42       1.0  0.82423  0.22188  0.12097  1.0000 -0.1262387861
C   C43       1.0  0.77812  0.60235  0.37903  1.0000 -0.1262387861
C   C44       1.0  0.39765  0.17577  0.37903  1.0000 -0.1262387861
C   C45       1.0  0.82423  0.22188  0.37903  1.0000 -0.1262387861
C   C46       1.0  0.22188  0.39765  0.87903  1.0000 -0.1262387861
C   C47       1.0  0.60235  0.82423  0.87903  1.0000 -0.1262387861
C   C48       1.0  0.17577  0.77812  0.87903  1.0000 -0.1262387861
C   C49       1.0  0.25726  0.47476  0.61215  1.0000 -0.1506940854
C   C50       1.0  0.52524  0.78250  0.61215  1.0000 -0.1506940854
C   C51       1.0  0.21750  0.74274  0.61215  1.0000 -0.1506940854
C   C52       1.0  0.74274  0.52524  0.11215  1.0000 -0.1506940854
C   C53       1.0  0.47476  0.21750  0.11215  1.0000 -0.1506940854
C   C54       1.0  0.78250  0.25726  0.11215  1.0000 -0.1506940854
C   C55       1.0  0.74274  0.52524  0.38785  1.0000 -0.1506940854
C   C56       1.0  0.47476  0.21750  0.38785  1.0000 -0.1506940854
C   C57       1.0  0.78250  0.25726  0.38785  1.0000 -0.1506940854
C   C58       1.0  0.25726  0.47476  0.88785  1.0000 -0.1506940854
C   C59       1.0  0.52524  0.78250  0.88785  1.0000 -0.1506940854
C   C60       1.0  0.21750  0.74274  0.88785  1.0000 -0.1506940854
C   C61       1.0  0.24191  0.50222  0.56535  1.0000 0.3524552017
C   C62       1.0  0.49778  0.73969  0.56535  1.0000 0.3524552017
C   C63       1.0  0.26031  0.75809  0.56535  1.0000 0.3524552017
C   C64       1.0  0.75809  0.49778  0.06535  1.0000 0.3524552017
C   C65       1.0  0.50222  0.26031  0.06535  1.0000 0.3524552017
C   C66       1.0  0.73969  0.24191  0.06535  1.0000 0.3524552017
C   C67       1.0  0.75809  0.49778  0.43465  1.0000 0.3524552017
C   C68       1.0  0.50222  0.26031  0.43465  1.0000 0.3524552017
C   C69       1.0  0.73969  0.24191  0.43465  1.0000 0.3524552017
C   C70       1.0  0.24191  0.50222  0.93465  1.0000 0.3524552017
C   C71       1.0  0.49778  0.73969  0.93465  1.0000 0.3524552017
C   C72       1.0  0.26031  0.75809  0.93465  1.0000 0.3524552017
C   C73       1.0  0.19146  0.45082  0.53080  1.0000 -0.275965335
C   C74       1.0  0.54918  0.74064  0.53080  1.0000 -0.275965335
C   C75       1.0  0.25936  0.80854  0.53080  1.0000 -0.275965335
C   C76       1.0  0.80854  0.54918  0.03080  1.0000 -0.275965335
C   C77       1.0  0.45082  0.25936  0.03080  1.0000 -0.275965335
C   C78       1.0  0.74064  0.19146  0.03080  1.0000 -0.275965335
C   C79       1.0  0.80854  0.54918  0.46920  1.0000 -0.275965335
C   C80       1.0  0.45082  0.25936  0.46920  1.0000 -0.275965335
C   C81       1.0  0.74064  0.19146  0.46920  1.0000 -0.275965335
C   C82       1.0  0.19146  0.45082  0.96920  1.0000 -0.275965335
C   C83       1.0  0.54918  0.74064  0.96920  1.0000 -0.275965335
C   C84       1.0  0.25936  0.80854  0.96920  1.0000 -0.275965335
C   C85       1.0  0.15560  0.37145  0.53956  1.0000 0.1070320803
C   C86       1.0  0.62855  0.78415  0.53956  1.0000 0.1070320803
C   C87       1.0  0.21585  0.84440  0.53956  1.0000 0.1070320803
C   C88       1.0  0.84440  0.62855  0.03956  1.0000 0.1070320803
C   C89       1.0  0.37145  0.21585  0.03956  1.0000 0.1070320803
C   C90       1.0  0.78415  0.15560  0.03956  1.0000 0.1070320803
C   C91       1.0  0.84440  0.62855  0.46044  1.0000 0.1070320803
C   C92       1.0  0.37145  0.21585  0.46044  1.0000 0.1070320803
C   C93       1.0  0.78415  0.15560  0.46044  1.0000 0.1070320803
C   C94       1.0  0.15560  0.37145  0.96044  1.0000 0.1070320803
C   C95       1.0  0.62855  0.78415  0.96044  1.0000 0.1070320803
C   C96       1.0  0.21585  0.84440  0.96044  1.0000 0.1070320803
C   C97       1.0  0.10210  0.31600  0.50457  1.0000 -0.1506940854
C   C98       1.0  0.68400  0.78610  0.50457  1.0000 -0.1506940854
C   C99       1.0  0.21390  0.89790  0.50457  1.0000 -0.1506940854
C   C100      1.0  0.89790  0.68400  0.00457  1.0000 -0.1506940854
C   C101      1.0  0.31600  0.21390  0.00457  1.0000 -0.1506940854
C   C102      1.0  0.78610  0.10210  0.00457  1.0000 -0.1506940854
C   C103      1.0  0.89790  0.68400  0.49543  1.0000 -0.1506940854
C   C104      1.0  0.31600  0.21390  0.49543  1.0000 -0.1506940854
C   C105      1.0  0.78610  0.10210  0.49543  1.0000 -0.1506940854
C   C106      1.0  0.10210  0.31600  0.99543  1.0000 -0.1506940854
C   C107      1.0  0.68400  0.78610  0.99543  1.0000 -0.1506940854
C   C108      1.0  0.21390  0.89790  0.99543  1.0000 -0.1506940854
C   C109      1.0  0.06615  0.24017  0.51484  1.0000 -0.1015188292
C   C110      1.0  0.75983  0.82598  0.51484  1.0000 -0.1015188292
C   C111      1.0  0.17402  0.93385  0.51484  1.0000 -0.1015188292
C   C112      1.0  0.93385  0.75983  0.01484  1.0000 -0.1015188292
C   C113      1.0  0.24017  0.17402  0.01484  1.0000 -0.1015188292
C   C114      1.0  0.82598  0.06615  0.01484  1.0000 -0.1015188292
C   C115      1.0  0.93385  0.75983  0.48516  1.0000 -0.1015188292
C   C116      1.0  0.24017  0.17402  0.48516  1.0000 -0.1015188292
C   C117      1.0  0.82598  0.06615  0.48516  1.0000 -0.1015188292
C   C118      1.0  0.06615  0.24017  0.98516  1.0000 -0.1015188292
C   C119      1.0  0.75983  0.82598  0.98516  1.0000 -0.1015188292
C   C120      1.0  0.17402  0.93385  0.98516  1.0000 -0.1015188292
C   C121      1.0  0.04160  0.13058  0.57250  1.0000 0.5835817982
C   C122      1.0  0.86942  0.91102  0.57250  1.0000 0.5835817982
C   C123      1.0  0.08898  0.95840  0.57250  1.0000 0.5835817982
C   C124      1.0  0.95840  0.86942  0.07250  1.0000 0.5835817982
C   C125      1.0  0.13058  0.08898  0.07250  1.0000 0.5835817982
C   C126      1.0  0.91102  0.04160  0.07250  1.0000 0.5835817982
C   C127      1.0  0.95840  0.86942  0.42750  1.0000 0.5835817982
C   C128      1.0  0.13058  0.08898  0.42750  1.0000 0.5835817982
C   C129      1.0  0.91102  0.04160  0.42750  1.0000 0.5835817982
C   C130      1.0  0.04160  0.13058  0.92750  1.0000 0.5835817982
C   C131      1.0  0.86942  0.91102  0.92750  1.0000 0.5835817982
C   C132      1.0  0.08898  0.95840  0.92750  1.0000 0.5835817982
C   C133      1.0  0.31223  0.52811  0.65036  1.0000 0.6371602446
C   C134      1.0  0.47189  0.78412  0.65036  1.0000 0.6371602446
C   C135      1.0  0.21588  0.68777  0.65036  1.0000 0.6371602446
C   C136      1.0  0.68777  0.47189  0.15036  1.0000 0.6371602446
C   C137      1.0  0.52811  0.21588  0.15036  1.0000 0.6371602446
C   C138      1.0  0.78412  0.31223  0.15036  1.0000 0.6371602446
C   C139      1.0  0.68777  0.47189  0.34964  1.0000 0.6371602446
C   C140      1.0  0.52811  0.21588  0.34964  1.0000 0.6371602446
C   C141      1.0  0.78412  0.31223  0.34964  1.0000 0.6371602446
C   C142      1.0  0.31223  0.52811  0.84964  1.0000 0.6371602446
C   C143      1.0  0.47189  0.78412  0.84964  1.0000 0.6371602446
C   C144      1.0  0.21588  0.68777  0.84964  1.0000 0.6371602446
C   C145      1.0  0.33333  0.66667  0.75000  1.0000 0.7871979504
C   C146      1.0  0.66667  0.33333  0.25000  1.0000 0.7871979504
C   C147      1.0  0.96343  0.92049  0.72036  1.0000 -0.1262387861
C   C148      1.0  0.07951  0.04294  0.72036  1.0000 -0.1262387861
C   C149      1.0  0.95706  0.03657  0.72036  1.0000 -0.1262387861
C   C150      1.0  0.03657  0.07951  0.22036  1.0000 -0.1262387861
C   C151      1.0  0.92049  0.95706  0.22036  1.0000 -0.1262387861
C   C152      1.0  0.04294  0.96343  0.22036  1.0000 -0.1262387861
C   C153      1.0  0.03657  0.07951  0.27964  1.0000 -0.1262387861
C   C154      1.0  0.92049  0.95706  0.27964  1.0000 -0.1262387861
C   C155      1.0  0.04294  0.96343  0.27964  1.0000 -0.1262387861
C   C156      1.0  0.96343  0.92049  0.77964  1.0000 -0.1262387861
C   C157      1.0  0.07951  0.04294  0.77964  1.0000 -0.1262387861
C   C158      1.0  0.95706  0.03657  0.77964  1.0000 -0.1262387861
N   N1        1.0  0.00000  0.00000  0.70179  1.0000 -0.1216082357
N   N2        1.0  0.00000  0.00000  0.20179  1.0000 -0.1216082357
N   N3        1.0  0.00000  0.00000  0.29821  1.0000 -0.1216082357
N   N4        1.0  0.00000  0.00000  0.79821  1.0000 -0.1216082357
O   O1        1.0  0.05838  0.10985  0.61408  1.0000 -0.5516616673
O   O2        1.0  0.89015  0.94853  0.61408  1.0000 -0.5516616673
O   O3        1.0  0.05147  0.94162  0.61408  1.0000 -0.5516616673
O   O4        1.0  0.94162  0.89015  0.11408  1.0000 -0.5516616673
O   O5        1.0  0.10985  0.05147  0.11408  1.0000 -0.5516616673
O   O6        1.0  0.94853  0.05838  0.11408  1.0000 -0.5516616673
O   O7        1.0  0.94162  0.89015  0.38592  1.0000 -0.5516616673
O   O8        1.0  0.10985  0.05147  0.38592  1.0000 -0.5516616673
O   O9        1.0  0.94853  0.05838  0.38592  1.0000 -0.5516616673
O   O10       1.0  0.05838  0.10985  0.88592  1.0000 -0.5516616673
O   O11       1.0  0.89015  0.94853  0.88592  1.0000 -0.5516616673
O   O12       1.0  0.05147  0.94162  0.88592  1.0000 -0.5516616673
O   O13       1.0  0.99365  0.08378  0.54160  1.0000 -0.5516616673
O   O14       1.0  0.91622  0.90987  0.54160  1.0000 -0.5516616673
O   O15       1.0  0.09013  0.00635  0.54160  1.0000 -0.5516616673
O   O16       1.0  0.00635  0.91622  0.04160  1.0000 -0.5516616673
O   O17       1.0  0.08378  0.09013  0.04160  1.0000 -0.5516616673
O   O18       1.0  0.90987  0.99365  0.04160  1.0000 -0.5516616673
O   O19       1.0  0.00635  0.91622  0.45840  1.0000 -0.5516616673
O   O20       1.0  0.08378  0.09013  0.45840  1.0000 -0.5516616673
O   O21       1.0  0.90987  0.99365  0.45840  1.0000 -0.5516616673
O   O22       1.0  0.99365  0.08378  0.95840  1.0000 -0.5516616673
O   O23       1.0  0.91622  0.90987  0.95840  1.0000 -0.5516616673
O   O24       1.0  0.09013  0.00635  0.95840  1.0000 -0.5516616673
O   O25       1.0  0.32279  0.49983  0.69112  1.0000 -0.5319215775
O   O26       1.0  0.50017  0.82296  0.69112  1.0000 -0.5319215775
O   O27       1.0  0.17704  0.67721  0.69112  1.0000 -0.5319215775
O   O28       1.0  0.67721  0.50017  0.19112  1.0000 -0.5319215775
O   O29       1.0  0.49983  0.17704  0.19112  1.0000 -0.5319215775
O   O30       1.0  0.82296  0.32279  0.19112  1.0000 -0.5319215775
O   O31       1.0  0.67721  0.50017  0.30888  1.0000 -0.5319215775
O   O32       1.0  0.49983  0.17704  0.30888  1.0000 -0.5319215775
O   O33       1.0  0.82296  0.32279  0.30888  1.0000 -0.5319215775
O   O34       1.0  0.32279  0.49983  0.80888  1.0000 -0.5319215775
O   O35       1.0  0.50017  0.82296  0.80888  1.0000 -0.5319215775
O   O36       1.0  0.17704  0.67721  0.80888  1.0000 -0.5319215775
O   O37       1.0  0.35089  0.59946  0.64177  1.0000 -0.6111006707
O   O38       1.0  0.40054  0.75143  0.64177  1.0000 -0.6111006707
O   O39       1.0  0.24857  0.64911  0.64177  1.0000 -0.6111006707
O   O40       1.0  0.64911  0.40054  0.14177  1.0000 -0.6111006707
O   O41       1.0  0.59946  0.24857  0.14177  1.0000 -0.6111006707
O   O42       1.0  0.75143  0.35089  0.14177  1.0000 -0.6111006707
O   O43       1.0  0.64911  0.40054  0.35823  1.0000 -0.6111006707
O   O44       1.0  0.59946  0.24857  0.35823  1.0000 -0.6111006707
O   O45       1.0  0.75143  0.35089  0.35823  1.0000 -0.6111006707
O   O46       1.0  0.35089  0.59946  0.85823  1.0000 -0.6111006707
O   O47       1.0  0.40054  0.75143  0.85823  1.0000 -0.6111006707
O   O48       1.0  0.24857  0.64911  0.85823  1.0000 -0.6111006707
O   O49       1.0  0.27247  0.57639  0.55713  1.0000 -0.5965252192
O   O50       1.0  0.42361  0.69608  0.55713  1.0000 -0.5965252192
O   O51       1.0  0.30392  0.72753  0.55713  1.0000 -0.5965252192
O   O52       1.0  0.72753  0.42361  0.05713  1.0000 -0.5965252192
O   O53       1.0  0.57639  0.30392  0.05713  1.0000 -0.5965252192
O   O54       1.0  0.69608  0.27247  0.05713  1.0000 -0.5965252192
O   O55       1.0  0.72753  0.42361  0.44287  1.0000 -0.5965252192
O   O56       1.0  0.57639  0.30392  0.44287  1.0000 -0.5965252192
O   O57       1.0  0.69608  0.27247  0.44287  1.0000 -0.5965252192
O   O58       1.0  0.27247  0.57639  0.94287  1.0000 -0.5965252192
O   O59       1.0  0.42361  0.69608  0.94287  1.0000 -0.5965252192
O   O60       1.0  0.30392  0.72753  0.94287  1.0000 -0.5965252192
O   O61       1.0  0.39786  0.66881  0.75000  1.0000 -0.5749537021
O   O62       1.0  0.33119  0.72905  0.75000  1.0000 -0.5757534176
O   O63       1.0  0.27095  0.60214  0.75000  1.0000 -0.5749537021
O   O64       1.0  0.60214  0.33119  0.25000  1.0000 -0.5749537021
O   O65       1.0  0.66881  0.27095  0.25000  1.0000 -0.5749537021
O   O66       1.0  0.72905  0.39786  0.25000  1.0000 -0.5749537021
