# DDEC6 charges by PACMAN v1.1 (https://github.com/mtap-research/PACMAN-charge/)
data_2013[Zn][etb]3[ASR]1
_chemical_formula_sum              "Zn6 H66 C84 N6 O18"
_cell_length_a       18.8885
_cell_length_b       18.8885
_cell_length_c       18.8885
_cell_angle_alpha    115.019
_cell_angle_beta     115.019
_cell_angle_gamma    115.019

_symmetry_space_group_name_H-M    "P 1"
_symmetry_Int_Tables_number       1

loop_
  _symmetry_equiv_pos_as_xyz
  'x, y, z'

loop_
  _atom_site_type_symbol
  _atom_site_label
  _atom_site_symmetry_multiplicity
  _atom_site_fract_x
  _atom_site_fract_y
  _atom_site_fract_z
  _atom_site_occupancy
  _atom_site_charge
Zn  Zn1       1.0  0.09540  0.81959  0.49360  1.0000 0.6862945679
Zn  Zn2       1.0  0.81959  0.49360  0.09540  1.0000 0.6862945679
Zn  Zn3       1.0  0.49360  0.09540  0.81959  1.0000 0.6862945679
Zn  Zn4       1.0  0.90460  0.18041  0.50640  1.0000 0.6862945679
Zn  Zn5       1.0  0.18041  0.50640  0.90460  1.0000 0.6862945679
Zn  Zn6       1.0  0.50640  0.90460  0.18041  1.0000 0.6862945679
H   H1        1.0  0.16540  0.02730  0.68160  1.0000 0.1280050102
H   H2        1.0  0.02730  0.68160  0.16540  1.0000 0.1280050102
H   H3        1.0  0.68160  0.16540  0.02730  1.0000 0.1280050102
H   H4        1.0  0.83460  0.97270  0.31840  1.0000 0.1280050102
H   H5        1.0  0.97270  0.31840  0.83460  1.0000 0.1280050102
H   H6        1.0  0.31840  0.83460  0.97270  1.0000 0.1280050102
H   H7        1.0  0.36940  0.21470  0.90970  1.0000 0.1100669037
H   H8        1.0  0.21470  0.90970  0.36940  1.0000 0.1100669037
H   H9        1.0  0.90970  0.36940  0.21470  1.0000 0.1100669037
H   H10       1.0  0.63060  0.78530  0.09030  1.0000 0.1100669037
H   H11       1.0  0.78530  0.09030  0.63060  1.0000 0.1100669037
H   H12       1.0  0.09030  0.63060  0.78530  1.0000 0.1100669037
H   H13       1.0  0.03810  0.18180  0.76900  1.0000 0.1215531054
H   H14       1.0  0.18180  0.76900  0.03810  1.0000 0.1215531054
H   H15       1.0  0.76900  0.03810  0.18180  1.0000 0.1215531054
H   H16       1.0  0.96190  0.81820  0.23100  1.0000 0.1215531054
H   H17       1.0  0.81820  0.23100  0.96190  1.0000 0.1215531054
H   H18       1.0  0.23100  0.96190  0.81820  1.0000 0.1215531054
H   H19       1.0  0.16650  0.34930  0.96000  1.0000 0.1009211175
H   H20       1.0  0.34930  0.96000  0.16650  1.0000 0.1009211175
H   H21       1.0  0.96000  0.16650  0.34930  1.0000 0.1009211175
H   H22       1.0  0.83350  0.65070  0.04000  1.0000 0.1009211175
H   H23       1.0  0.65070  0.04000  0.83350  1.0000 0.1009211175
H   H24       1.0  0.04000  0.83350  0.65070  1.0000 0.1009211175
H   H25       1.0  0.34260  0.42740  0.09790  1.0000 0.1100669037
H   H26       1.0  0.42740  0.09790  0.34260  1.0000 0.1100669037
H   H27       1.0  0.09790  0.34260  0.42740  1.0000 0.1100669037
H   H28       1.0  0.65740  0.57260  0.90210  1.0000 0.1100669037
H   H29       1.0  0.57260  0.90210  0.65740  1.0000 0.1100669037
H   H30       1.0  0.90210  0.65740  0.57260  1.0000 0.1100669037
H   H31       1.0  0.39450  0.34350  0.04470  1.0000 0.1100669037
H   H32       1.0  0.34350  0.04470  0.39450  1.0000 0.1100669037
H   H33       1.0  0.04470  0.39450  0.34350  1.0000 0.1100669037
H   H34       1.0  0.60550  0.65650  0.95530  1.0000 0.1100669037
H   H35       1.0  0.65650  0.95530  0.60550  1.0000 0.1100669037
H   H36       1.0  0.95530  0.60550  0.65650  1.0000 0.1100669037
H   H37       1.0  0.21880  0.79900  0.63270  1.0000 0.1009211175
H   H38       1.0  0.79900  0.63270  0.21880  1.0000 0.1009211175
H   H39       1.0  0.63270  0.21880  0.79900  1.0000 0.1009211175
H   H40       1.0  0.78120  0.20100  0.36730  1.0000 0.1009211175
H   H41       1.0  0.20100  0.36730  0.78120  1.0000 0.1009211175
H   H42       1.0  0.36730  0.78120  0.20100  1.0000 0.1009211175
H   H43       1.0  0.18340  0.67440  0.64360  1.0000 0.1215531054
H   H44       1.0  0.67440  0.64360  0.18340  1.0000 0.1215531054
H   H45       1.0  0.64360  0.18340  0.67440  1.0000 0.1215531054
H   H46       1.0  0.81660  0.32560  0.35640  1.0000 0.1215531054
H   H47       1.0  0.32560  0.35640  0.81660  1.0000 0.1215531054
H   H48       1.0  0.35640  0.81660  0.32560  1.0000 0.1215531054
H   H49       1.0  0.85250  0.43920  0.34630  1.0000 0.1280050102
H   H50       1.0  0.43920  0.34630  0.85250  1.0000 0.1280050102
H   H51       1.0  0.34630  0.85250  0.43920  1.0000 0.1280050102
H   H52       1.0  0.14750  0.56080  0.65370  1.0000 0.1280050102
H   H53       1.0  0.56080  0.65370  0.14750  1.0000 0.1280050102
H   H54       1.0  0.65370  0.14750  0.56080  1.0000 0.1280050102
H   H55       1.0  0.89740  0.57120  0.34520  1.0000 0.1009211175
H   H56       1.0  0.57120  0.34520  0.89740  1.0000 0.1009211175
H   H57       1.0  0.34520  0.89740  0.57120  1.0000 0.1009211175
H   H58       1.0  0.10260  0.42880  0.65480  1.0000 0.1009211175
H   H59       1.0  0.42880  0.65480  0.10260  1.0000 0.1009211175
H   H60       1.0  0.65480  0.10260  0.42880  1.0000 0.1009211175
H   H61       1.0  0.02710  0.06670  0.63980  1.0000 0.3360378566
H   H62       1.0  0.06670  0.63980  0.02710  1.0000 0.3360378566
H   H63       1.0  0.63980  0.02710  0.06670  1.0000 0.3360378566
H   H64       1.0  0.97290  0.93330  0.36020  1.0000 0.3360378566
H   H65       1.0  0.93330  0.36020  0.97290  1.0000 0.3360378566
H   H66       1.0  0.36020  0.97290  0.93330  1.0000 0.3360378566
C   C1        1.0  0.30653  0.05559  0.73988  1.0000 0.6047623577
C   C2        1.0  0.05559  0.73988  0.30653  1.0000 0.6047623577
C   C3        1.0  0.73988  0.30653  0.05559  1.0000 0.6047623577
C   C4        1.0  0.69347  0.94441  0.26012  1.0000 0.6047623577
C   C5        1.0  0.94441  0.26012  0.69347  1.0000 0.6047623577
C   C6        1.0  0.26012  0.69347  0.94441  1.0000 0.6047623577
C   C7        1.0  0.24251  0.07816  0.74743  1.0000 -0.2917003311
C   C8        1.0  0.07816  0.74743  0.24251  1.0000 -0.2917003311
C   C9        1.0  0.74743  0.24251  0.07816  1.0000 -0.2917003311
C   C10       1.0  0.75749  0.92184  0.25257  1.0000 -0.2917003311
C   C11       1.0  0.92184  0.25257  0.75749  1.0000 -0.2917003311
C   C12       1.0  0.25257  0.75749  0.92184  1.0000 -0.2917003311
C   C13       1.0  0.29351  0.16973  0.84666  1.0000 -0.0907107985
C   C14       1.0  0.16973  0.84666  0.29351  1.0000 -0.0907107985
C   C15       1.0  0.84666  0.29351  0.16973  1.0000 -0.0907107985
C   C16       1.0  0.70649  0.83027  0.15334  1.0000 -0.0907107985
C   C17       1.0  0.83027  0.15334  0.70649  1.0000 -0.0907107985
C   C18       1.0  0.15334  0.70649  0.83027  1.0000 -0.0907107985
C   C19       1.0  0.24911  0.21092  0.87237  1.0000 -0.0183037458
C   C20       1.0  0.21092  0.87237  0.24911  1.0000 -0.0183037458
C   C21       1.0  0.87237  0.24911  0.21092  1.0000 -0.0183037458
C   C22       1.0  0.75089  0.78908  0.12763  1.0000 -0.0183037458
C   C23       1.0  0.78908  0.12763  0.75089  1.0000 -0.0183037458
C   C24       1.0  0.12763  0.75089  0.78908  1.0000 -0.0183037458
C   C25       1.0  0.14135  0.16311  0.79154  1.0000 0.2405628759
C   C26       1.0  0.16311  0.79154  0.14135  1.0000 0.2405628759
C   C27       1.0  0.79154  0.14135  0.16311  1.0000 0.2405628759
C   C28       1.0  0.85865  0.83689  0.20846  1.0000 0.2405628759
C   C29       1.0  0.83689  0.20846  0.85865  1.0000 0.2405628759
C   C30       1.0  0.20846  0.85865  0.83689  1.0000 0.2405628759
C   C31       1.0  0.11023  0.21447  0.82410  1.0000 -0.2816580958
C   C32       1.0  0.21447  0.82410  0.11023  1.0000 -0.2816580958
C   C33       1.0  0.82410  0.11023  0.21447  1.0000 -0.2816580958
C   C34       1.0  0.88977  0.78553  0.17590  1.0000 -0.2816580958
C   C35       1.0  0.78553  0.17590  0.88977  1.0000 -0.2816580958
C   C36       1.0  0.17590  0.88977  0.78553  1.0000 -0.2816580958
C   C37       1.0  0.18693  0.31440  0.93877  1.0000 -0.0907107985
C   C38       1.0  0.31440  0.93877  0.18693  1.0000 -0.0907107985
C   C39       1.0  0.93877  0.18693  0.31440  1.0000 -0.0907107985
C   C40       1.0  0.81307  0.68560  0.06123  1.0000 -0.0907107985
C   C41       1.0  0.68560  0.06123  0.81307  1.0000 -0.0907107985
C   C42       1.0  0.06123  0.81307  0.68560  1.0000 -0.0907107985
C   C43       1.0  0.29210  0.36170  0.02090  1.0000 -0.1426523975
C   C44       1.0  0.36170  0.02090  0.29210  1.0000 -0.1426523975
C   C45       1.0  0.02090  0.29210  0.36170  1.0000 -0.1426523975
C   C46       1.0  0.70790  0.63830  0.97910  1.0000 -0.1426523975
C   C47       1.0  0.63830  0.97910  0.70790  1.0000 -0.1426523975
C   C48       1.0  0.97910  0.70790  0.63830  1.0000 -0.1426523975
C   C49       1.0  0.32281  0.31083  0.98826  1.0000 -0.1490259297
C   C50       1.0  0.31083  0.98826  0.32281  1.0000 -0.1490259297
C   C51       1.0  0.98826  0.32281  0.31083  1.0000 -0.1490259297
C   C52       1.0  0.67719  0.68917  0.01174  1.0000 -0.1490259297
C   C53       1.0  0.68917  0.01174  0.67719  1.0000 -0.1490259297
C   C54       1.0  0.01174  0.67719  0.68917  1.0000 -0.1490259297
C   C55       1.0  0.14405  0.72588  0.57477  1.0000 0.0781739774
C   C56       1.0  0.72588  0.57477  0.14405  1.0000 0.0781739774
C   C57       1.0  0.57477  0.14405  0.72588  1.0000 0.0781739774
C   C58       1.0  0.85595  0.27412  0.42523  1.0000 0.0781739774
C   C59       1.0  0.27412  0.42523  0.85595  1.0000 0.0781739774
C   C60       1.0  0.42523  0.85595  0.27412  1.0000 0.0781739774
C   C61       1.0  0.12322  0.65096  0.58172  1.0000 -0.1992688579
C   C62       1.0  0.65096  0.58172  0.12322  1.0000 -0.1992688579
C   C63       1.0  0.58172  0.12322  0.65096  1.0000 -0.1992688579
C   C64       1.0  0.87678  0.34904  0.41828  1.0000 -0.1992688579
C   C65       1.0  0.34904  0.41828  0.87678  1.0000 -0.1992688579
C   C66       1.0  0.41828  0.87678  0.34904  1.0000 -0.1992688579
C   C67       1.0  0.01299  0.54092  0.49689  1.0000 0.1009211175
C   C68       1.0  0.54092  0.49689  0.01299  1.0000 0.1009211175
C   C69       1.0  0.49689  0.01299  0.54092  1.0000 0.1009211175
C   C70       1.0  0.98701  0.45908  0.50311  1.0000 0.1009211175
C   C71       1.0  0.45908  0.50311  0.98701  1.0000 0.1009211175
C   C72       1.0  0.50311  0.98701  0.45908  1.0000 0.1009211175
C   C73       1.0  0.92789  0.51227  0.40634  1.0000 -0.1937974718
C   C74       1.0  0.51227  0.40634  0.92789  1.0000 -0.1937974718
C   C75       1.0  0.40634  0.92789  0.51227  1.0000 -0.1937974718
C   C76       1.0  0.07211  0.48773  0.59366  1.0000 -0.1937974718
C   C77       1.0  0.48773  0.59366  0.07211  1.0000 -0.1937974718
C   C78       1.0  0.59366  0.07211  0.48773  1.0000 -0.1937974718
C   C79       1.0  0.95554  0.59205  0.40601  1.0000 0.0689180541
C   C80       1.0  0.59205  0.40601  0.95554  1.0000 0.0689180541
C   C81       1.0  0.40601  0.95554  0.59205  1.0000 0.0689180541
C   C82       1.0  0.04446  0.40795  0.59399  1.0000 0.0689180541
C   C83       1.0  0.40795  0.59399  0.04446  1.0000 0.0689180541
C   C84       1.0  0.59399  0.04446  0.40795  1.0000 0.0689180541
N   N1        1.0  0.06244  0.69862  0.48924  1.0000 -0.2481109129
N   N2        1.0  0.69862  0.48924  0.06244  1.0000 -0.2481109129
N   N3        1.0  0.48924  0.06244  0.69862  1.0000 -0.2481109129
N   N4        1.0  0.93756  0.30138  0.51076  1.0000 -0.2481109129
N   N5        1.0  0.30138  0.51076  0.93756  1.0000 -0.2481109129
N   N6        1.0  0.51076  0.93756  0.30138  1.0000 -0.2481109129
O   O1        1.0  0.41441  0.13494  0.82415  1.0000 -0.5232921717
O   O2        1.0  0.13494  0.82415  0.41441  1.0000 -0.5232921717
O   O3        1.0  0.82415  0.41441  0.13494  1.0000 -0.5232921717
O   O4        1.0  0.58559  0.86506  0.17585  1.0000 -0.5232921717
O   O5        1.0  0.86506  0.17585  0.58559  1.0000 -0.5232921717
O   O6        1.0  0.17585  0.58559  0.86506  1.0000 -0.5232921717
O   O7        1.0  0.25392  0.95924  0.65094  1.0000 -0.5829077837
O   O8        1.0  0.95924  0.65094  0.25392  1.0000 -0.5829077837
O   O9        1.0  0.65094  0.25392  0.95924  1.0000 -0.5829077837
O   O10       1.0  0.74608  0.04076  0.34906  1.0000 -0.5829077837
O   O11       1.0  0.04076  0.34906  0.74608  1.0000 -0.5829077837
O   O12       1.0  0.34906  0.74608  0.04076  1.0000 -0.5829077837
O   O13       1.0  0.06749  0.06677  0.68034  1.0000 -0.435611807
O   O14       1.0  0.06677  0.68034  0.06749  1.0000 -0.435611807
O   O15       1.0  0.68034  0.06749  0.06677  1.0000 -0.435611807
O   O16       1.0  0.93251  0.93323  0.31966  1.0000 -0.435611807
O   O17       1.0  0.93323  0.31966  0.93251  1.0000 -0.435611807
O   O18       1.0  0.31966  0.93251  0.93323  1.0000 -0.435611807
