# DDEC6 charges by PACMAN v1.1 (https://github.com/mtap-research/PACMAN-charge/)
data_2013[Co][nan]3[ASR]7
_chemical_formula_sum              "Co5 H24 C30 N24 O12"
_cell_length_a       9.275
_cell_length_b       12.922
_cell_length_c       14.564
_cell_angle_alpha    105.06
_cell_angle_beta     97.194
_cell_angle_gamma    96.254

_symmetry_space_group_name_H-M    "P 1"
_symmetry_Int_Tables_number       1

loop_
  _symmetry_equiv_pos_as_xyz
  'x, y, z'

loop_
  _atom_site_type_symbol
  _atom_site_label
  _atom_site_symmetry_multiplicity
  _atom_site_fract_x
  _atom_site_fract_y
  _atom_site_fract_z
  _atom_site_occupancy
  _atom_site_charge
Co  Co1       1.0  0.00000  0.00000  0.00000  1.0000 0.5820995245
Co  Co2       1.0  0.55472  0.08115  0.28209  1.0000 0.8526173505
Co  Co3       1.0  0.44528  0.91885  0.71791  1.0000 0.8526173505
Co  Co4       1.0  0.04706  0.29721  0.12683  1.0000 0.7122569653
Co  Co5       1.0  0.95294  0.70279  0.87317  1.0000 0.7122569653
H   H1        1.0  0.29930  0.64380  0.16630  1.0000 0.1308873915
H   H2        1.0  0.70070  0.35620  0.83370  1.0000 0.1308873915
H   H3        1.0  0.43330  0.86390  0.41970  1.0000 0.1424190301
H   H4        1.0  0.56670  0.13610  0.58030  1.0000 0.1424190301
H   H5        1.0  0.24700  0.56680  0.41110  1.0000 0.1308873915
H   H6        1.0  0.75300  0.43320  0.58890  1.0000 0.1308873915
H   H7        1.0  0.95560  0.05500  0.78930  1.0000 0.120439726
H   H8        1.0  0.04440  0.94500  0.21070  1.0000 0.120439726
H   H9        1.0  0.30620  0.98130  0.10760  1.0000 0.120439726
H   H10       1.0  0.69380  0.01870  0.89240  1.0000 0.120439726
H   H11       1.0  0.80670  0.25870  0.26140  1.0000 0.1308873915
H   H12       1.0  0.19330  0.74130  0.73860  1.0000 0.1308873915
H   H13       1.0  0.72710  0.87780  0.05370  1.0000 0.299447355
H   H14       1.0  0.27290  0.12220  0.94630  1.0000 0.299447355
H   H15       1.0  0.63290  0.89530  0.13040  1.0000 0.3205665274
H   H16       1.0  0.36710  0.10470  0.86960  1.0000 0.3205665274
H   H17       1.0  0.08620  0.43500  0.98870  1.0000 0.3205665274
H   H18       1.0  0.91380  0.56500  0.01130  1.0000 0.3205665274
H   H19       1.0  0.07460  0.42410  0.88350  1.0000 0.3205665274
H   H20       1.0  0.92540  0.57590  0.11650  1.0000 0.3205665274
H   H21       1.0  0.45940  0.31430  0.32600  1.0000 0.3283731016
H   H22       1.0  0.54060  0.68570  0.67400  1.0000 0.3283731016
H   H23       1.0  0.33920  0.36580  0.28630  1.0000 0.3122195575
H   H24       1.0  0.66080  0.63420  0.71370  1.0000 0.3122195575
C   C1        1.0  0.18240  0.47840  0.22270  1.0000 0.5351643238
C   C2        1.0  0.81760  0.52160  0.77730  1.0000 0.5351643238
C   C3        1.0  0.25900  0.59070  0.28030  1.0000 -0.0194020931
C   C4        1.0  0.74100  0.40930  0.71970  1.0000 -0.0194020931
C   C5        1.0  0.30920  0.66360  0.23320  1.0000 -0.1103108701
C   C6        1.0  0.69080  0.33640  0.76680  1.0000 -0.1103108701
C   C7        1.0  0.37540  0.76800  0.28700  1.0000 -0.0194020931
C   C8        1.0  0.62460  0.23200  0.71300  1.0000 -0.0194020931
C   C9        1.0  0.39040  0.79430  0.38400  1.0000 -0.0879220095
C   C10       1.0  0.60960  0.20570  0.61600  1.0000 -0.0879220095
C   C11       1.0  0.34290  0.71930  0.43200  1.0000 -0.0194020931
C   C12       1.0  0.65710  0.28070  0.56800  1.0000 -0.0194020931
C   C13       1.0  0.27810  0.61760  0.38000  1.0000 -0.1034831208
C   C14       1.0  0.72190  0.38240  0.62000  1.0000 -0.1034831208
C   C15       1.0  0.36550  0.75090  0.53950  1.0000 0.5597585115
C   C16       1.0  0.63450  0.24910  0.46050  1.0000 0.5597585115
C   C17       1.0  0.43260  0.84950  0.23630  1.0000 0.55404183
C   C18       1.0  0.56740  0.15050  0.76370  1.0000 0.55404183
C   C19       1.0  0.03420  0.28890  0.91150  1.0000 0.5040468845
C   C20       1.0  0.96580  0.71110  0.08850  1.0000 0.5040468845
C   C21       1.0  0.97830  0.11980  0.83810  1.0000 0.1567752931
C   C22       1.0  0.02170  0.88020  0.16190  1.0000 0.1567752931
C   C23       1.0  0.32790  0.21440  0.21820  1.0000 0.5205589506
C   C24       1.0  0.67210  0.78560  0.78180  1.0000 0.5205589506
C   C25       1.0  0.29290  0.05300  0.13230  1.0000 0.1424190301
C   C26       1.0  0.70710  0.94700  0.86770  1.0000 0.1424190301
C   C27       1.0  0.76200  0.02780  0.13520  1.0000 0.4851715836
C   C28       1.0  0.23800  0.97220  0.86480  1.0000 0.484352288
C   C29       1.0  0.80790  0.19320  0.21630  1.0000 0.1567752931
C   C30       1.0  0.19210  0.80680  0.78370  1.0000 0.1567752931
N   N1        1.0  0.89420  0.18050  0.15080  1.0000 -0.1981340897
N   N2        1.0  0.10580  0.81950  0.84920  1.0000 -0.1981340897
N   N3        1.0  0.86450  0.07320  0.09710  1.0000 -0.2828803685
N   N4        1.0  0.13550  0.92680  0.90290  1.0000 -0.2828803685
N   N5        1.0  0.72080  0.10010  0.21070  1.0000 -0.4412346211
N   N6        1.0  0.27920  0.89990  0.78930  1.0000 -0.4412346211
N   N7        1.0  0.69950  0.92000  0.10230  1.0000 -0.6498815146
N   N8        1.0  0.30050  0.08000  0.89770  1.0000 -0.6498815146
N   N9        1.0  0.98760  0.12700  0.92890  1.0000 -0.1816647377
N   N10       1.0  0.01240  0.87300  0.07110  1.0000 -0.1816647377
N   N11       1.0  0.02270  0.23570  0.97820  1.0000 -0.334050062
N   N12       1.0  0.97730  0.76430  0.02180  1.0000 -0.334050062
N   N13       1.0  0.00590  0.21810  0.82340  1.0000 -0.3803477016
N   N14       1.0  0.99410  0.78190  0.17660  1.0000 -0.3803477016
N   N15       1.0  0.06910  0.39500  0.93010  1.0000 -0.5758257237
N   N16       1.0  0.93090  0.60500  0.06990  1.0000 -0.5758257237
N   N17       1.0  0.18760  0.09370  0.09710  1.0000 -0.1884953928
N   N18       1.0  0.81240  0.90630  0.90290  1.0000 -0.1884953928
N   N19       1.0  0.20640  0.20240  0.15110  1.0000 -0.3111430285
N   N20       1.0  0.79360  0.79760  0.84890  1.0000 -0.3111430285
N   N21       1.0  0.38410  0.12210  0.20870  1.0000 -0.4456291077
N   N22       1.0  0.61590  0.87790  0.79130  1.0000 -0.4456291077
N   N23       1.0  0.38210  0.30980  0.28500  1.0000 -0.607579681
N   N24       1.0  0.61790  0.69020  0.71500  1.0000 -0.607579681
O   O1        1.0  0.18030  0.44720  0.13330  1.0000 -0.5321393934
O   O2        1.0  0.81970  0.55280  0.86670  1.0000 -0.5321393934
O   O3        1.0  0.12130  0.41740  0.26570  1.0000 -0.5189035264
O   O4        1.0  0.87870  0.58260  0.73430  1.0000 -0.5189035264
O   O5        1.0  0.50240  0.93740  0.29360  1.0000 -0.5321393934
O   O6        1.0  0.49760  0.06260  0.70640  1.0000 -0.5321393934
O   O7        1.0  0.41070  0.82780  0.14870  1.0000 -0.5321393934
O   O8        1.0  0.58930  0.17220  0.85130  1.0000 -0.5321393934
O   O9        1.0  0.40450  0.85200  0.58070  1.0000 -0.5321393934
O   O10       1.0  0.59550  0.14800  0.41930  1.0000 -0.5321393934
O   O11       1.0  0.34680  0.68160  0.58290  1.0000 -0.5436769751
O   O12       1.0  0.65320  0.31840  0.41710  1.0000 -0.5436769751
