# DDEC6 charges by PACMAN v1.1 (https://github.com/mtap-research/PACMAN-charge/)
data_2013[Zn][uni]3[ASR]11
_chemical_formula_sum              "Zn6 H78 C60 N12 O18"
_cell_length_a       17.4807
_cell_length_b       17.4807
_cell_length_c       10.435
_cell_angle_alpha    90
_cell_angle_beta     90
_cell_angle_gamma    120

_symmetry_space_group_name_H-M    "P 1"
_symmetry_Int_Tables_number       1

loop_
  _symmetry_equiv_pos_as_xyz
  'x, y, z'

loop_
  _atom_site_type_symbol
  _atom_site_label
  _atom_site_symmetry_multiplicity
  _atom_site_fract_x
  _atom_site_fract_y
  _atom_site_fract_z
  _atom_site_occupancy
  _atom_site_charge
Zn  Zn1       1.0  0.46481  0.53607  0.08799  1.0000 0.6317996842
Zn  Zn2       1.0  0.92874  0.46481  0.25466  1.0000 0.6397307677
Zn  Zn3       1.0  0.46393  0.92874  0.42132  1.0000 0.6397307677
Zn  Zn4       1.0  0.53519  0.46393  0.58799  1.0000 0.6317996842
Zn  Zn5       1.0  0.07126  0.53519  0.75466  1.0000 0.6317996842
Zn  Zn6       1.0  0.53607  0.07126  0.92132  1.0000 0.6317996842
H   H1        1.0  0.65250  0.57890  0.07420  1.0000 0.3134341699
H   H2        1.0  0.07360  0.65250  0.24087  1.0000 0.3134341699
H   H3        1.0  0.42110  0.07360  0.40753  1.0000 0.3134341699
H   H4        1.0  0.34750  0.42110  0.57420  1.0000 0.3134341699
H   H5        1.0  0.92640  0.34750  0.74087  1.0000 0.3134341699
H   H6        1.0  0.57890  0.92640  0.90753  1.0000 0.3134341699
H   H7        1.0  0.53000  0.44930  0.99100  1.0000 0.2470776202
H   H8        1.0  0.08070  0.53000  0.15767  1.0000 0.2470776202
H   H9        1.0  0.55070  0.08070  0.32433  1.0000 0.2470776202
H   H10       1.0  0.47000  0.55070  0.49100  1.0000 0.2470776202
H   H11       1.0  0.91930  0.47000  0.65767  1.0000 0.2470776202
H   H12       1.0  0.44930  0.91930  0.82433  1.0000 0.2470776202
H   H13       1.0  0.53050  0.22290  0.79630  1.0000 0.1108409013
H   H14       1.0  0.30760  0.53050  0.96297  1.0000 0.1108409013
H   H15       1.0  0.77710  0.30760  0.12963  1.0000 0.1108409013
H   H16       1.0  0.46950  0.77710  0.29630  1.0000 0.1108409013
H   H17       1.0  0.69240  0.46950  0.46297  1.0000 0.1108409013
H   H18       1.0  0.22290  0.69240  0.62963  1.0000 0.1108409013
H   H19       1.0  0.48320  0.32180  0.83360  1.0000 0.1364806307
H   H20       1.0  0.16140  0.48320  0.00027  1.0000 0.1364806307
H   H21       1.0  0.67820  0.16140  0.16693  1.0000 0.1364806307
H   H22       1.0  0.51680  0.67820  0.33360  1.0000 0.1364806307
H   H23       1.0  0.83860  0.51680  0.50027  1.0000 0.1364806307
H   H24       1.0  0.32180  0.83860  0.66693  1.0000 0.1364806307
H   H25       1.0  0.39250  0.20880  0.17540  1.0000 0.1364806307
H   H26       1.0  0.18370  0.39250  0.34207  1.0000 0.1364806307
H   H27       1.0  0.79120  0.18370  0.50873  1.0000 0.1364806307
H   H28       1.0  0.60750  0.79120  0.67540  1.0000 0.1364806307
H   H29       1.0  0.81630  0.60750  0.84207  1.0000 0.1364806307
H   H30       1.0  0.20880  0.81630  0.00873  1.0000 0.1364806307
H   H31       1.0  0.43900  0.11000  0.12700  1.0000 0.1033963424
H   H32       1.0  0.32900  0.43900  0.29367  1.0000 0.1033963424
H   H33       1.0  0.89000  0.32900  0.46033  1.0000 0.1033963424
H   H34       1.0  0.56100  0.89000  0.62700  1.0000 0.1033963424
H   H35       1.0  0.67100  0.56100  0.79367  1.0000 0.1033963424
H   H36       1.0  0.11000  0.67100  0.96033  1.0000 0.1033963424
H   H37       1.0  0.37930  0.35510  0.97130  1.0000 0.1292721777
H   H38       1.0  0.02420  0.37930  0.13797  1.0000 0.1292721777
H   H39       1.0  0.64490  0.02420  0.30463  1.0000 0.1292721777
H   H40       1.0  0.62070  0.64490  0.47130  1.0000 0.1292721777
H   H41       1.0  0.97580  0.62070  0.63797  1.0000 0.1292721777
H   H42       1.0  0.35510  0.97580  0.80463  1.0000 0.1292721777
H   H43       1.0  0.37630  0.33350  0.11790  1.0000 0.1108409013
H   H44       1.0  0.04280  0.37630  0.28457  1.0000 0.1108409013
H   H45       1.0  0.66650  0.04280  0.45123  1.0000 0.1108409013
H   H46       1.0  0.62370  0.66650  0.61790  1.0000 0.1108409013
H   H47       1.0  0.95720  0.62370  0.78457  1.0000 0.1108409013
H   H48       1.0  0.33350  0.95720  0.95123  1.0000 0.1108409013
H   H49       1.0  0.52640  0.37170  0.19110  1.0000 0.1108409013
H   H50       1.0  0.15470  0.52640  0.35777  1.0000 0.1108409013
H   H51       1.0  0.62830  0.15470  0.52443  1.0000 0.1108409013
H   H52       1.0  0.47360  0.62830  0.69110  1.0000 0.1108409013
H   H53       1.0  0.84530  0.47360  0.85777  1.0000 0.1108409013
H   H54       1.0  0.37170  0.84530  0.02443  1.0000 0.1108409013
H   H55       1.0  0.68250  0.50350  0.21810  1.0000 0.0666285989
H   H56       1.0  0.17900  0.68250  0.38477  1.0000 0.0666285989
H   H57       1.0  0.49650  0.17900  0.55143  1.0000 0.0666285989
H   H58       1.0  0.31750  0.49650  0.71810  1.0000 0.0666285989
H   H59       1.0  0.82100  0.31750  0.88477  1.0000 0.0666285989
H   H60       1.0  0.50350  0.82100  0.05143  1.0000 0.0666285989
H   H61       1.0  0.63080  0.35740  0.09900  1.0000 0.1247173262
H   H62       1.0  0.27340  0.63080  0.26567  1.0000 0.1292721777
H   H63       1.0  0.64260  0.27340  0.43233  1.0000 0.1247173262
H   H64       1.0  0.36920  0.64260  0.59900  1.0000 0.1292721777
H   H65       1.0  0.72660  0.36920  0.76567  1.0000 0.1247173262
H   H66       1.0  0.35740  0.72660  0.93233  1.0000 0.1292721777
H   H67       1.0  0.73070  0.43070  0.10620  1.0000 0.1292721777
H   H68       1.0  0.30000  0.73070  0.27287  1.0000 0.1292721777
H   H69       1.0  0.56930  0.30000  0.43953  1.0000 0.1292721777
H   H70       1.0  0.26930  0.56930  0.60620  1.0000 0.1292721777
H   H71       1.0  0.70000  0.26930  0.77287  1.0000 0.1292721777
H   H72       1.0  0.43070  0.70000  0.93953  1.0000 0.1292721777
H   H73       1.0  0.67430  0.42430  0.98560  1.0000 0.1292721777
H   H74       1.0  0.25000  0.67430  0.15227  1.0000 0.1292721777
H   H75       1.0  0.57570  0.25000  0.31893  1.0000 0.1292721777
H   H76       1.0  0.32570  0.57570  0.48560  1.0000 0.1292721777
H   H77       1.0  0.75000  0.32570  0.65227  1.0000 0.1292721777
H   H78       1.0  0.42430  0.75000  0.81893  1.0000 0.1292721777
C   C1        1.0  0.50260  0.22010  0.87360  1.0000 0.0512566318
C   C2        1.0  0.28250  0.50260  0.04027  1.0000 0.0512566318
C   C3        1.0  0.77990  0.28250  0.20693  1.0000 0.0512566318
C   C4        1.0  0.49740  0.77990  0.37360  1.0000 0.0512566318
C   C5        1.0  0.71750  0.49740  0.54027  1.0000 0.0512566318
C   C6        1.0  0.22010  0.71750  0.70693  1.0000 0.0512566318
C   C7        1.0  0.47480  0.28010  0.89570  1.0000 -0.2110212831
C   C8        1.0  0.19470  0.47480  0.06237  1.0000 -0.2110212831
C   C9        1.0  0.71990  0.19470  0.22903  1.0000 -0.2110212831
C   C10       1.0  0.52520  0.71990  0.39570  1.0000 -0.2110212831
C   C11       1.0  0.80530  0.52520  0.56237  1.0000 -0.2110212831
C   C12       1.0  0.28010  0.80530  0.72903  1.0000 -0.2110212831
C   C13       1.0  0.43430  0.27830  0.01080  1.0000 0.1364806307
C   C14       1.0  0.15600  0.43430  0.17747  1.0000 0.1364806307
C   C15       1.0  0.72170  0.15600  0.34413  1.0000 0.1364806307
C   C16       1.0  0.56570  0.72170  0.51080  1.0000 0.1364806307
C   C17       1.0  0.84400  0.56570  0.67747  1.0000 0.1364806307
C   C18       1.0  0.27830  0.84400  0.84413  1.0000 0.1364806307
C   C19       1.0  0.42060  0.21320  0.09780  1.0000 -0.2155253279
C   C20       1.0  0.20740  0.42060  0.26447  1.0000 -0.2155253279
C   C21       1.0  0.78680  0.20740  0.43113  1.0000 -0.2155253279
C   C22       1.0  0.57940  0.78680  0.59780  1.0000 -0.2155253279
C   C23       1.0  0.79260  0.57940  0.76447  1.0000 -0.2155253279
C   C24       1.0  0.21320  0.79260  0.93113  1.0000 -0.2155253279
C   C25       1.0  0.44930  0.15410  0.06820  1.0000 0.0394718386
C   C26       1.0  0.29520  0.44930  0.23487  1.0000 0.0394718386
C   C27       1.0  0.84590  0.29520  0.40153  1.0000 0.0394718386
C   C28       1.0  0.55070  0.84590  0.56820  1.0000 0.0394718386
C   C29       1.0  0.70480  0.55070  0.73487  1.0000 0.0394718386
C   C30       1.0  0.15410  0.70480  0.90153  1.0000 0.0394718386
C   C31       1.0  0.41260  0.34960  0.04140  1.0000 -0.1597638143
C   C32       1.0  0.06300  0.41260  0.20807  1.0000 -0.1597638143
C   C33       1.0  0.65040  0.06300  0.37473  1.0000 -0.1597638143
C   C34       1.0  0.58740  0.65040  0.54140  1.0000 -0.1597638143
C   C35       1.0  0.93700  0.58740  0.70807  1.0000 -0.1597638143
C   C36       1.0  0.34960  0.93700  0.87473  1.0000 -0.1597638143
C   C37       1.0  0.54710  0.43400  0.17190  1.0000 -0.1358281908
C   C38       1.0  0.11310  0.54710  0.33857  1.0000 -0.1358281908
C   C39       1.0  0.56600  0.11310  0.50523  1.0000 -0.1358281908
C   C40       1.0  0.45290  0.56600  0.67190  1.0000 -0.1358281908
C   C41       1.0  0.88690  0.45290  0.83857  1.0000 -0.1358281908
C   C42       1.0  0.43400  0.88690  0.00523  1.0000 -0.1358281908
C   C43       1.0  0.53110  0.47500  0.29110  1.0000 0.546177612
C   C44       1.0  0.05610  0.53110  0.45777  1.0000 0.546177612
C   C45       1.0  0.52500  0.05610  0.62443  1.0000 0.546177612
C   C46       1.0  0.46890  0.52500  0.79110  1.0000 0.546177612
C   C47       1.0  0.94390  0.46890  0.95777  1.0000 0.546177612
C   C48       1.0  0.47500  0.94390  0.12443  1.0000 0.546177612
C   C49       1.0  0.64780  0.47900  0.13970  1.0000 0.1772905501
C   C50       1.0  0.16880  0.64780  0.30637  1.0000 0.1772905501
C   C51       1.0  0.52100  0.16880  0.47303  1.0000 0.1772905501
C   C52       1.0  0.35220  0.52100  0.63970  1.0000 0.1772905501
C   C53       1.0  0.83120  0.35220  0.80637  1.0000 0.1772905501
C   C54       1.0  0.47900  0.83120  0.97303  1.0000 0.1772905501
C   C55       1.0  0.67320  0.41730  0.07690  1.0000 -0.537105872
C   C56       1.0  0.25590  0.67320  0.24357  1.0000 -0.537105872
C   C57       1.0  0.58270  0.25590  0.41023  1.0000 -0.537105872
C   C58       1.0  0.32680  0.58270  0.57690  1.0000 -0.537105872
C   C59       1.0  0.74410  0.32680  0.74357  1.0000 -0.537105872
C   C60       1.0  0.41730  0.74410  0.91023  1.0000 -0.537105872
N   N1        1.0  0.49120  0.15770  0.95900  1.0000 -0.246849481
N   N2        1.0  0.33350  0.49120  0.12567  1.0000 -0.246849481
N   N3        1.0  0.84230  0.33350  0.29233  1.0000 -0.246849481
N   N4        1.0  0.50880  0.84230  0.45900  1.0000 -0.246849481
N   N5        1.0  0.66650  0.50880  0.62567  1.0000 -0.246849481
N   N6        1.0  0.15770  0.66650  0.79233  1.0000 -0.246849481
N   N7        1.0  0.49600  0.43660  0.06250  1.0000 -0.337081908
N   N8        1.0  0.05940  0.49600  0.22917  1.0000 -0.337081908
N   N9        1.0  0.56340  0.05940  0.39583  1.0000 -0.337081908
N   N10       1.0  0.50400  0.56340  0.56250  1.0000 -0.337081908
N   N11       1.0  0.94060  0.50400  0.72917  1.0000 -0.337081908
N   N12       1.0  0.43660  0.94060  0.89583  1.0000 -0.337081908
O   O1        1.0  0.49050  0.51640  0.28090  1.0000 -0.5589239982
O   O2        1.0  0.97410  0.49050  0.44757  1.0000 -0.5589239982
O   O3        1.0  0.48360  0.97410  0.61423  1.0000 -0.5589239982
O   O4        1.0  0.50950  0.48360  0.78090  1.0000 -0.5589239982
O   O5        1.0  0.02590  0.50950  0.94757  1.0000 -0.5589239982
O   O6        1.0  0.51640  0.02590  0.11423  1.0000 -0.5589239982
O   O7        1.0  0.56050  0.46150  0.39310  1.0000 -0.5589239982
O   O8        1.0  0.09900  0.56050  0.55977  1.0000 -0.5589239982
O   O9        1.0  0.53850  0.09900  0.72643  1.0000 -0.5589239982
O   O10       1.0  0.43950  0.53850  0.89310  1.0000 -0.5589239982
O   O11       1.0  0.90100  0.43950  0.05977  1.0000 -0.5589239982
O   O12       1.0  0.46150  0.90100  0.22643  1.0000 -0.5589239982
O   O13       1.0  0.67070  0.54610  0.05020  1.0000 -0.4746831792
O   O14       1.0  0.12460  0.67070  0.21687  1.0000 -0.4746831792
O   O15       1.0  0.45390  0.12460  0.38353  1.0000 -0.4746831792
O   O16       1.0  0.32930  0.45390  0.55020  1.0000 -0.4746831792
O   O17       1.0  0.87540  0.32930  0.71687  1.0000 -0.4754198926
O   O18       1.0  0.54610  0.87540  0.88353  1.0000 -0.4754198926
