# DDEC6 charges by PACMAN v1.1 (https://github.com/mtap-research/PACMAN-charge/)
data_2013[Ni][nan]3[ASR]2
_chemical_formula_sum              "Ni3 H36 C78 N18 O12 F12"
_cell_length_a       15.1738
_cell_length_b       15.1738
_cell_length_c       18.859
_cell_angle_alpha    90
_cell_angle_beta     90
_cell_angle_gamma    120

_symmetry_space_group_name_H-M    "P 1"
_symmetry_Int_Tables_number       1

loop_
  _symmetry_equiv_pos_as_xyz
  'x, y, z'

loop_
  _atom_site_type_symbol
  _atom_site_label
  _atom_site_symmetry_multiplicity
  _atom_site_fract_x
  _atom_site_fract_y
  _atom_site_fract_z
  _atom_site_occupancy
  _atom_site_charge
Ni  Ni1       1.0  0.16482  0.16482  0.50000  1.0000 0.6684960259
Ni  Ni2       1.0  0.83518  0.00000  0.83333  1.0000 0.6684960259
Ni  Ni3       1.0  0.00000  0.83518  0.16667  1.0000 0.6684960259
H   H1        1.0  0.07760  0.08590  0.35470  1.0000 0.1090836458
H   H2        1.0  0.91410  0.99170  0.68803  1.0000 0.1090836458
H   H3        1.0  0.00830  0.92240  0.02137  1.0000 0.1090836458
H   H4        1.0  0.08590  0.07760  0.64530  1.0000 0.1090836458
H   H5        1.0  0.92240  0.00830  0.97863  1.0000 0.1090836458
H   H6        1.0  0.99170  0.91410  0.31197  1.0000 0.1090836458
H   H7        1.0  0.02500  0.13000  0.25450  1.0000 0.1456222368
H   H8        1.0  0.87000  0.89500  0.58783  1.0000 0.1456222368
H   H9        1.0  0.10500  0.97500  0.92117  1.0000 0.1456222368
H   H10       1.0  0.13000  0.02500  0.74550  1.0000 0.1456222368
H   H11       1.0  0.97500  0.10500  0.07883  1.0000 0.1456222368
H   H12       1.0  0.89500  0.87000  0.41217  1.0000 0.1456222368
H   H13       1.0  0.10250  0.39920  0.34470  1.0000 0.1338366352
H   H14       1.0  0.60080  0.70330  0.67803  1.0000 0.1338366352
H   H15       1.0  0.29670  0.89750  0.01137  1.0000 0.1338366352
H   H16       1.0  0.39920  0.10250  0.65530  1.0000 0.1338366352
H   H17       1.0  0.89750  0.29670  0.98863  1.0000 0.1338366352
H   H18       1.0  0.70330  0.60080  0.32197  1.0000 0.1338366352
H   H19       1.0  0.15100  0.34460  0.44460  1.0000 0.1090836458
H   H20       1.0  0.65540  0.80640  0.77793  1.0000 0.1090836458
H   H21       1.0  0.19360  0.84900  0.11127  1.0000 0.1090836458
H   H22       1.0  0.34460  0.15100  0.55540  1.0000 0.1090836458
H   H23       1.0  0.84900  0.19360  0.88873  1.0000 0.1090836458
H   H24       1.0  0.80640  0.65540  0.22207  1.0000 0.1090836458
H   H25       1.0  0.05260  0.70980  0.26290  1.0000 0.1197886152
H   H26       1.0  0.29020  0.34280  0.59623  1.0000 0.1197886152
H   H27       1.0  0.65720  0.94740  0.92957  1.0000 0.1197886152
H   H28       1.0  0.70980  0.05260  0.73710  1.0000 0.1197886152
H   H29       1.0  0.94740  0.65720  0.07043  1.0000 0.1197886152
H   H30       1.0  0.34280  0.29020  0.40377  1.0000 0.1197886152
H   H31       1.0  0.05700  0.56000  0.26490  1.0000 0.1426110114
H   H32       1.0  0.44000  0.49700  0.59823  1.0000 0.1426110114
H   H33       1.0  0.50300  0.94300  0.93157  1.0000 0.1426110114
H   H34       1.0  0.56000  0.05700  0.73510  1.0000 0.1426110114
H   H35       1.0  0.94300  0.50300  0.06843  1.0000 0.1426110114
H   H36       1.0  0.49700  0.44000  0.40177  1.0000 0.1426110114
C   C1        1.0  0.21127  0.02470  0.41012  1.0000 0.5891294611
C   C2        1.0  0.97530  0.18657  0.74345  1.0000 0.5891294611
C   C3        1.0  0.81343  0.78873  0.07679  1.0000 0.5891294611
C   C4        1.0  0.02470  0.21127  0.58988  1.0000 0.5891294611
C   C5        1.0  0.78873  0.81343  0.92321  1.0000 0.5891294611
C   C6        1.0  0.18657  0.97530  0.25655  1.0000 0.5891294611
C   C7        1.0  0.29019  0.01220  0.37006  1.0000 -0.123889407
C   C8        1.0  0.98780  0.27799  0.70339  1.0000 -0.1292783851
C   C9        1.0  0.72201  0.70981  0.03673  1.0000 -0.1292783851
C   C10       1.0  0.01220  0.29019  0.62994  1.0000 -0.1292783851
C   C11       1.0  0.70981  0.72201  0.96327  1.0000 -0.1292783851
C   C12       1.0  0.27799  0.98780  0.29661  1.0000 -0.123889407
C   C13       1.0  0.37670  0.02380  0.40417  1.0000 0.1426110114
C   C14       1.0  0.97620  0.35290  0.73750  1.0000 0.1426110114
C   C15       1.0  0.64710  0.62330  0.07084  1.0000 0.1426110114
C   C16       1.0  0.02380  0.37670  0.59583  1.0000 0.1426110114
C   C17       1.0  0.62330  0.64710  0.92916  1.0000 0.1426110114
C   C18       1.0  0.35290  0.97620  0.26250  1.0000 0.1426110114
C   C19       1.0  0.44780  0.00990  0.37067  1.0000 0.0890232404
C   C20       1.0  0.99010  0.43790  0.70400  1.0000 0.0890232404
C   C21       1.0  0.56210  0.55220  0.03734  1.0000 0.0890232404
C   C22       1.0  0.00990  0.44780  0.62933  1.0000 0.0890232404
C   C23       1.0  0.55220  0.56210  0.96266  1.0000 0.0794347007
C   C24       1.0  0.43790  0.99010  0.29600  1.0000 0.0890232404
C   C25       1.0  0.08216  0.14934  0.35281  1.0000 0.0890232404
C   C26       1.0  0.85066  0.93282  0.68614  1.0000 0.0890232404
C   C27       1.0  0.06718  0.91784  0.01948  1.0000 0.0890232404
C   C28       1.0  0.14934  0.08216  0.64719  1.0000 0.0890232404
C   C29       1.0  0.91784  0.06718  0.98052  1.0000 0.0890232404
C   C30       1.0  0.93282  0.85066  0.31386  1.0000 0.0890232404
C   C31       1.0  0.05100  0.17527  0.29229  1.0000 -0.1357037392
C   C32       1.0  0.82473  0.87573  0.62562  1.0000 -0.1357037392
C   C33       1.0  0.12427  0.94900  0.95896  1.0000 -0.1357037392
C   C34       1.0  0.17527  0.05100  0.70771  1.0000 -0.1357037392
C   C35       1.0  0.94900  0.12427  0.04104  1.0000 -0.1357037392
C   C36       1.0  0.87573  0.82473  0.37438  1.0000 -0.1357037392
C   C37       1.0  0.05870  0.26928  0.28824  1.0000 0.0583353999
C   C38       1.0  0.73072  0.78942  0.62157  1.0000 0.0583353999
C   C39       1.0  0.21058  0.94130  0.95491  1.0000 0.0583353999
C   C40       1.0  0.26928  0.05870  0.71176  1.0000 0.0583353999
C   C41       1.0  0.94130  0.21058  0.04509  1.0000 0.0583353999
C   C42       1.0  0.78942  0.73072  0.37843  1.0000 0.0583353999
C   C43       1.0  0.09668  0.33529  0.34593  1.0000 -0.159125757
C   C44       1.0  0.66471  0.76139  0.67926  1.0000 -0.159125757
C   C45       1.0  0.23861  0.90332  0.01260  1.0000 -0.159125757
C   C46       1.0  0.33529  0.09668  0.65407  1.0000 -0.159125757
C   C47       1.0  0.90332  0.23861  0.98740  1.0000 -0.159125757
C   C48       1.0  0.76139  0.66471  0.32074  1.0000 -0.159125757
C   C49       1.0  0.12567  0.30150  0.40556  1.0000 0.0794347007
C   C50       1.0  0.69850  0.82417  0.73889  1.0000 0.0794347007
C   C51       1.0  0.17583  0.87433  0.07223  1.0000 0.0794347007
C   C52       1.0  0.30150  0.12567  0.59444  1.0000 0.0794347007
C   C53       1.0  0.87433  0.17583  0.92777  1.0000 0.0794347007
C   C54       1.0  0.82417  0.69850  0.26111  1.0000 0.0794347007
C   C55       1.0  0.02808  0.30327  0.22320  1.0000 0.3783274325
C   C56       1.0  0.69673  0.72481  0.55653  1.0000 0.3783274325
C   C57       1.0  0.27519  0.97192  0.88987  1.0000 0.3783274325
C   C58       1.0  0.30327  0.02808  0.77680  1.0000 0.3783274325
C   C59       1.0  0.97192  0.27519  0.11013  1.0000 0.3783274325
C   C60       1.0  0.72481  0.69673  0.44347  1.0000 0.3783274325
C   C61       1.0  0.00000  0.41719  0.16667  1.0000 0.3725164069
C   C62       1.0  0.58281  0.58281  0.50000  1.0000 0.3725164069
C   C63       1.0  0.41719  0.00000  0.83333  1.0000 0.3725164069
C   C64       1.0  0.03127  0.66802  0.22304  1.0000 0.0890232404
C   C65       1.0  0.33198  0.36325  0.55637  1.0000 0.0890232404
C   C66       1.0  0.63675  0.96873  0.88971  1.0000 0.0890232404
C   C67       1.0  0.66802  0.03127  0.77696  1.0000 0.0890232404
C   C68       1.0  0.96873  0.63675  0.11029  1.0000 0.0890232404
C   C69       1.0  0.36325  0.33198  0.44363  1.0000 0.0890232404
C   C70       1.0  0.03338  0.57778  0.22494  1.0000 -0.159125757
C   C71       1.0  0.42222  0.45560  0.55827  1.0000 -0.159125757
C   C72       1.0  0.54440  0.96662  0.89161  1.0000 -0.159125757
C   C73       1.0  0.57778  0.03338  0.77506  1.0000 -0.159125757
C   C74       1.0  0.96662  0.54440  0.10839  1.0000 -0.159125757
C   C75       1.0  0.45560  0.42222  0.44173  1.0000 -0.159125757
C   C76       1.0  0.00000  0.51528  0.16667  1.0000 0.0583353999
C   C77       1.0  0.48472  0.48472  0.50000  1.0000 0.0583353999
C   C78       1.0  0.51528  0.00000  0.83333  1.0000 0.0583353999
N   N1        1.0  0.11894  0.21005  0.40959  1.0000 -0.2100858954
N   N2        1.0  0.78995  0.90889  0.74292  1.0000 -0.2100858954
N   N3        1.0  0.09111  0.88106  0.07626  1.0000 -0.2100858954
N   N4        1.0  0.21005  0.11894  0.59041  1.0000 -0.2100858954
N   N5        1.0  0.88106  0.09111  0.92374  1.0000 -0.2100858954
N   N6        1.0  0.90889  0.78995  0.25708  1.0000 -0.2100858954
N   N7        1.0  0.00000  0.24089  0.16667  1.0000 -0.4042946564
N   N8        1.0  0.75911  0.75911  0.50000  1.0000 -0.4042946564
N   N9        1.0  0.24089  0.00000  0.83333  1.0000 -0.4042946564
N   N10       1.0  0.02710  0.39064  0.22646  1.0000 -0.4087548422
N   N11       1.0  0.60936  0.63646  0.55979  1.0000 -0.4087548422
N   N12       1.0  0.36354  0.97290  0.89313  1.0000 -0.4087548422
N   N13       1.0  0.39064  0.02710  0.77354  1.0000 -0.4087548422
N   N14       1.0  0.97290  0.36354  0.10687  1.0000 -0.4087548422
N   N15       1.0  0.63646  0.60936  0.44021  1.0000 -0.4087548422
N   N16       1.0  0.00000  0.69702  0.16667  1.0000 -0.19331441
N   N17       1.0  0.30298  0.30298  0.50000  1.0000 -0.19331441
N   N18       1.0  0.69702  0.00000  0.83333  1.0000 -0.19331441
O   O1        1.0  0.23960  0.10880  0.43814  1.0000 -0.5489240604
O   O2        1.0  0.89120  0.13080  0.77147  1.0000 -0.5489240604
O   O3        1.0  0.86920  0.76040  0.10481  1.0000 -0.5489240604
O   O4        1.0  0.10880  0.23960  0.56186  1.0000 -0.5489240604
O   O5        1.0  0.76040  0.86920  0.89519  1.0000 -0.5489240604
O   O6        1.0  0.13080  0.89120  0.22853  1.0000 -0.5489240604
O   O7        1.0  0.12330  0.94867  0.41145  1.0000 -0.5489240604
O   O8        1.0  0.05133  0.17463  0.74478  1.0000 -0.5489240604
O   O9        1.0  0.82537  0.87670  0.07812  1.0000 -0.5489240604
O   O10       1.0  0.94867  0.12330  0.58855  1.0000 -0.5489240604
O   O11       1.0  0.87670  0.82537  0.92188  1.0000 -0.5489240604
O   O12       1.0  0.17463  0.05133  0.25522  1.0000 -0.5489240604
F   F1        1.0  0.38856  0.04261  0.47430  1.0000 -0.1292783851
F   F2        1.0  0.95739  0.34595  0.80763  1.0000 -0.1292783851
F   F3        1.0  0.65405  0.61144  0.14097  1.0000 -0.1292783851
F   F4        1.0  0.04261  0.38856  0.52570  1.0000 -0.1292783851
F   F5        1.0  0.61144  0.65405  0.85903  1.0000 -0.1292783851
F   F6        1.0  0.34595  0.95739  0.19237  1.0000 -0.1292783851
F   F7        1.0  0.53106  0.02280  0.40383  1.0000 -0.0971853288
F   F8        1.0  0.97720  0.50826  0.73716  1.0000 -0.0971853288
F   F9        1.0  0.49174  0.46894  0.07050  1.0000 -0.0971853288
F   F10       1.0  0.02280  0.53106  0.59617  1.0000 -0.0971853288
F   F11       1.0  0.46894  0.49174  0.92950  1.0000 -0.0971853288
F   F12       1.0  0.50826  0.97720  0.26284  1.0000 -0.0948748829
