# DDEC6 charges by PACMAN v1.1 (https://github.com/mtap-research/PACMAN-charge/)
data_2013[Zn][sod]3[ASR]1
_chemical_formula_sum              "Zn18 H144 C144 N108 O72"
_cell_length_a       23.132
_cell_length_b       23.132
_cell_length_c       15.528
_cell_angle_alpha    90
_cell_angle_beta     90
_cell_angle_gamma    120

_symmetry_space_group_name_H-M    "P 1"
_symmetry_Int_Tables_number       1

loop_
  _symmetry_equiv_pos_as_xyz
  'x, y, z'

loop_
  _atom_site_type_symbol
  _atom_site_label
  _atom_site_symmetry_multiplicity
  _atom_site_fract_x
  _atom_site_fract_y
  _atom_site_fract_z
  _atom_site_occupancy
  _atom_site_charge
Zn  Zn1       1.0  0.73610  0.73608  0.50000  1.0000 0.6812966316
Zn  Zn2       1.0  0.26390  0.26392  0.50000  1.0000 0.6812966316
Zn  Zn3       1.0  0.26392  0.00002  0.50000  1.0000 0.6812966316
Zn  Zn4       1.0  0.73608  0.99998  0.50000  1.0000 0.6812966316
Zn  Zn5       1.0  0.99998  0.26390  0.50000  1.0000 0.6812966316
Zn  Zn6       1.0  0.00002  0.73610  0.50000  1.0000 0.6812966316
Zn  Zn7       1.0  0.40277  0.06942  0.83333  1.0000 0.6812966316
Zn  Zn8       1.0  0.93056  0.59725  0.83333  1.0000 0.6812966316
Zn  Zn9       1.0  0.93058  0.33333  0.83333  1.0000 0.6812966316
Zn  Zn10      1.0  0.40275  0.33333  0.83333  1.0000 0.6812966316
Zn  Zn11      1.0  0.66667  0.59723  0.83333  1.0000 0.6812966316
Zn  Zn12      1.0  0.66667  0.06944  0.83333  1.0000 0.6812966316
Zn  Zn13      1.0  0.06944  0.40275  0.16667  1.0000 0.6812966316
Zn  Zn14      1.0  0.59723  0.93058  0.16667  1.0000 0.6812966316
Zn  Zn15      1.0  0.59725  0.66667  0.16667  1.0000 0.6812966316
Zn  Zn16      1.0  0.06942  0.66667  0.16667  1.0000 0.6812966316
Zn  Zn17      1.0  0.33333  0.93056  0.16667  1.0000 0.6812966316
Zn  Zn18      1.0  0.33333  0.40277  0.16667  1.0000 0.6812966316
H   H1        1.0  0.74660  0.66667  0.66667  1.0000 0.0795788693
H   H2        1.0  0.25340  0.33333  0.33333  1.0000 0.0795788693
H   H3        1.0  0.33333  0.07990  0.66667  1.0000 0.0795788693
H   H4        1.0  0.66667  0.92010  0.33333  1.0000 0.0795788693
H   H5        1.0  0.92010  0.25340  0.66667  1.0000 0.0795788693
H   H6        1.0  0.07990  0.74660  0.33333  1.0000 0.0795788693
H   H7        1.0  0.66667  0.74657  0.33333  1.0000 0.0795788693
H   H8        1.0  0.33337  0.25343  0.66667  1.0000 0.0795788693
H   H9        1.0  0.07994  0.33337  0.33333  1.0000 0.0795788693
H   H10       1.0  0.92006  0.66667  0.66667  1.0000 0.0795788693
H   H11       1.0  0.25343  0.92006  0.33333  1.0000 0.0795788693
H   H12       1.0  0.74657  0.07994  0.66667  1.0000 0.0795788693
H   H13       1.0  0.41327  0.00003  0.99998  1.0000 0.0795788693
H   H14       1.0  0.99997  0.41324  0.99998  1.0000 0.0795788693
H   H15       1.0  0.58676  0.58673  0.99998  1.0000 0.0795788693
H   H16       1.0  0.00003  0.58676  0.00002  1.0000 0.0795788693
H   H17       1.0  0.58673  0.99997  0.00002  1.0000 0.0795788693
H   H18       1.0  0.41324  0.41327  0.00002  1.0000 0.0795788693
H   H19       1.0  0.84926  0.69852  0.45314  1.0000 0.0993757826
H   H20       1.0  0.15074  0.30148  0.54686  1.0000 0.0993757826
H   H21       1.0  0.30148  0.15074  0.45314  1.0000 0.0993757826
H   H22       1.0  0.69852  0.84926  0.54686  1.0000 0.0993757826
H   H23       1.0  0.84926  0.15074  0.45314  1.0000 0.0993757826
H   H24       1.0  0.15074  0.84926  0.54686  1.0000 0.0993757826
H   H25       1.0  0.51593  0.03186  0.78647  1.0000 0.0993757826
H   H26       1.0  0.81740  0.63481  0.88019  1.0000 0.0993757826
H   H27       1.0  0.96814  0.48407  0.78647  1.0000 0.0993757826
H   H28       1.0  0.36519  0.18259  0.88019  1.0000 0.0993757826
H   H29       1.0  0.51593  0.48407  0.78647  1.0000 0.0993757826
H   H30       1.0  0.81741  0.18260  0.88019  1.0000 0.0993757826
H   H31       1.0  0.18260  0.36519  0.11981  1.0000 0.0993757826
H   H32       1.0  0.48407  0.96814  0.21353  1.0000 0.0993757826
H   H33       1.0  0.63481  0.81741  0.11981  1.0000 0.0993757826
H   H34       1.0  0.03186  0.51593  0.21353  1.0000 0.0993757826
H   H35       1.0  0.18259  0.81740  0.11981  1.0000 0.0993757826
H   H36       1.0  0.48407  0.51593  0.21353  1.0000 0.0993757826
H   H37       1.0  0.60572  0.72951  0.51396  1.0000 0.1126706731
H   H38       1.0  0.39428  0.27049  0.48604  1.0000 0.1126706731
H   H39       1.0  0.27049  0.87621  0.51396  1.0000 0.1126706731
H   H40       1.0  0.72951  0.12379  0.48604  1.0000 0.1126706731
H   H41       1.0  0.12379  0.39428  0.51396  1.0000 0.1126706731
H   H42       1.0  0.87621  0.60572  0.48604  1.0000 0.1126706731
H   H43       1.0  0.72951  0.60574  0.48605  1.0000 0.1126706731
H   H44       1.0  0.27049  0.39426  0.51395  1.0000 0.1126706731
H   H45       1.0  0.87623  0.27049  0.48605  1.0000 0.1126706731
H   H46       1.0  0.12377  0.72951  0.51395  1.0000 0.1126706731
H   H47       1.0  0.39426  0.12377  0.48605  1.0000 0.1126706731
H   H48       1.0  0.60574  0.87623  0.51395  1.0000 0.1126706731
H   H49       1.0  0.27239  0.06285  0.84729  1.0000 0.1126706731
H   H50       1.0  0.06095  0.60382  0.81938  1.0000 0.1126706731
H   H51       1.0  0.93715  0.20954  0.84729  1.0000 0.1126706731
H   H52       1.0  0.39618  0.45712  0.81938  1.0000 0.1126706731
H   H53       1.0  0.79046  0.72761  0.84729  1.0000 0.1126706731
H   H54       1.0  0.54288  0.93905  0.81938  1.0000 0.1126706731
H   H55       1.0  0.39618  0.93907  0.81938  1.0000 0.1126706731
H   H56       1.0  0.93716  0.72760  0.84728  1.0000 0.1126706731
H   H57       1.0  0.54290  0.60382  0.81938  1.0000 0.1126706731
H   H58       1.0  0.79044  0.06284  0.84728  1.0000 0.1126706731
H   H59       1.0  0.06093  0.45710  0.81938  1.0000 0.1126706731
H   H60       1.0  0.27240  0.20956  0.84728  1.0000 0.1126706731
H   H61       1.0  0.93905  0.39618  0.18062  1.0000 0.1126706731
H   H62       1.0  0.72761  0.93715  0.15271  1.0000 0.1126706731
H   H63       1.0  0.60382  0.54288  0.18062  1.0000 0.1126706731
H   H64       1.0  0.06285  0.79046  0.15271  1.0000 0.1126706731
H   H65       1.0  0.45712  0.06095  0.18062  1.0000 0.1126706731
H   H66       1.0  0.20954  0.27239  0.15271  1.0000 0.1126706731
H   H67       1.0  0.06284  0.27240  0.15272  1.0000 0.1126706731
H   H68       1.0  0.60382  0.06093  0.18062  1.0000 0.1126706731
H   H69       1.0  0.20956  0.93716  0.15272  1.0000 0.1126706731
H   H70       1.0  0.45710  0.39618  0.18062  1.0000 0.1126706731
H   H71       1.0  0.72760  0.79044  0.15272  1.0000 0.1126706731
H   H72       1.0  0.93907  0.54290  0.18062  1.0000 0.1126706731
H   H73       1.0  0.54857  0.71716  0.59902  1.0000 0.1335202354
H   H74       1.0  0.45143  0.28284  0.40098  1.0000 0.1335202354
H   H75       1.0  0.28284  0.83141  0.59902  1.0000 0.1335202354
H   H76       1.0  0.71716  0.16859  0.40098  1.0000 0.1335202354
H   H77       1.0  0.16859  0.45143  0.59902  1.0000 0.1335202354
H   H78       1.0  0.83141  0.54857  0.40098  1.0000 0.1335202354
H   H79       1.0  0.71716  0.54858  0.40100  1.0000 0.1335202354
H   H80       1.0  0.28284  0.45142  0.59900  1.0000 0.1335202354
H   H81       1.0  0.83142  0.28284  0.40100  1.0000 0.1335202354
H   H82       1.0  0.16858  0.71716  0.59900  1.0000 0.1335202354
H   H83       1.0  0.45142  0.16858  0.40100  1.0000 0.1335202354
H   H84       1.0  0.54858  0.83142  0.59900  1.0000 0.1335202354
H   H85       1.0  0.21524  0.05050  0.93235  1.0000 0.1335202354
H   H86       1.0  0.11809  0.61617  0.73431  1.0000 0.1335202354
H   H87       1.0  0.94950  0.16474  0.93235  1.0000 0.1335202354
H   H88       1.0  0.38383  0.50193  0.73431  1.0000 0.1335202354
H   H89       1.0  0.83526  0.78476  0.93235  1.0000 0.1335202354
H   H90       1.0  0.49807  0.88191  0.73431  1.0000 0.1335202354
H   H91       1.0  0.38383  0.88192  0.73433  1.0000 0.1335202354
H   H92       1.0  0.94950  0.78475  0.93233  1.0000 0.1335202354
H   H93       1.0  0.49809  0.61617  0.73433  1.0000 0.1335202354
H   H94       1.0  0.83525  0.05050  0.93233  1.0000 0.1335202354
H   H95       1.0  0.11808  0.50191  0.73433  1.0000 0.1335202354
H   H96       1.0  0.21525  0.16475  0.93233  1.0000 0.1335202354
H   H97       1.0  0.88191  0.38383  0.26569  1.0000 0.1335202354
H   H98       1.0  0.78476  0.94950  0.06765  1.0000 0.1335202354
H   H99       1.0  0.61617  0.49807  0.26569  1.0000 0.1335202354
H   H100      1.0  0.05050  0.83526  0.06765  1.0000 0.1335202354
H   H101      1.0  0.50193  0.11809  0.26569  1.0000 0.1335202354
H   H102      1.0  0.16474  0.21524  0.06765  1.0000 0.1335202354
H   H103      1.0  0.05050  0.21525  0.06767  1.0000 0.1335202354
H   H104      1.0  0.61617  0.11808  0.26567  1.0000 0.1335202354
H   H105      1.0  0.16475  0.94950  0.06767  1.0000 0.1335202354
H   H106      1.0  0.50191  0.38383  0.26567  1.0000 0.1335202354
H   H107      1.0  0.78475  0.83525  0.06767  1.0000 0.1335202354
H   H108      1.0  0.88192  0.49809  0.26567  1.0000 0.1335202354
H   H109      1.0  0.53602  0.64916  0.53205  1.0000 0.1429795381
H   H110      1.0  0.46398  0.35084  0.46795  1.0000 0.1429795381
H   H111      1.0  0.35084  0.88686  0.53205  1.0000 0.1429795381
H   H112      1.0  0.64916  0.11314  0.46795  1.0000 0.1429795381
H   H113      1.0  0.11314  0.46398  0.53205  1.0000 0.1429795381
H   H114      1.0  0.88686  0.53602  0.46795  1.0000 0.1429795381
H   H115      1.0  0.64915  0.53603  0.46797  1.0000 0.1429795381
H   H116      1.0  0.35085  0.46397  0.53203  1.0000 0.1429795381
H   H117      1.0  0.88688  0.35085  0.46797  1.0000 0.1429795381
H   H118      1.0  0.11312  0.64915  0.53203  1.0000 0.1429795381
H   H119      1.0  0.46397  0.11312  0.46797  1.0000 0.1429795381
H   H120      1.0  0.53603  0.88688  0.53203  1.0000 0.1429795381
H   H121      1.0  0.20269  0.98249  0.86538  1.0000 0.1429795381
H   H122      1.0  0.13064  0.68417  0.80129  1.0000 0.1429795381
H   H123      1.0  0.01751  0.22020  0.86538  1.0000 0.1429795381
H   H124      1.0  0.31583  0.44647  0.80129  1.0000 0.1429795381
H   H125      1.0  0.77980  0.79731  0.86538  1.0000 0.1429795381
H   H126      1.0  0.55353  0.86936  0.80129  1.0000 0.1429795381
H   H127      1.0  0.31582  0.86937  0.80130  1.0000 0.1429795381
H   H128      1.0  0.01751  0.79730  0.86536  1.0000 0.1429795381
H   H129      1.0  0.55354  0.68418  0.80130  1.0000 0.1429795381
H   H130      1.0  0.77979  0.98249  0.86536  1.0000 0.1429795381
H   H131      1.0  0.13063  0.44646  0.80130  1.0000 0.1429795381
H   H132      1.0  0.20270  0.22021  0.86536  1.0000 0.1429795381
H   H133      1.0  0.86936  0.31583  0.19871  1.0000 0.1429795381
H   H134      1.0  0.79731  0.01751  0.13462  1.0000 0.1429795381
H   H135      1.0  0.68417  0.55353  0.19871  1.0000 0.1429795381
H   H136      1.0  0.98249  0.77980  0.13462  1.0000 0.1429795381
H   H137      1.0  0.44647  0.13064  0.19871  1.0000 0.1429795381
H   H138      1.0  0.22020  0.20269  0.13462  1.0000 0.1429795381
H   H139      1.0  0.98249  0.20270  0.13464  1.0000 0.1429795381
H   H140      1.0  0.68418  0.13063  0.19870  1.0000 0.1429795381
H   H141      1.0  0.22021  0.01751  0.13464  1.0000 0.1429795381
H   H142      1.0  0.44646  0.31582  0.19870  1.0000 0.1429795381
H   H143      1.0  0.79730  0.77979  0.13464  1.0000 0.1429795381
H   H144      1.0  0.86937  0.55354  0.19870  1.0000 0.1429795381
C   C1        1.0  0.69941  0.66667  0.66667  1.0000 0.1456655486
C   C2        1.0  0.30059  0.33333  0.33333  1.0000 0.1456655486
C   C3        1.0  0.33333  0.03272  0.66667  1.0000 0.1456655486
C   C4        1.0  0.66667  0.96728  0.33333  1.0000 0.1456655486
C   C5        1.0  0.96728  0.30059  0.66667  1.0000 0.1456655486
C   C6        1.0  0.03272  0.69941  0.33333  1.0000 0.1456655486
C   C7        1.0  0.66667  0.69939  0.33333  1.0000 0.1456655486
C   C8        1.0  0.33333  0.30061  0.66667  1.0000 0.1456655486
C   C9        1.0  0.03274  0.33333  0.33333  1.0000 0.1456655486
C   C10       1.0  0.96726  0.66667  0.66667  1.0000 0.1456655486
C   C11       1.0  0.30061  0.96726  0.33333  1.0000 0.1456655486
C   C12       1.0  0.69939  0.03274  0.66667  1.0000 0.1456655486
C   C13       1.0  0.36608  0.00002  0.00000  1.0000 0.1456655486
C   C14       1.0  0.99998  0.36606  0.00000  1.0000 0.1456655486
C   C15       1.0  0.63394  0.63392  0.00000  1.0000 0.1456655486
C   C16       1.0  0.00002  0.63394  0.00001  1.0000 0.1456655486
C   C17       1.0  0.63392  0.99998  0.00001  1.0000 0.1456655486
C   C18       1.0  0.36606  0.36608  0.00001  1.0000 0.1456655486
C   C19       1.0  0.61620  0.68005  0.62530  1.0000 0.1673607262
C   C20       1.0  0.38380  0.31995  0.37470  1.0000 0.1673607262
C   C21       1.0  0.31995  0.93615  0.62530  1.0000 0.1673607262
C   C22       1.0  0.68005  0.06385  0.37470  1.0000 0.1673607262
C   C23       1.0  0.06385  0.38380  0.62530  1.0000 0.1673607262
C   C24       1.0  0.93615  0.61620  0.37470  1.0000 0.1673607262
C   C25       1.0  0.68003  0.61620  0.37471  1.0000 0.1673607262
C   C26       1.0  0.31997  0.38380  0.62529  1.0000 0.1673607262
C   C27       1.0  0.93617  0.31997  0.37471  1.0000 0.1673607262
C   C28       1.0  0.06383  0.68003  0.62529  1.0000 0.1673607262
C   C29       1.0  0.38380  0.06383  0.37471  1.0000 0.1673607262
C   C30       1.0  0.61620  0.93617  0.62529  1.0000 0.1673607262
C   C31       1.0  0.28287  0.01338  0.95863  1.0000 0.1673607262
C   C32       1.0  0.05047  0.65329  0.70804  1.0000 0.1673607262
C   C33       1.0  0.98662  0.26949  0.95863  1.0000 0.1673607262
C   C34       1.0  0.34671  0.39718  0.70804  1.0000 0.1673607262
C   C35       1.0  0.73051  0.71713  0.95863  1.0000 0.1673607262
C   C36       1.0  0.60282  0.94953  0.70804  1.0000 0.1673607262
C   C37       1.0  0.34670  0.94953  0.70804  1.0000 0.1673607262
C   C38       1.0  0.98663  0.71713  0.95863  1.0000 0.1673607262
C   C39       1.0  0.60283  0.65330  0.70804  1.0000 0.1673607262
C   C40       1.0  0.73050  0.01337  0.95863  1.0000 0.1673607262
C   C41       1.0  0.05047  0.39717  0.70804  1.0000 0.1673607262
C   C42       1.0  0.28287  0.26950  0.95863  1.0000 0.1673607262
C   C43       1.0  0.94953  0.34671  0.29196  1.0000 0.1673607262
C   C44       1.0  0.71713  0.98662  0.04137  1.0000 0.1673607262
C   C45       1.0  0.65329  0.60282  0.29196  1.0000 0.1673607262
C   C46       1.0  0.01338  0.73051  0.04137  1.0000 0.1673607262
C   C47       1.0  0.39718  0.05047  0.29196  1.0000 0.1673607262
C   C48       1.0  0.26949  0.28287  0.04137  1.0000 0.1673607262
C   C49       1.0  0.01337  0.28287  0.04137  1.0000 0.1673607262
C   C50       1.0  0.65330  0.05047  0.29196  1.0000 0.1673607262
C   C51       1.0  0.26950  0.98663  0.04137  1.0000 0.1673607262
C   C52       1.0  0.39717  0.34670  0.29196  1.0000 0.1673607262
C   C53       1.0  0.71713  0.73050  0.04137  1.0000 0.1673607262
C   C54       1.0  0.94953  0.60283  0.29196  1.0000 0.1673607262
C   C55       1.0  0.86603  0.73203  0.50855  1.0000 0.2196724761
C   C56       1.0  0.13397  0.26797  0.49145  1.0000 0.2196724761
C   C57       1.0  0.26797  0.13400  0.50855  1.0000 0.2196724761
C   C58       1.0  0.73203  0.86600  0.49145  1.0000 0.2196724761
C   C59       1.0  0.86600  0.13397  0.50855  1.0000 0.2196724761
C   C60       1.0  0.13400  0.86603  0.49145  1.0000 0.2196724761
C   C61       1.0  0.53269  0.06537  0.84188  1.0000 0.2196724761
C   C62       1.0  0.80064  0.60130  0.82478  1.0000 0.2196724761
C   C63       1.0  0.93463  0.46733  0.84188  1.0000 0.2196724761
C   C64       1.0  0.39870  0.19934  0.82478  1.0000 0.2196724761
C   C65       1.0  0.53267  0.46731  0.84188  1.0000 0.2196724761
C   C66       1.0  0.80066  0.19936  0.82478  1.0000 0.2196724761
C   C67       1.0  0.19936  0.39870  0.17522  1.0000 0.2196724761
C   C68       1.0  0.46731  0.93463  0.15812  1.0000 0.2196724761
C   C69       1.0  0.60130  0.80066  0.17522  1.0000 0.2196724761
C   C70       1.0  0.06537  0.53267  0.15812  1.0000 0.2196724761
C   C71       1.0  0.19934  0.80064  0.17522  1.0000 0.2196724761
C   C72       1.0  0.46733  0.53269  0.15812  1.0000 0.2196724761
C   C73       1.0  0.86816  0.79714  0.61008  1.0000 0.0795788693
C   C74       1.0  0.13184  0.20286  0.38992  1.0000 0.0795788693
C   C75       1.0  0.20286  0.07102  0.61008  1.0000 0.0795788693
C   C76       1.0  0.79714  0.92898  0.38992  1.0000 0.0795788693
C   C77       1.0  0.92898  0.13184  0.61008  1.0000 0.0795788693
C   C78       1.0  0.07102  0.86816  0.38992  1.0000 0.0795788693
C   C79       1.0  0.79717  0.86813  0.38998  1.0000 0.0795788693
C   C80       1.0  0.20283  0.13187  0.61002  1.0000 0.0795788693
C   C81       1.0  0.07095  0.20283  0.38998  1.0000 0.0795788693
C   C82       1.0  0.92905  0.79717  0.61002  1.0000 0.0795788693
C   C83       1.0  0.13187  0.92905  0.38998  1.0000 0.0795788693
C   C84       1.0  0.86813  0.07095  0.61002  1.0000 0.0795788693
C   C85       1.0  0.53482  0.13047  0.94341  1.0000 0.0795788693
C   C86       1.0  0.79851  0.53620  0.72325  1.0000 0.0795788693
C   C87       1.0  0.86953  0.40435  0.94341  1.0000 0.0795788693
C   C88       1.0  0.46380  0.26231  0.72325  1.0000 0.0795788693
C   C89       1.0  0.59565  0.46518  0.94341  1.0000 0.0795788693
C   C90       1.0  0.73769  0.20149  0.72325  1.0000 0.0795788693
C   C91       1.0  0.46384  0.20146  0.72331  1.0000 0.0795788693
C   C92       1.0  0.86949  0.46521  0.94335  1.0000 0.0795788693
C   C93       1.0  0.73762  0.53616  0.72331  1.0000 0.0795788693
C   C94       1.0  0.59571  0.13051  0.94335  1.0000 0.0795788693
C   C95       1.0  0.79854  0.26238  0.72331  1.0000 0.0795788693
C   C96       1.0  0.53479  0.40429  0.94335  1.0000 0.0795788693
C   C97       1.0  0.20149  0.46380  0.27675  1.0000 0.0795788693
C   C98       1.0  0.46518  0.86953  0.05659  1.0000 0.0795788693
C   C99       1.0  0.53620  0.73769  0.27675  1.0000 0.0795788693
C   C100      1.0  0.13047  0.59565  0.05659  1.0000 0.0795788693
C   C101      1.0  0.26231  0.79851  0.27675  1.0000 0.0795788693
C   C102      1.0  0.40435  0.53482  0.05659  1.0000 0.0795788693
C   C103      1.0  0.13051  0.53479  0.05665  1.0000 0.0795788693
C   C104      1.0  0.53616  0.79854  0.27669  1.0000 0.0795788693
C   C105      1.0  0.40429  0.86949  0.05665  1.0000 0.0795788693
C   C106      1.0  0.26238  0.46384  0.27669  1.0000 0.0795788693
C   C107      1.0  0.46521  0.59571  0.05665  1.0000 0.0795788693
C   C108      1.0  0.20146  0.73762  0.27669  1.0000 0.0795788693
C   C109      1.0  0.57458  0.69463  0.56534  1.0000 -0.4076514444
C   C110      1.0  0.42542  0.30537  0.43466  1.0000 -0.4076514444
C   C111      1.0  0.30537  0.87995  0.56534  1.0000 -0.4076514444
C   C112      1.0  0.69463  0.12005  0.43466  1.0000 -0.4076514444
C   C113      1.0  0.12005  0.42542  0.56534  1.0000 -0.4076514444
C   C114      1.0  0.87995  0.57458  0.43466  1.0000 -0.4076514444
C   C115      1.0  0.69463  0.57459  0.43467  1.0000 -0.4076514444
C   C116      1.0  0.30537  0.42541  0.56533  1.0000 -0.4076514444
C   C117      1.0  0.87997  0.30537  0.43467  1.0000 -0.4076514444
C   C118      1.0  0.12003  0.69463  0.56533  1.0000 -0.4076514444
C   C119      1.0  0.42541  0.12003  0.43467  1.0000 -0.4076514444
C   C120      1.0  0.57459  0.87997  0.56533  1.0000 -0.4076514444
C   C121      1.0  0.24125  0.02797  0.89868  1.0000 -0.4076514444
C   C122      1.0  0.09208  0.63870  0.76799  1.0000 -0.4076514444
C   C123      1.0  0.97203  0.21329  0.89868  1.0000 -0.4076514444
C   C124      1.0  0.36130  0.45338  0.76799  1.0000 -0.4076514444
C   C125      1.0  0.78671  0.75875  0.89868  1.0000 -0.4076514444
C   C126      1.0  0.54662  0.90792  0.76799  1.0000 -0.4076514444
C   C127      1.0  0.36129  0.90793  0.76800  1.0000 -0.4076514444
C   C128      1.0  0.97204  0.75874  0.89866  1.0000 -0.4076514444
C   C129      1.0  0.54663  0.63871  0.76800  1.0000 -0.4076514444
C   C130      1.0  0.78670  0.02796  0.89866  1.0000 -0.4076514444
C   C131      1.0  0.09207  0.45337  0.76800  1.0000 -0.4076514444
C   C132      1.0  0.24126  0.21330  0.89866  1.0000 -0.4076514444
C   C133      1.0  0.90792  0.36130  0.23201  1.0000 -0.4076514444
C   C134      1.0  0.75875  0.97203  0.10132  1.0000 -0.4076514444
C   C135      1.0  0.63870  0.54662  0.23201  1.0000 -0.4076514444
C   C136      1.0  0.02797  0.78671  0.10132  1.0000 -0.4076514444
C   C137      1.0  0.45338  0.09208  0.23201  1.0000 -0.4076514444
C   C138      1.0  0.21329  0.24125  0.10132  1.0000 -0.4076514444
C   C139      1.0  0.02796  0.24126  0.10134  1.0000 -0.4076514444
C   C140      1.0  0.63871  0.09207  0.23200  1.0000 -0.4076514444
C   C141      1.0  0.21330  0.97204  0.10134  1.0000 -0.4076514444
C   C142      1.0  0.45337  0.36129  0.23200  1.0000 -0.4076514444
C   C143      1.0  0.75874  0.78670  0.10134  1.0000 -0.4076514444
C   C144      1.0  0.90793  0.54663  0.23200  1.0000 -0.4076514444
N   N1        1.0  0.67817  0.68925  0.60041  1.0000 -0.3481550235
N   N2        1.0  0.32183  0.31075  0.39959  1.0000 -0.3481550235
N   N3        1.0  0.31075  0.98892  0.60041  1.0000 -0.3481550235
N   N4        1.0  0.68925  0.01108  0.39959  1.0000 -0.3481550235
N   N5        1.0  0.01108  0.32183  0.60041  1.0000 -0.3481550235
N   N6        1.0  0.98892  0.67817  0.39959  1.0000 -0.3481550235
N   N7        1.0  0.68922  0.67817  0.39958  1.0000 -0.3481550235
N   N8        1.0  0.31078  0.32183  0.60042  1.0000 -0.3481550235
N   N9        1.0  0.98894  0.31078  0.39958  1.0000 -0.3481550235
N   N10       1.0  0.01106  0.68922  0.60042  1.0000 -0.3481550235
N   N11       1.0  0.32183  0.01106  0.39958  1.0000 -0.3481550235
N   N12       1.0  0.67817  0.98894  0.60042  1.0000 -0.3481550235
N   N13       1.0  0.34484  0.02259  0.93375  1.0000 -0.3481550235
N   N14       1.0  0.98850  0.64408  0.73292  1.0000 -0.3481550235
N   N15       1.0  0.97741  0.32225  0.93375  1.0000 -0.3481550235
N   N16       1.0  0.35592  0.34442  0.73292  1.0000 -0.3481550235
N   N17       1.0  0.67775  0.65516  0.93375  1.0000 -0.3481550235
N   N18       1.0  0.65558  0.01150  0.73292  1.0000 -0.3481550235
N   N19       1.0  0.35589  0.01150  0.73292  1.0000 -0.3481550235
N   N20       1.0  0.97745  0.65517  0.93375  1.0000 -0.3481550235
N   N21       1.0  0.65561  0.64411  0.73292  1.0000 -0.3481550235
N   N22       1.0  0.67772  0.02255  0.93375  1.0000 -0.3481550235
N   N23       1.0  0.98850  0.34439  0.73292  1.0000 -0.3481550235
N   N24       1.0  0.34483  0.32228  0.93375  1.0000 -0.3481550235
N   N25       1.0  0.01150  0.35592  0.26708  1.0000 -0.3481550235
N   N26       1.0  0.65516  0.97741  0.06625  1.0000 -0.3481550235
N   N27       1.0  0.64408  0.65558  0.26708  1.0000 -0.3481550235
N   N28       1.0  0.02259  0.67775  0.06625  1.0000 -0.3481550235
N   N29       1.0  0.34442  0.98850  0.26708  1.0000 -0.3481550235
N   N30       1.0  0.32225  0.34484  0.06625  1.0000 -0.3481550235
N   N31       1.0  0.02255  0.34483  0.06625  1.0000 -0.3481550235
N   N32       1.0  0.64411  0.98850  0.26708  1.0000 -0.3481550235
N   N33       1.0  0.32228  0.97745  0.06625  1.0000 -0.3481550235
N   N34       1.0  0.34439  0.35589  0.26708  1.0000 -0.3481550235
N   N35       1.0  0.65517  0.67772  0.06625  1.0000 -0.3481550235
N   N36       1.0  0.01150  0.65561  0.26708  1.0000 -0.3481550235
N   N37       1.0  0.82868  0.75549  0.54519  1.0000 -0.3340048461
N   N38       1.0  0.17132  0.24451  0.45481  1.0000 -0.3340048461
N   N39       1.0  0.24451  0.07319  0.54519  1.0000 -0.3340048461
N   N40       1.0  0.75549  0.92681  0.45481  1.0000 -0.3340048461
N   N41       1.0  0.92681  0.17132  0.54519  1.0000 -0.3340048461
N   N42       1.0  0.07319  0.82868  0.45481  1.0000 -0.3340048461
N   N43       1.0  0.75555  0.82868  0.45490  1.0000 -0.3340048461
N   N44       1.0  0.24445  0.17132  0.54510  1.0000 -0.3340048461
N   N45       1.0  0.07313  0.24445  0.45490  1.0000 -0.3340048461
N   N46       1.0  0.92687  0.75555  0.54510  1.0000 -0.3340048461
N   N47       1.0  0.17132  0.92687  0.45490  1.0000 -0.3340048461
N   N48       1.0  0.82868  0.07313  0.54510  1.0000 -0.3340048461
N   N49       1.0  0.49535  0.08883  0.87852  1.0000 -0.3340048461
N   N50       1.0  0.83798  0.57784  0.78814  1.0000 -0.3340048461
N   N51       1.0  0.91117  0.40653  0.87852  1.0000 -0.3340048461
N   N52       1.0  0.42216  0.26014  0.78814  1.0000 -0.3340048461
N   N53       1.0  0.59347  0.50465  0.87852  1.0000 -0.3340048461
N   N54       1.0  0.73986  0.16202  0.78814  1.0000 -0.3340048461
N   N55       1.0  0.42221  0.16202  0.78824  1.0000 -0.3340048461
N   N56       1.0  0.91112  0.50465  0.87843  1.0000 -0.3340048461
N   N57       1.0  0.73980  0.57779  0.78824  1.0000 -0.3340048461
N   N58       1.0  0.59353  0.08888  0.87843  1.0000 -0.3340048461
N   N59       1.0  0.83798  0.26020  0.78824  1.0000 -0.3340048461
N   N60       1.0  0.49535  0.40647  0.87843  1.0000 -0.3340048461
N   N61       1.0  0.16202  0.42216  0.21186  1.0000 -0.3340048461
N   N62       1.0  0.50465  0.91117  0.12148  1.0000 -0.3340048461
N   N63       1.0  0.57784  0.73986  0.21186  1.0000 -0.3340048461
N   N64       1.0  0.08883  0.59347  0.12148  1.0000 -0.3340048461
N   N65       1.0  0.26014  0.83798  0.21186  1.0000 -0.3340048461
N   N66       1.0  0.40653  0.49535  0.12148  1.0000 -0.3340048461
N   N67       1.0  0.08888  0.49535  0.12157  1.0000 -0.3340048461
N   N68       1.0  0.57779  0.83798  0.21176  1.0000 -0.3340048461
N   N69       1.0  0.40647  0.91112  0.12157  1.0000 -0.3340048461
N   N70       1.0  0.26020  0.42221  0.21176  1.0000 -0.3340048461
N   N71       1.0  0.50465  0.59353  0.12157  1.0000 -0.3340048461
N   N72       1.0  0.16202  0.73980  0.21176  1.0000 -0.3340048461
N   N73       1.0  0.84236  0.83194  0.66198  1.0000 0.5043634805
N   N74       1.0  0.15764  0.16806  0.33802  1.0000 0.5043634805
N   N75       1.0  0.16806  0.01042  0.66198  1.0000 0.5043634805
N   N76       1.0  0.83194  0.98958  0.33802  1.0000 0.5043634805
N   N77       1.0  0.98958  0.15764  0.66198  1.0000 0.5043634805
N   N78       1.0  0.01042  0.84236  0.33802  1.0000 0.5043634805
N   N79       1.0  0.83208  0.84237  0.33822  1.0000 0.5043634805
N   N80       1.0  0.16792  0.15763  0.66178  1.0000 0.5043634805
N   N81       1.0  0.01029  0.16792  0.33822  1.0000 0.5043634805
N   N82       1.0  0.98971  0.83208  0.66178  1.0000 0.5043634805
N   N83       1.0  0.15763  0.98971  0.33822  1.0000 0.5043634805
N   N84       1.0  0.84237  0.01029  0.66178  1.0000 0.5043634805
N   N85       1.0  0.50902  0.16527  0.99531  1.0000 0.5043634805
N   N86       1.0  0.82431  0.50140  0.67135  1.0000 0.5043634805
N   N87       1.0  0.83473  0.34375  0.99531  1.0000 0.5043634805
N   N88       1.0  0.49860  0.32291  0.67135  1.0000 0.5043634805
N   N89       1.0  0.65625  0.49098  0.99531  1.0000 0.5043634805
N   N90       1.0  0.67709  0.17569  0.67135  1.0000 0.5043634805
N   N91       1.0  0.49875  0.17570  0.67156  1.0000 0.5043634805
N   N92       1.0  0.83459  0.49096  0.99511  1.0000 0.5043634805
N   N93       1.0  0.67696  0.50125  0.67156  1.0000 0.5043634805
N   N94       1.0  0.65638  0.16541  0.99511  1.0000 0.5043634805
N   N95       1.0  0.82430  0.32304  0.67156  1.0000 0.5043634805
N   N96       1.0  0.50904  0.34362  0.99511  1.0000 0.5043634805
N   N97       1.0  0.17569  0.49860  0.32865  1.0000 0.5043634805
N   N98       1.0  0.49098  0.83473  0.00469  1.0000 0.5043634805
N   N99       1.0  0.50140  0.67709  0.32865  1.0000 0.5043634805
N   N100      1.0  0.16527  0.65625  0.00469  1.0000 0.5043634805
N   N101      1.0  0.32291  0.82431  0.32865  1.0000 0.5043634805
N   N102      1.0  0.34375  0.50902  0.00469  1.0000 0.5043634805
N   N103      1.0  0.16541  0.50904  0.00489  1.0000 0.5043634805
N   N104      1.0  0.50125  0.82430  0.32844  1.0000 0.5043634805
N   N105      1.0  0.34362  0.83459  0.00489  1.0000 0.5055518728
N   N106      1.0  0.32304  0.49875  0.32844  1.0000 0.5043634805
N   N107      1.0  0.49096  0.65638  0.00489  1.0000 0.5043634805
N   N108      1.0  0.17570  0.67696  0.32844  1.0000 0.5043634805
O   O1        1.0  0.78771  0.82549  0.63704  1.0000 -0.3481550235
O   O2        1.0  0.21229  0.17451  0.36296  1.0000 -0.3481550235
O   O3        1.0  0.17451  0.96222  0.63704  1.0000 -0.3481550235
O   O4        1.0  0.82549  0.03778  0.36296  1.0000 -0.3481550235
O   O5        1.0  0.03778  0.21229  0.63704  1.0000 -0.3481550235
O   O6        1.0  0.96222  0.78771  0.36296  1.0000 -0.3481550235
O   O7        1.0  0.82557  0.78769  0.36314  1.0000 -0.3481550235
O   O8        1.0  0.17443  0.21231  0.63686  1.0000 -0.3481550235
O   O9        1.0  0.96212  0.17443  0.36314  1.0000 -0.3481550235
O   O10       1.0  0.03788  0.82557  0.63686  1.0000 -0.3481550235
O   O11       1.0  0.21231  0.03788  0.36314  1.0000 -0.3481550235
O   O12       1.0  0.78769  0.96212  0.63686  1.0000 -0.3481550235
O   O13       1.0  0.45437  0.15882  0.97037  1.0000 -0.3481550235
O   O14       1.0  0.87896  0.50785  0.69629  1.0000 -0.3481550235
O   O15       1.0  0.84118  0.29556  0.97037  1.0000 -0.3481550235
O   O16       1.0  0.49215  0.37111  0.69629  1.0000 -0.3481550235
O   O17       1.0  0.70444  0.54563  0.97037  1.0000 -0.3481550235
O   O18       1.0  0.62889  0.12104  0.69629  1.0000 -0.3481550235
O   O19       1.0  0.49223  0.12102  0.69647  1.0000 -0.3481550235
O   O20       1.0  0.84110  0.54565  0.97019  1.0000 -0.3481550235
O   O21       1.0  0.62879  0.50777  0.69647  1.0000 -0.3481550235
O   O22       1.0  0.70455  0.15890  0.97019  1.0000 -0.3481550235
O   O23       1.0  0.87898  0.37121  0.69647  1.0000 -0.3481550235
O   O24       1.0  0.45435  0.29545  0.97019  1.0000 -0.3481550235
O   O25       1.0  0.12104  0.49215  0.30371  1.0000 -0.3481550235
O   O26       1.0  0.54563  0.84118  0.02963  1.0000 -0.3481550235
O   O27       1.0  0.50785  0.62889  0.30371  1.0000 -0.3481550235
O   O28       1.0  0.15882  0.70444  0.02963  1.0000 -0.3481550235
O   O29       1.0  0.37111  0.87896  0.30371  1.0000 -0.3481550235
O   O30       1.0  0.29556  0.45437  0.02963  1.0000 -0.3481550235
O   O31       1.0  0.15890  0.45435  0.02981  1.0000 -0.3481550235
O   O32       1.0  0.50777  0.87898  0.30353  1.0000 -0.3481550235
O   O33       1.0  0.29545  0.84110  0.02981  1.0000 -0.3481550235
O   O34       1.0  0.37121  0.49223  0.30353  1.0000 -0.3481550235
O   O35       1.0  0.54565  0.70455  0.02981  1.0000 -0.3481550235
O   O36       1.0  0.12102  0.62879  0.30353  1.0000 -0.3481550235
O   O37       1.0  0.87415  0.86444  0.72625  1.0000 -0.3160228802
O   O38       1.0  0.12585  0.13556  0.27375  1.0000 -0.3160228802
O   O39       1.0  0.13556  0.00971  0.72625  1.0000 -0.3160228802
O   O40       1.0  0.86444  0.99029  0.27375  1.0000 -0.3160228802
O   O41       1.0  0.99029  0.12585  0.72625  1.0000 -0.3160228802
O   O42       1.0  0.00971  0.87415  0.27375  1.0000 -0.3160228802
O   O43       1.0  0.86477  0.87424  0.27410  1.0000 -0.3160228802
O   O44       1.0  0.13523  0.12576  0.72590  1.0000 -0.3142536599
O   O45       1.0  0.00947  0.13523  0.27410  1.0000 -0.3142536599
O   O46       1.0  0.99053  0.86477  0.72590  1.0000 -0.3142536599
O   O47       1.0  0.12576  0.99053  0.27410  1.0000 -0.3142536599
O   O48       1.0  0.87424  0.00947  0.72590  1.0000 -0.3160228802
O   O49       1.0  0.54081  0.19777  0.05959  1.0000 -0.3160228802
O   O50       1.0  0.79252  0.46890  0.60708  1.0000 -0.3160228802
O   O51       1.0  0.80223  0.34304  0.05959  1.0000 -0.3160228802
O   O52       1.0  0.53110  0.32362  0.60708  1.0000 -0.3160228802
O   O53       1.0  0.65696  0.45919  0.05959  1.0000 -0.3160228802
O   O54       1.0  0.67638  0.20748  0.60708  1.0000 -0.3160228802
O   O55       1.0  0.53143  0.20757  0.60743  1.0000 -0.3142536599
O   O56       1.0  0.80190  0.45909  0.05923  1.0000 -0.3142536599
O   O57       1.0  0.67614  0.46857  0.60743  1.0000 -0.3142536599
O   O58       1.0  0.65719  0.19810  0.05923  1.0000 -0.3142536599
O   O59       1.0  0.79243  0.32386  0.60743  1.0000 -0.3142536599
O   O60       1.0  0.54091  0.34281  0.05923  1.0000 -0.3142536599
O   O61       1.0  0.20748  0.53110  0.39292  1.0000 -0.3160228802
O   O62       1.0  0.45919  0.80223  0.94041  1.0000 -0.3160228802
O   O63       1.0  0.46890  0.67638  0.39292  1.0000 -0.3160228802
O   O64       1.0  0.19777  0.65696  0.94041  1.0000 -0.3160228802
O   O65       1.0  0.32362  0.79252  0.39292  1.0000 -0.3160228802
O   O66       1.0  0.34304  0.54081  0.94041  1.0000 -0.3160228802
O   O67       1.0  0.19810  0.54091  0.94077  1.0000 -0.3142536599
O   O68       1.0  0.46857  0.79243  0.39257  1.0000 -0.3160228802
O   O69       1.0  0.34281  0.80190  0.94077  1.0000 -0.3160228802
O   O70       1.0  0.32386  0.53143  0.39257  1.0000 -0.3142536599
O   O71       1.0  0.45909  0.65719  0.94077  1.0000 -0.3142536599
O   O72       1.0  0.20757  0.67614  0.39257  1.0000 -0.3142536599
