# DDEC6 charges by PACMAN v1.1 (https://github.com/mtap-research/PACMAN-charge/)
data_2013[Co][nan]3[ASR]8
_chemical_formula_sum              "Co16 H144 C208 N32 O104"
_cell_length_a       10.7873
_cell_length_b       26.9072
_cell_length_c       22.856
_cell_angle_alpha    90
_cell_angle_beta     106.409
_cell_angle_gamma    90

_symmetry_space_group_name_H-M    "P 1"
_symmetry_Int_Tables_number       1

loop_
  _symmetry_equiv_pos_as_xyz
  'x, y, z'

loop_
  _atom_site_type_symbol
  _atom_site_label
  _atom_site_symmetry_multiplicity
  _atom_site_fract_x
  _atom_site_fract_y
  _atom_site_fract_z
  _atom_site_occupancy
  _atom_site_charge
Co  Co1       1.0  0.00837  0.65554  0.84114  1.0000 0.9236817263
Co  Co2       1.0  0.99163  0.15554  0.65886  1.0000 0.9236817263
Co  Co3       1.0  0.99163  0.34446  0.15886  1.0000 0.9236817263
Co  Co4       1.0  0.00837  0.84446  0.34114  1.0000 0.9236817263
Co  Co5       1.0  0.86529  0.60984  0.95301  1.0000 0.8808550962
Co  Co6       1.0  0.13471  0.10984  0.54699  1.0000 0.8808550962
Co  Co7       1.0  0.13471  0.39016  0.04699  1.0000 0.8808550962
Co  Co8       1.0  0.86529  0.89016  0.45301  1.0000 0.8808550962
Co  Co9       1.0  0.35522  0.85212  0.94473  1.0000 0.8808550962
Co  Co10      1.0  0.64478  0.35212  0.55527  1.0000 0.8808550962
Co  Co11      1.0  0.64478  0.14788  0.05527  1.0000 0.8808550962
Co  Co12      1.0  0.35522  0.64788  0.44473  1.0000 0.8808550962
Co  Co13      1.0  0.47756  0.89839  0.82344  1.0000 0.873379966
Co  Co14      1.0  0.52244  0.39839  0.67656  1.0000 0.873379966
Co  Co15      1.0  0.52244  0.10161  0.17656  1.0000 0.873379966
Co  Co16      1.0  0.47756  0.60161  0.32344  1.0000 0.873379966
H   H1        1.0  0.79790  0.61540  0.84590  1.0000 0.3126221389
H   H2        1.0  0.20210  0.11540  0.65410  1.0000 0.3126221389
H   H3        1.0  0.20210  0.38460  0.15410  1.0000 0.3126221389
H   H4        1.0  0.79790  0.88460  0.34590  1.0000 0.3126221389
H   H5        1.0  0.79910  0.66410  0.85310  1.0000 0.3126221389
H   H6        1.0  0.20090  0.16410  0.64690  1.0000 0.3126221389
H   H7        1.0  0.20090  0.33590  0.14690  1.0000 0.3126221389
H   H8        1.0  0.79910  0.83590  0.35310  1.0000 0.3126221389
H   H9        1.0  0.55030  0.90450  0.92930  1.0000 0.3310418703
H   H10       1.0  0.44970  0.40450  0.57070  1.0000 0.3310418703
H   H11       1.0  0.44970  0.09550  0.07070  1.0000 0.3310418703
H   H12       1.0  0.55030  0.59550  0.42930  1.0000 0.3310418703
H   H13       1.0  0.57050  0.85490  0.92750  1.0000 0.340579284
H   H14       1.0  0.42950  0.35490  0.57250  1.0000 0.340579284
H   H15       1.0  0.42950  0.14510  0.07250  1.0000 0.340579284
H   H16       1.0  0.57050  0.64510  0.42750  1.0000 0.340579284
H   H17       1.0  0.28520  0.54060  0.06810  1.0000 0.1311850282
H   H18       1.0  0.71480  0.04060  0.43190  1.0000 0.1311850282
H   H19       1.0  0.71480  0.45940  0.93190  1.0000 0.1311850282
H   H20       1.0  0.28520  0.95940  0.56810  1.0000 0.1311850282
H   H21       1.0  0.37940  0.51160  0.24860  1.0000 0.1098568296
H   H22       1.0  0.62060  0.01160  0.25140  1.0000 0.1098568296
H   H23       1.0  0.62060  0.48840  0.75140  1.0000 0.1098568296
H   H24       1.0  0.37940  0.98840  0.74860  1.0000 0.1098568296
H   H25       1.0  0.61120  0.57870  0.98030  1.0000 0.1311850282
H   H26       1.0  0.38880  0.07870  0.51970  1.0000 0.1311850282
H   H27       1.0  0.38880  0.42130  0.01970  1.0000 0.1311850282
H   H28       1.0  0.61120  0.92130  0.48030  1.0000 0.1311850282
H   H29       1.0  0.26780  0.65100  0.99230  1.0000 0.1182800344
H   H30       1.0  0.73220  0.15100  0.50770  1.0000 0.1182800344
H   H31       1.0  0.73220  0.34900  0.00770  1.0000 0.1182800344
H   H32       1.0  0.26780  0.84900  0.49230  1.0000 0.1182800344
H   H33       1.0  0.22960  0.59730  0.01230  1.0000 0.1182800344
H   H34       1.0  0.77040  0.09730  0.48770  1.0000 0.1182800344
H   H35       1.0  0.77040  0.40270  0.98770  1.0000 0.1182800344
H   H36       1.0  0.22960  0.90270  0.51230  1.0000 0.1182800344
H   H37       1.0  0.40810  0.69980  0.00000  1.0000 0.1311850282
H   H38       1.0  0.59190  0.19980  0.50000  1.0000 0.1311850282
H   H39       1.0  0.59190  0.30020  0.00000  1.0000 0.1311850282
H   H40       1.0  0.40810  0.80020  0.50000  1.0000 0.1311850282
H   H41       1.0  0.73270  0.71070  0.94660  1.0000 0.1098568296
H   H42       1.0  0.26730  0.21070  0.55340  1.0000 0.1098568296
H   H43       1.0  0.26730  0.28930  0.05340  1.0000 0.1098568296
H   H44       1.0  0.73270  0.78930  0.44660  1.0000 0.1098568296
H   H45       1.0  0.89200  0.99290  0.51000  1.0000 0.1098568296
H   H46       1.0  0.10800  0.49290  0.99000  1.0000 0.1098568296
H   H47       1.0  0.10800  0.00710  0.49000  1.0000 0.1098568296
H   H48       1.0  0.89200  0.50710  0.01000  1.0000 0.1098568296
H   H49       1.0  0.98210  0.98610  0.69430  1.0000 0.140104545
H   H50       1.0  0.01790  0.48610  0.80570  1.0000 0.140104545
H   H51       1.0  0.01790  0.01390  0.30570  1.0000 0.140104545
H   H52       1.0  0.98210  0.51390  0.19430  1.0000 0.140104545
H   H53       1.0  0.93000  0.86220  0.59000  1.0000 0.1311850282
H   H54       1.0  0.07000  0.36220  0.91000  1.0000 0.1311850282
H   H55       1.0  0.07000  0.13780  0.41000  1.0000 0.1311850282
H   H56       1.0  0.93000  0.63780  0.09000  1.0000 0.1311850282
H   H57       1.0  0.22370  0.75400  0.95550  1.0000 0.1098568296
H   H58       1.0  0.77630  0.25400  0.54450  1.0000 0.1098568296
H   H59       1.0  0.77630  0.24600  0.04450  1.0000 0.1098568296
H   H60       1.0  0.22370  0.74600  0.45550  1.0000 0.1098568296
H   H61       1.0  0.42520  0.64720  0.19320  1.0000 0.1311850282
H   H62       1.0  0.57480  0.14720  0.30680  1.0000 0.1311850282
H   H63       1.0  0.57480  0.35280  0.80680  1.0000 0.1311850282
H   H64       1.0  0.42520  0.85280  0.69320  1.0000 0.1311850282
H   H65       1.0  0.85160  0.01860  0.04350  1.0000 0.1311850282
H   H66       1.0  0.14840  0.51860  0.45650  1.0000 0.1311850282
H   H67       1.0  0.14840  0.98140  0.95650  1.0000 0.1311850282
H   H68       1.0  0.85160  0.48140  0.54350  1.0000 0.1311850282
H   H69       1.0  0.92540  0.92430  0.94420  1.0000 0.1034986131
H   H70       1.0  0.07460  0.42430  0.55580  1.0000 0.1034986131
H   H71       1.0  0.07460  0.07570  0.05580  1.0000 0.1034986131
H   H72       1.0  0.92540  0.57570  0.44420  1.0000 0.1034986131
H   H73       1.0  0.81230  0.93620  0.97490  1.0000 0.1098568296
H   H74       1.0  0.18770  0.43620  0.52510  1.0000 0.1098568296
H   H75       1.0  0.18770  0.06380  0.02510  1.0000 0.1098568296
H   H76       1.0  0.81230  0.56380  0.47490  1.0000 0.1098568296
H   H77       1.0  0.00740  0.89370  0.13060  1.0000 0.1182800344
H   H78       1.0  0.99260  0.39370  0.36940  1.0000 0.1182800344
H   H79       1.0  0.99260  0.10630  0.86940  1.0000 0.1182800344
H   H80       1.0  0.00740  0.60630  0.63060  1.0000 0.1182800344
H   H81       1.0  0.80200  0.98040  0.20590  1.0000 0.1098568296
H   H82       1.0  0.19800  0.48040  0.29410  1.0000 0.1098568296
H   H83       1.0  0.19800  0.01960  0.79410  1.0000 0.1098568296
H   H84       1.0  0.80200  0.51960  0.70590  1.0000 0.1098568296
H   H85       1.0  0.72790  0.93640  0.79480  1.0000 0.1311850282
H   H86       1.0  0.27210  0.43640  0.70520  1.0000 0.1311850282
H   H87       1.0  0.27210  0.06360  0.20520  1.0000 0.1311850282
H   H88       1.0  0.72790  0.56360  0.29480  1.0000 0.1311850282
H   H89       1.0  0.63320  0.80190  0.83510  1.0000 0.1098568296
H   H90       1.0  0.36680  0.30190  0.66490  1.0000 0.1098568296
H   H91       1.0  0.36680  0.19810  0.16490  1.0000 0.1098568296
H   H92       1.0  0.63320  0.69810  0.33510  1.0000 0.1098568296
H   H93       1.0  0.15390  0.74810  0.84310  1.0000 0.1098568296
H   H94       1.0  0.84610  0.24810  0.65690  1.0000 0.1098568296
H   H95       1.0  0.84610  0.25190  0.15690  1.0000 0.1098568296
H   H96       1.0  0.15390  0.75190  0.34310  1.0000 0.1098568296
H   H97       1.0  0.24470  0.61440  0.79960  1.0000 0.1311850282
H   H98       1.0  0.75530  0.11440  0.70040  1.0000 0.1311850282
H   H99       1.0  0.75530  0.38560  0.20040  1.0000 0.1311850282
H   H100      1.0  0.24470  0.88560  0.29960  1.0000 0.1311850282
H   H101      1.0  0.59290  0.67380  0.77180  1.0000 0.1311850282
H   H102      1.0  0.40710  0.17380  0.72820  1.0000 0.1311850282
H   H103      1.0  0.40710  0.32620  0.22820  1.0000 0.1311850282
H   H104      1.0  0.59290  0.82620  0.27180  1.0000 0.1311850282
H   H105      1.0  0.60310  0.61850  0.74780  1.0000 0.1311850282
H   H106      1.0  0.39690  0.11850  0.75220  1.0000 0.1311850282
H   H107      1.0  0.39690  0.38150  0.25220  1.0000 0.1311850282
H   H108      1.0  0.60310  0.88150  0.24780  1.0000 0.1311850282
H   H109      1.0  0.46740  0.73100  0.78130  1.0000 0.140104545
H   H110      1.0  0.53260  0.23100  0.71870  1.0000 0.140104545
H   H111      1.0  0.53260  0.26900  0.21870  1.0000 0.140104545
H   H112      1.0  0.46740  0.76900  0.28130  1.0000 0.140104545
H   H113      1.0  0.44760  0.68020  0.57790  1.0000 0.1311850282
H   H114      1.0  0.55240  0.18020  0.92210  1.0000 0.1311850282
H   H115      1.0  0.55240  0.31980  0.42210  1.0000 0.1311850282
H   H116      1.0  0.44760  0.81980  0.07790  1.0000 0.1311850282
H   H117      1.0  0.46430  0.56300  0.69020  1.0000 0.140104545
H   H118      1.0  0.53570  0.06300  0.80980  1.0000 0.140104545
H   H119      1.0  0.53570  0.43700  0.30980  1.0000 0.140104545
H   H120      1.0  0.46430  0.93700  0.19020  1.0000 0.140104545
H   H121      1.0  0.40690  0.54550  0.50870  1.0000 0.1182800344
H   H122      1.0  0.59310  0.04550  0.99130  1.0000 0.1182800344
H   H123      1.0  0.59310  0.45450  0.49130  1.0000 0.1182800344
H   H124      1.0  0.40690  0.95450  0.00870  1.0000 0.1182800344
H   H125      1.0  0.11660  0.88970  0.98310  1.0000 0.1098568296
H   H126      1.0  0.88340  0.38970  0.51690  1.0000 0.1098568296
H   H127      1.0  0.88340  0.11030  0.01690  1.0000 0.1098568296
H   H128      1.0  0.11660  0.61030  0.48310  1.0000 0.1098568296
H   H129      1.0  0.88120  0.77470  0.99120  1.0000 0.1525162511
H   H130      1.0  0.11880  0.27470  0.50880  1.0000 0.1525162511
H   H131      1.0  0.11880  0.22530  0.00880  1.0000 0.1525162511
H   H132      1.0  0.88120  0.72530  0.49120  1.0000 0.1525162511
H   H133      1.0  0.97190  0.82220  0.79510  1.0000 0.140104545
H   H134      1.0  0.02810  0.32220  0.70490  1.0000 0.140104545
H   H135      1.0  0.02810  0.17780  0.20490  1.0000 0.140104545
H   H136      1.0  0.97190  0.67780  0.29510  1.0000 0.140104545
H   H137      1.0  0.09430  0.87880  0.78490  1.0000 0.1182800344
H   H138      1.0  0.90570  0.37880  0.71510  1.0000 0.1182800344
H   H139      1.0  0.90570  0.12120  0.21510  1.0000 0.1182800344
H   H140      1.0  0.09430  0.62120  0.28490  1.0000 0.1182800344
H   H141      1.0  0.10410  0.93300  0.75750  1.0000 0.1098568296
H   H142      1.0  0.89590  0.43300  0.74250  1.0000 0.1098568296
H   H143      1.0  0.89590  0.06700  0.24250  1.0000 0.1098568296
H   H144      1.0  0.10410  0.56700  0.25750  1.0000 0.1098568296
C   C1        1.0  0.02763  0.70050  0.96303  1.0000 0.5772010389
C   C2        1.0  0.97237  0.20050  0.53697  1.0000 0.5772010389
C   C3        1.0  0.97237  0.29950  0.03697  1.0000 0.5772010389
C   C4        1.0  0.02763  0.79950  0.46303  1.0000 0.5772010389
C   C5        1.0  0.27565  0.46589  0.14325  1.0000 0.5695703797
C   C6        1.0  0.72435  0.96589  0.35675  1.0000 0.5695703797
C   C7        1.0  0.72435  0.53411  0.85675  1.0000 0.5695703797
C   C8        1.0  0.27565  0.03411  0.64325  1.0000 0.5695703797
C   C9        1.0  0.32384  0.51804  0.15674  1.0000 -0.0376821421
C   C10       1.0  0.67616  0.01804  0.34326  1.0000 -0.0376821421
C   C11       1.0  0.67616  0.48196  0.84326  1.0000 -0.0376821421
C   C12       1.0  0.32384  0.98196  0.65674  1.0000 -0.0376821421
C   C13       1.0  0.31494  0.55119  0.10934  1.0000 -0.2005780773
C   C14       1.0  0.68506  0.05119  0.39066  1.0000 -0.2005780773
C   C15       1.0  0.68506  0.44881  0.89066  1.0000 -0.2005780773
C   C16       1.0  0.31494  0.94881  0.60934  1.0000 -0.2005780773
C   C17       1.0  0.35009  0.59995  0.12339  1.0000 0.2088905067
C   C18       1.0  0.64991  0.09995  0.37661  1.0000 0.2088905067
C   C19       1.0  0.64991  0.40005  0.87661  1.0000 0.2088905067
C   C20       1.0  0.35009  0.90005  0.62339  1.0000 0.2088905067
C   C21       1.0  0.37294  0.53452  0.21624  1.0000 0.0391096292
C   C22       1.0  0.62706  0.03452  0.28376  1.0000 0.0391096292
C   C23       1.0  0.62706  0.46548  0.78376  1.0000 0.0391096292
C   C24       1.0  0.37294  0.96548  0.71624  1.0000 0.0391096292
C   C25       1.0  0.60053  0.61372  0.97833  1.0000 -0.031077669
C   C26       1.0  0.39947  0.11372  0.52167  1.0000 -0.031077669
C   C27       1.0  0.39947  0.38628  0.02167  1.0000 -0.031077669
C   C28       1.0  0.60053  0.88628  0.47833  1.0000 -0.031077669
C   C29       1.0  0.49310  0.63399  0.99090  1.0000 0.2088905067
C   C30       1.0  0.50690  0.13399  0.50910  1.0000 0.2088905067
C   C31       1.0  0.50690  0.36601  0.00910  1.0000 0.2088905067
C   C32       1.0  0.49310  0.86601  0.49090  1.0000 0.2088905067
C   C33       1.0  0.30022  0.62201  0.01892  1.0000 0.1182800344
C   C34       1.0  0.69978  0.12201  0.48108  1.0000 0.1182800344
C   C35       1.0  0.69978  0.37799  0.98108  1.0000 0.1182800344
C   C36       1.0  0.30022  0.87799  0.51892  1.0000 0.1182800344
C   C37       1.0  0.47834  0.68487  0.98924  1.0000 -0.2005780773
C   C38       1.0  0.52166  0.18487  0.51076  1.0000 -0.2005780773
C   C39       1.0  0.52166  0.31513  0.01076  1.0000 -0.2005780773
C   C40       1.0  0.47834  0.81513  0.48924  1.0000 -0.2005780773
C   C41       1.0  0.56768  0.71377  0.97158  1.0000 -0.0376821421
C   C42       1.0  0.43232  0.21377  0.52842  1.0000 -0.0376821421
C   C43       1.0  0.43232  0.28623  0.02842  1.0000 -0.0376821421
C   C44       1.0  0.56768  0.78623  0.47158  1.0000 -0.0376821421
C   C45       1.0  0.54986  0.76899  0.96466  1.0000 0.5695703797
C   C46       1.0  0.45014  0.26899  0.53534  1.0000 0.5695703797
C   C47       1.0  0.45014  0.23101  0.03534  1.0000 0.5695703797
C   C48       1.0  0.54986  0.73101  0.46466  1.0000 0.5695703797
C   C49       1.0  0.67173  0.69077  0.95893  1.0000 0.0471607385
C   C50       1.0  0.32827  0.19077  0.54107  1.0000 0.0471607385
C   C51       1.0  0.32827  0.30923  0.04107  1.0000 0.0471607385
C   C52       1.0  0.67173  0.80923  0.45893  1.0000 0.0471607385
C   C53       1.0  0.90913  0.97367  0.54629  1.0000 0.0391096292
C   C54       1.0  0.09087  0.47367  0.95371  1.0000 0.0391096292
C   C55       1.0  0.09087  0.02633  0.45371  1.0000 0.0391096292
C   C56       1.0  0.90913  0.52633  0.04629  1.0000 0.0391096292
C   C57       1.0  0.93876  0.99849  0.60196  1.0000 -0.0227411784
C   C58       1.0  0.06124  0.49849  0.89804  1.0000 -0.0227411784
C   C59       1.0  0.06124  0.00151  0.39804  1.0000 -0.0227411784
C   C60       1.0  0.93876  0.50151  0.10196  1.0000 -0.0227411784
C   C61       1.0  0.95106  0.05457  0.60235  1.0000 0.5772010389
C   C62       1.0  0.04894  0.55457  0.89765  1.0000 0.5772010389
C   C63       1.0  0.04894  0.94543  0.39765  1.0000 0.5772010389
C   C64       1.0  0.95106  0.44543  0.10235  1.0000 0.5772010389
C   C65       1.0  0.96515  0.97049  0.65556  1.0000 -0.2080357882
C   C66       1.0  0.03485  0.47049  0.84444  1.0000 -0.2080357882
C   C67       1.0  0.03485  0.02951  0.34444  1.0000 -0.2005780773
C   C68       1.0  0.96515  0.52951  0.15556  1.0000 -0.2080357882
C   C69       1.0  0.96573  0.91907  0.65023  1.0000 0.2088905067
C   C70       1.0  0.03427  0.41907  0.84977  1.0000 0.2088905067
C   C71       1.0  0.03427  0.08093  0.34977  1.0000 0.2088905067
C   C72       1.0  0.96573  0.58093  0.15023  1.0000 0.2088905067
C   C73       1.0  0.93249  0.89742  0.59289  1.0000 -0.0376821421
C   C74       1.0  0.06751  0.39742  0.90711  1.0000 -0.0376821421
C   C75       1.0  0.06751  0.10258  0.40711  1.0000 -0.0376821421
C   C76       1.0  0.93249  0.60258  0.09289  1.0000 -0.0376821421
C   C77       1.0  0.04980  0.75531  0.97320  1.0000 -0.0376821421
C   C78       1.0  0.95020  0.25531  0.52680  1.0000 -0.0376821421
C   C79       1.0  0.95020  0.24469  0.02680  1.0000 -0.0376821421
C   C80       1.0  0.04980  0.74469  0.47320  1.0000 -0.0376821421
C   C81       1.0  0.16223  0.77574  0.96463  1.0000 0.0471607385
C   C82       1.0  0.83777  0.27574  0.53537  1.0000 0.0471607385
C   C83       1.0  0.83777  0.22426  0.03537  1.0000 0.0471607385
C   C84       1.0  0.16223  0.72426  0.46463  1.0000 0.0471607385
C   C85       1.0  0.33411  0.80335  0.82379  1.0000 0.5772010389
C   C86       1.0  0.66589  0.30335  0.67621  1.0000 0.5772010389
C   C87       1.0  0.66589  0.19665  0.17621  1.0000 0.5772010389
C   C88       1.0  0.33411  0.69665  0.32379  1.0000 0.5772010389
C   C89       1.0  0.39925  0.61372  0.18395  1.0000 -0.031077669
C   C90       1.0  0.60075  0.11372  0.31605  1.0000 -0.031077669
C   C91       1.0  0.60075  0.38628  0.81605  1.0000 -0.031077669
C   C92       1.0  0.39925  0.88628  0.68395  1.0000 -0.031077669
C   C93       1.0  0.73831  0.05425  0.12431  1.0000 0.5695703797
C   C94       1.0  0.26169  0.55425  0.37569  1.0000 0.5695703797
C   C95       1.0  0.26169  0.94575  0.87569  1.0000 0.5695703797
C   C96       1.0  0.73831  0.44575  0.62431  1.0000 0.5695703797
C   C97       1.0  0.81529  0.00729  0.12549  1.0000 -0.0490877901
C   C98       1.0  0.18471  0.50729  0.37451  1.0000 -0.0490877901
C   C99       1.0  0.18471  0.99271  0.87451  1.0000 -0.0490877901
C   C100      1.0  0.81529  0.49271  0.62549  1.0000 -0.0490877901
C   C101      1.0  0.86572  0.99663  0.07722  1.0000 -0.1923898816
C   C102      1.0  0.13428  0.49663  0.42278  1.0000 -0.1923898816
C   C103      1.0  0.13428  0.00337  0.92278  1.0000 -0.1923898816
C   C104      1.0  0.86572  0.50337  0.57722  1.0000 -0.1923898816
C   C105      1.0  0.93593  0.95391  0.07903  1.0000 0.2004931063
C   C106      1.0  0.06407  0.45391  0.42097  1.0000 0.2004931063
C   C107      1.0  0.06407  0.04609  0.92097  1.0000 0.2004931063
C   C108      1.0  0.93593  0.54609  0.57903  1.0000 0.2004931063
C   C109      1.0  0.89735  0.91975  0.98155  1.0000 0.1098568296
C   C110      1.0  0.10265  0.41975  0.51845  1.0000 0.1098568296
C   C111      1.0  0.10265  0.08025  0.01845  1.0000 0.1098568296
C   C112      1.0  0.89735  0.58025  0.48155  1.0000 0.1098568296
C   C113      1.0  0.95692  0.92279  0.12922  1.0000 -0.031077669
C   C114      1.0  0.04308  0.42279  0.37078  1.0000 -0.031077669
C   C115      1.0  0.04308  0.07721  0.87078  1.0000 -0.031077669
C   C116      1.0  0.95692  0.57721  0.62922  1.0000 -0.031077669
C   C117      1.0  0.83800  0.97378  0.17330  1.0000 0.0208523694
C   C118      1.0  0.16200  0.47378  0.32670  1.0000 0.0208523694
C   C119      1.0  0.16200  0.02622  0.82670  1.0000 0.0208523694
C   C120      1.0  0.83800  0.52622  0.67330  1.0000 0.0208523694
C   C121      1.0  0.42543  0.48970  0.60323  1.0000 0.5695703797
C   C122      1.0  0.57457  0.98970  0.89677  1.0000 0.5695703797
C   C123      1.0  0.57457  0.51030  0.39677  1.0000 0.5695703797
C   C124      1.0  0.42543  0.01030  0.10323  1.0000 0.5695703797
C   C125      1.0  0.43347  0.54549  0.59977  1.0000 -0.031077669
C   C126      1.0  0.56653  0.04549  0.90023  1.0000 -0.031077669
C   C127      1.0  0.56653  0.45451  0.40023  1.0000 -0.031077669
C   C128      1.0  0.43347  0.95451  0.09977  1.0000 -0.031077669
C   C129      1.0  0.74748  0.90200  0.80048  1.0000 -0.0376821421
C   C130      1.0  0.25252  0.40200  0.69952  1.0000 -0.0376821421
C   C131      1.0  0.25252  0.09800  0.19952  1.0000 -0.0376821421
C   C132      1.0  0.74748  0.59800  0.30048  1.0000 -0.0376821421
C   C133      1.0  0.69216  0.82351  0.82376  1.0000 0.0471607385
C   C134      1.0  0.30784  0.32351  0.67624  1.0000 0.0471607385
C   C135      1.0  0.30784  0.17649  0.17624  1.0000 0.0471607385
C   C136      1.0  0.69216  0.67649  0.32376  1.0000 0.0471607385
C   C137      1.0  0.31311  0.74835  0.81361  1.0000 -0.031077669
C   C138      1.0  0.68689  0.24835  0.68639  1.0000 -0.031077669
C   C139      1.0  0.68689  0.25165  0.18639  1.0000 -0.031077669
C   C140      1.0  0.31311  0.75165  0.31361  1.0000 -0.031077669
C   C141      1.0  0.20897  0.72711  0.82827  1.0000 0.0391096292
C   C142      1.0  0.79103  0.22711  0.67173  1.0000 0.0391096292
C   C143      1.0  0.79103  0.27289  0.17173  1.0000 0.0391096292
C   C144      1.0  0.20897  0.77289  0.32827  1.0000 0.0391096292
C   C145      1.0  0.26237  0.64901  0.80347  1.0000 -0.0376821421
C   C146      1.0  0.73763  0.14901  0.69653  1.0000 -0.0376821421
C   C147      1.0  0.73763  0.35099  0.19653  1.0000 -0.0376821421
C   C148      1.0  0.26237  0.85099  0.30347  1.0000 -0.0376821421
C   C149      1.0  0.37053  0.66691  0.78893  1.0000 0.2088905067
C   C150      1.0  0.62947  0.16691  0.71107  1.0000 0.2088905067
C   C151      1.0  0.62947  0.33309  0.21107  1.0000 0.2088905067
C   C152      1.0  0.37053  0.83309  0.28893  1.0000 0.2088905067
C   C153      1.0  0.54305  0.64646  0.74705  1.0000 0.1182800344
C   C154      1.0  0.45695  0.14646  0.75295  1.0000 0.1182800344
C   C155      1.0  0.45695  0.35354  0.25295  1.0000 0.1182800344
C   C156      1.0  0.54305  0.85354  0.24705  1.0000 0.1182800344
C   C157      1.0  0.39603  0.71762  0.79263  1.0000 -0.2005780773
C   C158      1.0  0.60397  0.21762  0.70737  1.0000 -0.2005780773
C   C159      1.0  0.60397  0.28238  0.20737  1.0000 -0.2005780773
C   C160      1.0  0.39603  0.78238  0.29263  1.0000 -0.2005780773
C   C161      1.0  0.44470  0.64532  0.58340  1.0000 -0.0376821421
C   C162      1.0  0.55530  0.14532  0.91660  1.0000 -0.0376821421
C   C163      1.0  0.55530  0.35468  0.41660  1.0000 -0.0376821421
C   C164      1.0  0.44470  0.85468  0.08340  1.0000 -0.0376821421
C   C165      1.0  0.46448  0.62703  0.64178  1.0000 0.2088905067
C   C166      1.0  0.53552  0.12703  0.85822  1.0000 0.2088905067
C   C167      1.0  0.53552  0.37297  0.35822  1.0000 0.2088905067
C   C168      1.0  0.46448  0.87297  0.14178  1.0000 0.2088905067
C   C169      1.0  0.45557  0.57625  0.65077  1.0000 -0.2005780773
C   C170      1.0  0.54443  0.07625  0.84923  1.0000 -0.2005780773
C   C171      1.0  0.54443  0.42375  0.34923  1.0000 -0.2005780773
C   C172      1.0  0.45557  0.92375  0.15077  1.0000 -0.2005780773
C   C173      1.0  0.41910  0.56677  0.54300  1.0000 0.0471607385
C   C174      1.0  0.58090  0.06677  0.95700  1.0000 0.0471607385
C   C175      1.0  0.58090  0.43323  0.45700  1.0000 0.0471607385
C   C176      1.0  0.41910  0.93323  0.04300  1.0000 0.0471607385
C   C177      1.0  0.09888  0.85507  0.97948  1.0000 -0.0490877901
C   C178      1.0  0.90112  0.35507  0.52052  1.0000 -0.0490877901
C   C179      1.0  0.90112  0.14493  0.02052  1.0000 -0.0490877901
C   C180      1.0  0.09888  0.64493  0.47948  1.0000 -0.0490877901
C   C181      1.0  0.98227  0.83776  0.98567  1.0000 0.2088905067
C   C182      1.0  0.01773  0.33776  0.51433  1.0000 0.2088905067
C   C183      1.0  0.01773  0.16224  0.01433  1.0000 0.2088905067
C   C184      1.0  0.98227  0.66224  0.48567  1.0000 0.2088905067
C   C185      1.0  0.95836  0.78725  0.98446  1.0000 -0.1628993883
C   C186      1.0  0.04164  0.28725  0.51554  1.0000 -0.1628993883
C   C187      1.0  0.04164  0.21275  0.01554  1.0000 -0.1628993883
C   C188      1.0  0.95836  0.71275  0.48446  1.0000 -0.1628993883
C   C189      1.0  0.82932  0.74859  0.82582  1.0000 0.5695703797
C   C190      1.0  0.17068  0.24859  0.67418  1.0000 0.5695703797
C   C191      1.0  0.17068  0.25141  0.17418  1.0000 0.5695703797
C   C192      1.0  0.82932  0.75141  0.32582  1.0000 0.5695703797
C   C193      1.0  0.80570  0.80378  0.81640  1.0000 -0.0376821421
C   C194      1.0  0.19430  0.30378  0.68360  1.0000 -0.0376821421
C   C195      1.0  0.19430  0.19622  0.18360  1.0000 -0.0376821421
C   C196      1.0  0.80570  0.69622  0.31640  1.0000 -0.0376821421
C   C197      1.0  0.89364  0.83484  0.80054  1.0000 -0.1923898816
C   C198      1.0  0.10636  0.33484  0.69946  1.0000 -0.1923898816
C   C199      1.0  0.10636  0.16516  0.19946  1.0000 -0.1923898816
C   C200      1.0  0.89364  0.66516  0.30054  1.0000 -0.1923898816
C   C201      1.0  0.86345  0.88484  0.79285  1.0000 0.2088905067
C   C202      1.0  0.13655  0.38484  0.70715  1.0000 0.2088905067
C   C203      1.0  0.13655  0.11516  0.20715  1.0000 0.2088905067
C   C204      1.0  0.86345  0.61516  0.29285  1.0000 0.2088905067
C   C205      1.0  0.04495  0.90481  0.75735  1.0000 0.1182800344
C   C206      1.0  0.95505  0.40481  0.74265  1.0000 0.1182800344
C   C207      1.0  0.95505  0.09519  0.24265  1.0000 0.1182800344
C   C208      1.0  0.04495  0.59519  0.25735  1.0000 0.1182800344
N   N1        1.0  0.69023  0.64160  0.96344  1.0000 -0.2301113528
N   N2        1.0  0.30977  0.14160  0.53656  1.0000 -0.2301113528
N   N3        1.0  0.30977  0.35840  0.03656  1.0000 -0.2301113528
N   N4        1.0  0.69023  0.85840  0.46344  1.0000 -0.2301113528
N   N5        1.0  0.90363  0.92414  0.54137  1.0000 -0.2201975442
N   N6        1.0  0.09637  0.42414  0.95863  1.0000 -0.2201975442
N   N7        1.0  0.09637  0.07586  0.45863  1.0000 -0.2201975442
N   N8        1.0  0.90363  0.57586  0.04137  1.0000 -0.2201975442
N   N9        1.0  0.18759  0.82425  0.96859  1.0000 -0.2201975442
N   N10       1.0  0.81241  0.32425  0.53141  1.0000 -0.2201975442
N   N11       1.0  0.81241  0.17575  0.03141  1.0000 -0.2201975442
N   N12       1.0  0.18759  0.67575  0.46859  1.0000 -0.2201975442
N   N13       1.0  0.41164  0.58148  0.22996  1.0000 -0.2201975442
N   N14       1.0  0.58836  0.08148  0.27004  1.0000 -0.2201975442
N   N15       1.0  0.58836  0.41852  0.77004  1.0000 -0.2201975442
N   N16       1.0  0.41164  0.91852  0.72996  1.0000 -0.2201975442
N   N17       1.0  0.90831  0.93248  0.17561  1.0000 -0.2201975442
N   N18       1.0  0.09169  0.43248  0.32439  1.0000 -0.2201975442
N   N19       1.0  0.09169  0.06752  0.82439  1.0000 -0.2201975442
N   N20       1.0  0.90831  0.56752  0.67561  1.0000 -0.2201975442
N   N21       1.0  0.66212  0.87194  0.81551  1.0000 -0.2390314064
N   N22       1.0  0.33788  0.37194  0.68449  1.0000 -0.2390314064
N   N23       1.0  0.33788  0.12806  0.18449  1.0000 -0.2390314064
N   N24       1.0  0.66212  0.62806  0.31551  1.0000 -0.2390314064
N   N25       1.0  0.18180  0.67841  0.82267  1.0000 -0.2301113528
N   N26       1.0  0.81820  0.17841  0.67733  1.0000 -0.2301113528
N   N27       1.0  0.81820  0.32159  0.17733  1.0000 -0.2301113528
N   N28       1.0  0.18180  0.82159  0.32267  1.0000 -0.2301113528
N   N29       1.0  0.42154  0.61597  0.53427  1.0000 -0.2201975442
N   N30       1.0  0.57846  0.11597  0.96573  1.0000 -0.2201975442
N   N31       1.0  0.57846  0.38403  0.46573  1.0000 -0.2201975442
N   N32       1.0  0.42154  0.88403  0.03427  1.0000 -0.2201975442
O   O1        1.0  0.08767  0.68088  0.92875  1.0000 -0.5707063809
O   O2        1.0  0.91233  0.18088  0.57125  1.0000 -0.5707063809
O   O3        1.0  0.91233  0.31912  0.07125  1.0000 -0.5707063809
O   O4        1.0  0.08767  0.81912  0.42875  1.0000 -0.5707063809
O   O5        1.0  0.95325  0.67822  0.98775  1.0000 -0.5508799321
O   O6        1.0  0.04675  0.17822  0.51225  1.0000 -0.5508799321
O   O7        1.0  0.04675  0.32178  0.01225  1.0000 -0.5508799321
O   O8        1.0  0.95325  0.82178  0.48775  1.0000 -0.5508799321
O   O9        1.0  0.83843  0.63856  0.86453  1.0000 -0.6917980559
O   O10       1.0  0.16157  0.13856  0.63547  1.0000 -0.6917980559
O   O11       1.0  0.16157  0.36144  0.13547  1.0000 -0.6917980559
O   O12       1.0  0.83843  0.86144  0.36453  1.0000 -0.6917980559
O   O13       1.0  0.24251  0.45274  0.08807  1.0000 -0.5707063809
O   O14       1.0  0.75749  0.95274  0.41193  1.0000 -0.5707063809
O   O15       1.0  0.75749  0.54726  0.91193  1.0000 -0.5707063809
O   O16       1.0  0.24251  0.04726  0.58807  1.0000 -0.5707063809
O   O17       1.0  0.26851  0.44013  0.18805  1.0000 -0.5385488294
O   O18       1.0  0.73149  0.94013  0.31195  1.0000 -0.5385488294
O   O19       1.0  0.73149  0.55987  0.81195  1.0000 -0.5385488294
O   O20       1.0  0.26851  0.05987  0.68805  1.0000 -0.5385488294
O   O21       1.0  0.40657  0.60077  0.00331  1.0000 -0.2005780773
O   O22       1.0  0.59343  0.10077  0.49669  1.0000 -0.2080357882
O   O23       1.0  0.59343  0.39923  0.99669  1.0000 -0.2005780773
O   O24       1.0  0.40657  0.89923  0.50331  1.0000 -0.2080357882
O   O25       1.0  0.33698  0.63729  0.08068  1.0000 -0.2080357882
O   O26       1.0  0.66302  0.13729  0.41932  1.0000 -0.2080357882
O   O27       1.0  0.66302  0.36271  0.91932  1.0000 -0.2080357882
O   O28       1.0  0.33698  0.86271  0.58068  1.0000 -0.2080357882
O   O29       1.0  0.99980  0.88560  0.69780  1.0000 -0.1923898816
O   O30       1.0  0.00020  0.38560  0.80220  1.0000 -0.1923898816
O   O31       1.0  0.00020  0.11440  0.30220  1.0000 -0.1923898816
O   O32       1.0  0.99980  0.61440  0.19780  1.0000 -0.1923898816
O   O33       1.0  0.97168  0.07248  0.55504  1.0000 -0.5707063809
O   O34       1.0  0.02832  0.57248  0.94496  1.0000 -0.5707063809
O   O35       1.0  0.02832  0.92752  0.44496  1.0000 -0.5707063809
O   O36       1.0  0.97168  0.42752  0.05504  1.0000 -0.5707063809
O   O37       1.0  0.94257  0.07852  0.64835  1.0000 -0.5508799321
O   O38       1.0  0.05743  0.57852  0.85165  1.0000 -0.5508799321
O   O39       1.0  0.05743  0.92148  0.35165  1.0000 -0.5508799321
O   O40       1.0  0.94257  0.42148  0.14835  1.0000 -0.5508799321
O   O41       1.0  0.44632  0.78607  0.97248  1.0000 -0.5773136861
O   O42       1.0  0.55368  0.28607  0.52752  1.0000 -0.5773136861
O   O43       1.0  0.55368  0.21393  0.02752  1.0000 -0.5773136861
O   O44       1.0  0.44632  0.71393  0.47248  1.0000 -0.5773136861
O   O45       1.0  0.63539  0.79363  0.95096  1.0000 -0.5226484783
O   O46       1.0  0.36461  0.29363  0.54904  1.0000 -0.5226484783
O   O47       1.0  0.36461  0.20637  0.04904  1.0000 -0.5226484783
O   O48       1.0  0.63539  0.70637  0.45096  1.0000 -0.5226484783
O   O49       1.0  0.27305  0.82342  0.85694  1.0000 -0.5592742435
O   O50       1.0  0.72695  0.32342  0.64306  1.0000 -0.5592742435
O   O51       1.0  0.72695  0.17658  0.14306  1.0000 -0.5592742435
O   O52       1.0  0.27305  0.67658  0.35694  1.0000 -0.5592742435
O   O53       1.0  0.40982  0.82530  0.79947  1.0000 -0.5508799321
O   O54       1.0  0.59018  0.32530  0.70053  1.0000 -0.5508799321
O   O55       1.0  0.59018  0.17470  0.20053  1.0000 -0.5508799321
O   O56       1.0  0.40982  0.67470  0.29947  1.0000 -0.5508799321
O   O57       1.0  0.52042  0.87747  0.91655  1.0000 -0.6744272358
O   O58       1.0  0.47958  0.37747  0.58345  1.0000 -0.6744272358
O   O59       1.0  0.47958  0.12253  0.08345  1.0000 -0.6744272358
O   O60       1.0  0.52042  0.62253  0.41655  1.0000 -0.6744272358
O   O61       1.0  0.68465  0.06101  0.16572  1.0000 -0.5592742435
O   O62       1.0  0.31535  0.56101  0.33428  1.0000 -0.5592742435
O   O63       1.0  0.31535  0.93899  0.83428  1.0000 -0.5592742435
O   O64       1.0  0.68465  0.43899  0.66572  1.0000 -0.5592742435
O   O65       1.0  0.73845  0.08329  0.08125  1.0000 -0.5508799321
O   O66       1.0  0.26155  0.58329  0.41875  1.0000 -0.5508799321
O   O67       1.0  0.26155  0.91671  0.91875  1.0000 -0.5508799321
O   O68       1.0  0.73845  0.41671  0.58125  1.0000 -0.5508799321
O   O69       1.0  0.98796  0.94227  0.03138  1.0000 -0.2301113528
O   O70       1.0  0.01204  0.44227  0.46862  1.0000 -0.2301113528
O   O71       1.0  0.01204  0.05773  0.96862  1.0000 -0.2301113528
O   O72       1.0  0.98796  0.55773  0.53138  1.0000 -0.2301113528
O   O73       1.0  0.43892  0.47012  0.65512  1.0000 -0.5707063809
O   O74       1.0  0.56108  0.97012  0.84488  1.0000 -0.5707063809
O   O75       1.0  0.56108  0.52988  0.34488  1.0000 -0.5707063809
O   O76       1.0  0.43892  0.02988  0.15512  1.0000 -0.5707063809
O   O77       1.0  0.40829  0.46648  0.55394  1.0000 -0.5385488294
O   O78       1.0  0.59171  0.96648  0.94606  1.0000 -0.5385488294
O   O79       1.0  0.59171  0.53352  0.44606  1.0000 -0.5385488294
O   O80       1.0  0.40829  0.03352  0.05394  1.0000 -0.5385488294
O   O81       1.0  0.44505  0.63098  0.77272  1.0000 -0.2005780773
O   O82       1.0  0.55495  0.13098  0.72728  1.0000 -0.2005780773
O   O83       1.0  0.55495  0.36902  0.22728  1.0000 -0.2005780773
O   O84       1.0  0.44505  0.86902  0.27272  1.0000 -0.2005780773
O   O85       1.0  0.49108  0.66270  0.68674  1.0000 -0.1923898816
O   O86       1.0  0.50892  0.16270  0.81326  1.0000 -0.1923898816
O   O87       1.0  0.50892  0.33730  0.31326  1.0000 -0.1923898816
O   O88       1.0  0.49108  0.83730  0.18674  1.0000 -0.1923898816
O   O89       1.0  0.88448  0.86849  0.99185  1.0000 -0.1923898816
O   O90       1.0  0.11552  0.36849  0.50815  1.0000 -0.1923898816
O   O91       1.0  0.11552  0.13151  0.00815  1.0000 -0.1923898816
O   O92       1.0  0.88448  0.63151  0.49185  1.0000 -0.1923898816
O   O93       1.0  0.93524  0.73160  0.82224  1.0000 -0.5773136861
O   O94       1.0  0.06476  0.23160  0.67776  1.0000 -0.5773136861
O   O95       1.0  0.06476  0.26840  0.17776  1.0000 -0.5773136861
O   O96       1.0  0.93524  0.76840  0.32224  1.0000 -0.5773136861
O   O97       1.0  0.74002  0.72385  0.83743  1.0000 -0.5508799321
O   O98       1.0  0.25998  0.22385  0.66257  1.0000 -0.5508799321
O   O99       1.0  0.25998  0.27615  0.16257  1.0000 -0.5508799321
O   O100      1.0  0.74002  0.77615  0.33743  1.0000 -0.5508799321
O   O101      1.0  0.94187  0.92110  0.77912  1.0000 -0.2080357882
O   O102      1.0  0.05813  0.42110  0.72088  1.0000 -0.2080357882
O   O103      1.0  0.05813  0.07890  0.22088  1.0000 -0.2080357882
O   O104      1.0  0.94187  0.57890  0.27912  1.0000 -0.2080357882
