# DDEC6 charges by PACMAN v1.1 (https://github.com/mtap-research/PACMAN-charge/)
data_2013[Zr][reo]3[ASR]3
_chemical_formula_sum              "Zr36 H48 C144 S24 O144"
_cell_length_a       27.662
_cell_length_b       27.662
_cell_length_c       27.662
_cell_angle_alpha    60
_cell_angle_beta     60
_cell_angle_gamma    60

_symmetry_space_group_name_H-M    "P 1"
_symmetry_Int_Tables_number       1

loop_
  _symmetry_equiv_pos_as_xyz
  'x, y, z'

loop_
  _atom_site_type_symbol
  _atom_site_label
  _atom_site_symmetry_multiplicity
  _atom_site_fract_x
  _atom_site_fract_y
  _atom_site_fract_z
  _atom_site_occupancy
  _atom_site_charge
Zr  Zr1       1.0  0.10897  0.98153  0.45475  1.0000 2.4367525773
Zr  Zr2       1.0  0.98153  0.10897  0.45475  1.0000 2.4367525773
Zr  Zr3       1.0  0.45475  0.45475  0.10897  1.0000 2.4322882915
Zr  Zr4       1.0  0.45475  0.45475  0.98153  1.0000 2.4322882915
Zr  Zr5       1.0  0.45475  0.10897  0.98153  1.0000 2.4367525773
Zr  Zr6       1.0  0.45475  0.98153  0.10897  1.0000 2.4322882915
Zr  Zr7       1.0  0.10897  0.45475  0.45475  1.0000 2.4367525773
Zr  Zr8       1.0  0.98153  0.45475  0.45475  1.0000 2.4367525773
Zr  Zr9       1.0  0.98153  0.45475  0.10897  1.0000 2.4322882915
Zr  Zr10      1.0  0.10897  0.45475  0.98153  1.0000 2.4322882915
Zr  Zr11      1.0  0.45475  0.10897  0.45475  1.0000 2.4322882915
Zr  Zr12      1.0  0.45475  0.98153  0.45475  1.0000 2.4322882915
Zr  Zr13      1.0  0.89103  0.01847  0.54525  1.0000 2.4367525773
Zr  Zr14      1.0  0.01847  0.89103  0.54525  1.0000 2.4322882915
Zr  Zr15      1.0  0.54525  0.54525  0.01847  1.0000 2.4322882915
Zr  Zr16      1.0  0.54525  0.54525  0.89103  1.0000 2.4322882915
Zr  Zr17      1.0  0.54525  0.89103  0.54525  1.0000 2.4367525773
Zr  Zr18      1.0  0.54525  0.01847  0.54525  1.0000 2.4367525773
Zr  Zr19      1.0  0.89103  0.54525  0.01847  1.0000 2.4322882915
Zr  Zr20      1.0  0.01847  0.54525  0.89103  1.0000 2.4322882915
Zr  Zr21      1.0  0.01847  0.54525  0.54525  1.0000 2.4367525773
Zr  Zr22      1.0  0.89103  0.54525  0.54525  1.0000 2.4367525773
Zr  Zr23      1.0  0.54525  0.89103  0.01847  1.0000 2.4322882915
Zr  Zr24      1.0  0.54525  0.01847  0.89103  1.0000 2.4322882915
Zr  Zr25      1.0  0.00000  0.00000  0.41088  1.0000 2.3205340302
Zr  Zr26      1.0  0.00000  0.00000  0.58912  1.0000 2.3205340302
Zr  Zr27      1.0  0.41088  0.58912  0.00000  1.0000 2.3205340302
Zr  Zr28      1.0  0.58912  0.41088  0.00000  1.0000 2.3205340302
Zr  Zr29      1.0  0.41088  0.00000  0.00000  1.0000 2.3205340302
Zr  Zr30      1.0  0.58912  0.00000  0.00000  1.0000 2.3205340302
Zr  Zr31      1.0  0.00000  0.41088  0.58912  1.0000 2.3205340302
Zr  Zr32      1.0  0.00000  0.58912  0.41088  1.0000 2.3205340302
Zr  Zr33      1.0  0.00000  0.41088  0.00000  1.0000 2.3205340302
Zr  Zr34      1.0  0.00000  0.58912  0.00000  1.0000 2.3205340302
Zr  Zr35      1.0  0.58912  0.00000  0.41088  1.0000 2.3205340302
Zr  Zr36      1.0  0.41088  0.00000  0.58912  1.0000 2.3205340302
H   H1        1.0  0.99210  0.13210  0.21990  1.0000 0.1217982343
H   H2        1.0  0.13210  0.99210  0.65590  1.0000 0.1217982343
H   H3        1.0  0.21990  0.65590  0.99210  1.0000 0.1217982343
H   H4        1.0  0.65590  0.21990  0.13210  1.0000 0.1217982343
H   H5        1.0  0.21990  0.99210  0.13210  1.0000 0.1217982343
H   H6        1.0  0.65590  0.13210  0.99210  1.0000 0.1217982343
H   H7        1.0  0.99210  0.21990  0.65590  1.0000 0.1217982343
H   H8        1.0  0.13210  0.65590  0.21990  1.0000 0.1217982343
H   H9        1.0  0.13210  0.21990  0.99210  1.0000 0.1217982343
H   H10       1.0  0.99210  0.65590  0.13210  1.0000 0.1217982343
H   H11       1.0  0.65590  0.99210  0.21990  1.0000 0.1217982343
H   H12       1.0  0.21990  0.13210  0.65590  1.0000 0.1217982343
H   H13       1.0  0.00790  0.86790  0.34410  1.0000 0.1217982343
H   H14       1.0  0.86790  0.00790  0.78010  1.0000 0.1217982343
H   H15       1.0  0.78010  0.34410  0.86790  1.0000 0.1217982343
H   H16       1.0  0.34410  0.78010  0.00790  1.0000 0.1217982343
H   H17       1.0  0.78010  0.00790  0.34410  1.0000 0.1217982343
H   H18       1.0  0.34410  0.86790  0.78010  1.0000 0.1217982343
H   H19       1.0  0.00790  0.78010  0.86790  1.0000 0.1217982343
H   H20       1.0  0.86790  0.34410  0.00790  1.0000 0.1217982343
H   H21       1.0  0.86790  0.78010  0.34410  1.0000 0.1217982343
H   H22       1.0  0.00790  0.34410  0.78010  1.0000 0.1217982343
H   H23       1.0  0.34410  0.00790  0.86790  1.0000 0.1217982343
H   H24       1.0  0.78010  0.86790  0.00790  1.0000 0.1217982343
H   H25       1.0  0.00790  0.86790  0.78010  1.0000 0.1217982343
H   H26       1.0  0.86790  0.00790  0.34410  1.0000 0.1217982343
H   H27       1.0  0.78010  0.34410  0.00790  1.0000 0.1217982343
H   H28       1.0  0.34410  0.78010  0.86790  1.0000 0.1217982343
H   H29       1.0  0.78010  0.00790  0.86790  1.0000 0.1217982343
H   H30       1.0  0.34410  0.86790  0.00790  1.0000 0.1217982343
H   H31       1.0  0.00790  0.78010  0.34410  1.0000 0.1217982343
H   H32       1.0  0.86790  0.34410  0.78010  1.0000 0.1217982343
H   H33       1.0  0.86790  0.78010  0.00790  1.0000 0.1217982343
H   H34       1.0  0.00790  0.34410  0.86790  1.0000 0.1217982343
H   H35       1.0  0.34410  0.00790  0.78010  1.0000 0.1217982343
H   H36       1.0  0.78010  0.86790  0.34410  1.0000 0.1217982343
H   H37       1.0  0.99210  0.13210  0.65590  1.0000 0.1217982343
H   H38       1.0  0.13210  0.99210  0.21990  1.0000 0.1217982343
H   H39       1.0  0.21990  0.65590  0.13210  1.0000 0.1217982343
H   H40       1.0  0.65590  0.21990  0.99210  1.0000 0.1217982343
H   H41       1.0  0.21990  0.99210  0.65590  1.0000 0.1217982343
H   H42       1.0  0.65590  0.13210  0.21990  1.0000 0.1217982343
H   H43       1.0  0.99210  0.21990  0.13210  1.0000 0.1217982343
H   H44       1.0  0.13210  0.65590  0.99210  1.0000 0.1217982343
H   H45       1.0  0.13210  0.21990  0.65590  1.0000 0.1217982343
H   H46       1.0  0.99210  0.65590  0.21990  1.0000 0.1217982343
H   H47       1.0  0.65590  0.99210  0.13210  1.0000 0.1217982343
H   H48       1.0  0.21990  0.13210  0.99210  1.0000 0.1217982343
C   C1        1.0  0.97979  0.13441  0.32625  1.0000 0.645105441
C   C2        1.0  0.13441  0.97979  0.55955  1.0000 0.6427835513
C   C3        1.0  0.32625  0.55955  0.97979  1.0000 0.6427835513
C   C4        1.0  0.55955  0.32625  0.13441  1.0000 0.6427835513
C   C5        1.0  0.32625  0.97979  0.13441  1.0000 0.6427835513
C   C6        1.0  0.55955  0.13441  0.97979  1.0000 0.6427835513
C   C7        1.0  0.97979  0.32625  0.55955  1.0000 0.6427835513
C   C8        1.0  0.13441  0.55955  0.32625  1.0000 0.6427835513
C   C9        1.0  0.13441  0.32625  0.97979  1.0000 0.6427835513
C   C10       1.0  0.97979  0.55955  0.13441  1.0000 0.6427835513
C   C11       1.0  0.55955  0.97979  0.32625  1.0000 0.645105441
C   C12       1.0  0.32625  0.13441  0.55955  1.0000 0.6427835513
C   C13       1.0  0.02021  0.86559  0.44045  1.0000 0.6427835513
C   C14       1.0  0.86559  0.02021  0.67375  1.0000 0.6427835513
C   C15       1.0  0.67375  0.44045  0.86559  1.0000 0.6427835513
C   C16       1.0  0.44045  0.67375  0.02021  1.0000 0.6427835513
C   C17       1.0  0.67375  0.02021  0.44045  1.0000 0.6427835513
C   C18       1.0  0.44045  0.86559  0.67375  1.0000 0.6427835513
C   C19       1.0  0.02021  0.67375  0.86559  1.0000 0.6427835513
C   C20       1.0  0.86559  0.44045  0.02021  1.0000 0.6427835513
C   C21       1.0  0.86559  0.67375  0.44045  1.0000 0.6427835513
C   C22       1.0  0.02021  0.44045  0.67375  1.0000 0.6427835513
C   C23       1.0  0.44045  0.02021  0.86559  1.0000 0.6427835513
C   C24       1.0  0.67375  0.86559  0.02021  1.0000 0.6427835513
C   C25       1.0  0.02021  0.86559  0.67375  1.0000 0.6427835513
C   C26       1.0  0.86559  0.02021  0.44045  1.0000 0.6427835513
C   C27       1.0  0.67375  0.44045  0.02021  1.0000 0.6427835513
C   C28       1.0  0.44045  0.67375  0.86559  1.0000 0.6427835513
C   C29       1.0  0.67375  0.02021  0.86559  1.0000 0.6427835513
C   C30       1.0  0.44045  0.86559  0.02021  1.0000 0.6427835513
C   C31       1.0  0.02021  0.67375  0.44045  1.0000 0.6427835513
C   C32       1.0  0.86559  0.44045  0.67375  1.0000 0.6427835513
C   C33       1.0  0.86559  0.67375  0.02021  1.0000 0.645105441
C   C34       1.0  0.02021  0.44045  0.86559  1.0000 0.6427835513
C   C35       1.0  0.44045  0.02021  0.67375  1.0000 0.6427835513
C   C36       1.0  0.67375  0.86559  0.44045  1.0000 0.6427835513
C   C37       1.0  0.97979  0.13441  0.55955  1.0000 0.6427835513
C   C38       1.0  0.13441  0.97979  0.32625  1.0000 0.6427835513
C   C39       1.0  0.32625  0.55955  0.13441  1.0000 0.6427835513
C   C40       1.0  0.55955  0.32625  0.97979  1.0000 0.6427835513
C   C41       1.0  0.32625  0.97979  0.55955  1.0000 0.6427835513
C   C42       1.0  0.55955  0.13441  0.32625  1.0000 0.6427835513
C   C43       1.0  0.97979  0.32625  0.13441  1.0000 0.6427835513
C   C44       1.0  0.13441  0.55955  0.97979  1.0000 0.6427835513
C   C45       1.0  0.13441  0.32625  0.55955  1.0000 0.6427835513
C   C46       1.0  0.97979  0.55955  0.32625  1.0000 0.6427835513
C   C47       1.0  0.55955  0.97979  0.13441  1.0000 0.6427835513
C   C48       1.0  0.32625  0.13441  0.97979  1.0000 0.6427835513
C   C49       1.0  0.97990  0.17770  0.26642  1.0000 -0.1638994022
C   C50       1.0  0.17770  0.97990  0.57598  1.0000 -0.1661557118
C   C51       1.0  0.26642  0.57598  0.97990  1.0000 -0.1638994022
C   C52       1.0  0.57598  0.26642  0.17770  1.0000 -0.1638994022
C   C53       1.0  0.26642  0.97990  0.17770  1.0000 -0.1661557118
C   C54       1.0  0.57598  0.17770  0.97990  1.0000 -0.1638994022
C   C55       1.0  0.97990  0.26642  0.57598  1.0000 -0.1638994022
C   C56       1.0  0.17770  0.57598  0.26642  1.0000 -0.1661557118
C   C57       1.0  0.17770  0.26642  0.97990  1.0000 -0.1638994022
C   C58       1.0  0.97990  0.57598  0.17770  1.0000 -0.1661557118
C   C59       1.0  0.57598  0.97990  0.26642  1.0000 -0.1661557118
C   C60       1.0  0.26642  0.17770  0.57598  1.0000 -0.1638994022
C   C61       1.0  0.02010  0.82230  0.42402  1.0000 -0.1638994022
C   C62       1.0  0.82230  0.02010  0.73358  1.0000 -0.1638994022
C   C63       1.0  0.73358  0.42402  0.82230  1.0000 -0.1638994022
C   C64       1.0  0.42402  0.73358  0.02010  1.0000 -0.1638994022
C   C65       1.0  0.73358  0.02010  0.42402  1.0000 -0.1638994022
C   C66       1.0  0.42402  0.82230  0.73358  1.0000 -0.1638994022
C   C67       1.0  0.02010  0.73358  0.82230  1.0000 -0.1638994022
C   C68       1.0  0.82230  0.42402  0.02010  1.0000 -0.1638994022
C   C69       1.0  0.82230  0.73358  0.42402  1.0000 -0.1638994022
C   C70       1.0  0.02010  0.42402  0.73358  1.0000 -0.1638994022
C   C71       1.0  0.42402  0.02010  0.82230  1.0000 -0.1638994022
C   C72       1.0  0.73358  0.82230  0.02010  1.0000 -0.1638994022
C   C73       1.0  0.02010  0.82230  0.73358  1.0000 -0.1638994022
C   C74       1.0  0.82230  0.02010  0.42402  1.0000 -0.1638994022
C   C75       1.0  0.73358  0.42402  0.02010  1.0000 -0.1638994022
C   C76       1.0  0.42402  0.73358  0.82230  1.0000 -0.1638994022
C   C77       1.0  0.73358  0.02010  0.82230  1.0000 -0.1638994022
C   C78       1.0  0.42402  0.82230  0.02010  1.0000 -0.1638994022
C   C79       1.0  0.02010  0.73358  0.42402  1.0000 -0.1638994022
C   C80       1.0  0.82230  0.42402  0.73358  1.0000 -0.1638994022
C   C81       1.0  0.82230  0.73358  0.02010  1.0000 -0.1638994022
C   C82       1.0  0.02010  0.42402  0.82230  1.0000 -0.1638994022
C   C83       1.0  0.42402  0.02010  0.73358  1.0000 -0.1638994022
C   C84       1.0  0.73358  0.82230  0.42402  1.0000 -0.1638994022
C   C85       1.0  0.97990  0.17770  0.57598  1.0000 -0.1638994022
C   C86       1.0  0.17770  0.97990  0.26642  1.0000 -0.1661557118
C   C87       1.0  0.26642  0.57598  0.17770  1.0000 -0.1638994022
C   C88       1.0  0.57598  0.26642  0.97990  1.0000 -0.1638994022
C   C89       1.0  0.26642  0.97990  0.57598  1.0000 -0.1638994022
C   C90       1.0  0.57598  0.17770  0.26642  1.0000 -0.1638994022
C   C91       1.0  0.97990  0.26642  0.17770  1.0000 -0.1638994022
C   C92       1.0  0.17770  0.57598  0.97990  1.0000 -0.1638994022
C   C93       1.0  0.17770  0.26642  0.57598  1.0000 -0.1638994022
C   C94       1.0  0.97990  0.57598  0.26642  1.0000 -0.1661557118
C   C95       1.0  0.57598  0.97990  0.17770  1.0000 -0.1661557118
C   C96       1.0  0.26642  0.17770  0.97990  1.0000 -0.1638994022
C   C97       1.0  0.98741  0.16839  0.21881  1.0000 -0.1163117701
C   C98       1.0  0.16839  0.98741  0.62539  1.0000 -0.1146613191
C   C99       1.0  0.21881  0.62539  0.98741  1.0000 -0.1163117701
C   C100      1.0  0.62539  0.21881  0.16839  1.0000 -0.1146613191
C   C101      1.0  0.21881  0.98741  0.16839  1.0000 -0.1146613191
C   C102      1.0  0.62539  0.16839  0.98741  1.0000 -0.1163117701
C   C103      1.0  0.98741  0.21881  0.62539  1.0000 -0.1146613191
C   C104      1.0  0.16839  0.62539  0.21881  1.0000 -0.1163117701
C   C105      1.0  0.16839  0.21881  0.98741  1.0000 -0.1163117701
C   C106      1.0  0.98741  0.62539  0.16839  1.0000 -0.1146613191
C   C107      1.0  0.62539  0.98741  0.21881  1.0000 -0.1146613191
C   C108      1.0  0.21881  0.16839  0.62539  1.0000 -0.1146613191
C   C109      1.0  0.01259  0.83161  0.37461  1.0000 -0.1163117701
C   C110      1.0  0.83161  0.01259  0.78119  1.0000 -0.1163117701
C   C111      1.0  0.78119  0.37461  0.83161  1.0000 -0.1163117701
C   C112      1.0  0.37461  0.78119  0.01259  1.0000 -0.1163117701
C   C113      1.0  0.78119  0.01259  0.37461  1.0000 -0.1163117701
C   C114      1.0  0.37461  0.83161  0.78119  1.0000 -0.1163117701
C   C115      1.0  0.01259  0.78119  0.83161  1.0000 -0.1163117701
C   C116      1.0  0.83161  0.37461  0.01259  1.0000 -0.1146613191
C   C117      1.0  0.83161  0.78119  0.37461  1.0000 -0.1146613191
C   C118      1.0  0.01259  0.37461  0.78119  1.0000 -0.1146613191
C   C119      1.0  0.37461  0.01259  0.83161  1.0000 -0.1163117701
C   C120      1.0  0.78119  0.83161  0.01259  1.0000 -0.1146613191
C   C121      1.0  0.01259  0.83161  0.78119  1.0000 -0.1163117701
C   C122      1.0  0.83161  0.01259  0.37461  1.0000 -0.1163117701
C   C123      1.0  0.78119  0.37461  0.01259  1.0000 -0.1146613191
C   C124      1.0  0.37461  0.78119  0.83161  1.0000 -0.1163117701
C   C125      1.0  0.78119  0.01259  0.83161  1.0000 -0.1163117701
C   C126      1.0  0.37461  0.83161  0.01259  1.0000 -0.1163117701
C   C127      1.0  0.01259  0.78119  0.37461  1.0000 -0.1163117701
C   C128      1.0  0.83161  0.37461  0.78119  1.0000 -0.1146613191
C   C129      1.0  0.83161  0.78119  0.01259  1.0000 -0.1146613191
C   C130      1.0  0.01259  0.37461  0.83161  1.0000 -0.1163117701
C   C131      1.0  0.37461  0.01259  0.78119  1.0000 -0.1163117701
C   C132      1.0  0.78119  0.83161  0.37461  1.0000 -0.1163117701
C   C133      1.0  0.98741  0.16839  0.62539  1.0000 -0.1146613191
C   C134      1.0  0.16839  0.98741  0.21881  1.0000 -0.1146613191
C   C135      1.0  0.21881  0.62539  0.16839  1.0000 -0.1146613191
C   C136      1.0  0.62539  0.21881  0.98741  1.0000 -0.1163117701
C   C137      1.0  0.21881  0.98741  0.62539  1.0000 -0.1163117701
C   C138      1.0  0.62539  0.16839  0.21881  1.0000 -0.1163117701
C   C139      1.0  0.98741  0.21881  0.16839  1.0000 -0.1146613191
C   C140      1.0  0.16839  0.62539  0.98741  1.0000 -0.1163117701
C   C141      1.0  0.16839  0.21881  0.62539  1.0000 -0.1146613191
C   C142      1.0  0.98741  0.62539  0.21881  1.0000 -0.1163117701
C   C143      1.0  0.62539  0.98741  0.16839  1.0000 -0.1146613191
C   C144      1.0  0.21881  0.16839  0.98741  1.0000 -0.1163117701
S   S1        1.0  0.97386  0.24878  0.24878  1.0000 0.2130491124
S   S2        1.0  0.24878  0.97386  0.52858  1.0000 0.2130491124
S   S3        1.0  0.24878  0.52858  0.97386  1.0000 0.19713797
S   S4        1.0  0.52858  0.24878  0.24878  1.0000 0.2130491124
S   S5        1.0  0.24878  0.97386  0.24878  1.0000 0.2154989736
S   S6        1.0  0.52858  0.24878  0.97386  1.0000 0.19713797
S   S7        1.0  0.97386  0.24878  0.52858  1.0000 0.2130491124
S   S8        1.0  0.24878  0.52858  0.24878  1.0000 0.2130491124
S   S9        1.0  0.24878  0.24878  0.97386  1.0000 0.1932140485
S   S10       1.0  0.97386  0.52858  0.24878  1.0000 0.2130491124
S   S11       1.0  0.52858  0.97386  0.24878  1.0000 0.2154989736
S   S12       1.0  0.24878  0.24878  0.52858  1.0000 0.2130491124
S   S13       1.0  0.02614  0.75122  0.47142  1.0000 0.19713797
S   S14       1.0  0.75122  0.02614  0.75122  1.0000 0.19713797
S   S15       1.0  0.75122  0.47142  0.75122  1.0000 0.19713797
S   S16       1.0  0.47142  0.75122  0.02614  1.0000 0.19713797
S   S17       1.0  0.75122  0.02614  0.47142  1.0000 0.2130491124
S   S18       1.0  0.47142  0.75122  0.75122  1.0000 0.19713797
S   S19       1.0  0.02614  0.75122  0.75122  1.0000 0.19713797
S   S20       1.0  0.75122  0.47142  0.02614  1.0000 0.2130491124
S   S21       1.0  0.75122  0.75122  0.47142  1.0000 0.19713797
S   S22       1.0  0.02614  0.47142  0.75122  1.0000 0.19713797
S   S23       1.0  0.47142  0.02614  0.75122  1.0000 0.19713797
S   S24       1.0  0.75122  0.75122  0.02614  1.0000 0.2130491124
O   O1        1.0  0.98573  0.08271  0.33529  1.0000 -0.5840506538
O   O2        1.0  0.08271  0.98573  0.59627  1.0000 -0.5861004418
O   O3        1.0  0.33529  0.59627  0.98573  1.0000 -0.5840506538
O   O4        1.0  0.59627  0.33529  0.08271  1.0000 -0.5840506538
O   O5        1.0  0.33529  0.98573  0.08271  1.0000 -0.5840506538
O   O6        1.0  0.59627  0.08271  0.98573  1.0000 -0.5840506538
O   O7        1.0  0.98573  0.33529  0.59627  1.0000 -0.5861004418
O   O8        1.0  0.08271  0.59627  0.33529  1.0000 -0.5861004418
O   O9        1.0  0.08271  0.33529  0.98573  1.0000 -0.5861004418
O   O10       1.0  0.98573  0.59627  0.08271  1.0000 -0.5840506538
O   O11       1.0  0.59627  0.98573  0.33529  1.0000 -0.5840506538
O   O12       1.0  0.33529  0.08271  0.59627  1.0000 -0.5861004418
O   O13       1.0  0.01427  0.91729  0.40373  1.0000 -0.5861004418
O   O14       1.0  0.91729  0.01427  0.66471  1.0000 -0.5840506538
O   O15       1.0  0.66471  0.40373  0.91729  1.0000 -0.5861004418
O   O16       1.0  0.40373  0.66471  0.01427  1.0000 -0.5840506538
O   O17       1.0  0.66471  0.01427  0.40373  1.0000 -0.5861004418
O   O18       1.0  0.40373  0.91729  0.66471  1.0000 -0.5840506538
O   O19       1.0  0.01427  0.66471  0.91729  1.0000 -0.5861004418
O   O20       1.0  0.91729  0.40373  0.01427  1.0000 -0.5861004418
O   O21       1.0  0.91729  0.66471  0.40373  1.0000 -0.5861004418
O   O22       1.0  0.01427  0.40373  0.66471  1.0000 -0.5840506538
O   O23       1.0  0.40373  0.01427  0.91729  1.0000 -0.5861004418
O   O24       1.0  0.66471  0.91729  0.01427  1.0000 -0.5861004418
O   O25       1.0  0.01427  0.91729  0.66471  1.0000 -0.5861004418
O   O26       1.0  0.91729  0.01427  0.40373  1.0000 -0.5840506538
O   O27       1.0  0.66471  0.40373  0.01427  1.0000 -0.5861004418
O   O28       1.0  0.40373  0.66471  0.91729  1.0000 -0.5861004418
O   O29       1.0  0.66471  0.01427  0.91729  1.0000 -0.5861004418
O   O30       1.0  0.40373  0.91729  0.01427  1.0000 -0.5861004418
O   O31       1.0  0.01427  0.66471  0.40373  1.0000 -0.5861004418
O   O32       1.0  0.91729  0.40373  0.66471  1.0000 -0.5840506538
O   O33       1.0  0.91729  0.66471  0.01427  1.0000 -0.5861004418
O   O34       1.0  0.01427  0.40373  0.91729  1.0000 -0.5861004418
O   O35       1.0  0.40373  0.01427  0.66471  1.0000 -0.5840506538
O   O36       1.0  0.66471  0.91729  0.40373  1.0000 -0.5861004418
O   O37       1.0  0.98573  0.08271  0.59627  1.0000 -0.5840506538
O   O38       1.0  0.08271  0.98573  0.33529  1.0000 -0.5840506538
O   O39       1.0  0.33529  0.59627  0.08271  1.0000 -0.5840506538
O   O40       1.0  0.59627  0.33529  0.98573  1.0000 -0.5840506538
O   O41       1.0  0.33529  0.98573  0.59627  1.0000 -0.5861004418
O   O42       1.0  0.59627  0.08271  0.33529  1.0000 -0.5840506538
O   O43       1.0  0.98573  0.33529  0.08271  1.0000 -0.5861004418
O   O44       1.0  0.08271  0.59627  0.98573  1.0000 -0.5861004418
O   O45       1.0  0.08271  0.33529  0.59627  1.0000 -0.5861004418
O   O46       1.0  0.98573  0.59627  0.33529  1.0000 -0.5861004418
O   O47       1.0  0.59627  0.98573  0.08271  1.0000 -0.5840506538
O   O48       1.0  0.33529  0.08271  0.98573  1.0000 -0.5861004418
O   O49       1.0  0.04480  0.04480  0.41186  1.0000 -1.1859946056
O   O50       1.0  0.04480  0.04480  0.49854  1.0000 -1.1793767317
O   O51       1.0  0.41186  0.49854  0.04480  1.0000 -1.1793767317
O   O52       1.0  0.49854  0.41186  0.04480  1.0000 -1.1793767317
O   O53       1.0  0.41186  0.04480  0.04480  1.0000 -1.1741570218
O   O54       1.0  0.49854  0.04480  0.04480  1.0000 -1.1859946056
O   O55       1.0  0.04480  0.41186  0.49854  1.0000 -1.1793767317
O   O56       1.0  0.04480  0.49854  0.41186  1.0000 -1.1793767317
O   O57       1.0  0.04480  0.41186  0.04480  1.0000 -1.1793767317
O   O58       1.0  0.04480  0.49854  0.04480  1.0000 -1.1859946056
O   O59       1.0  0.49854  0.04480  0.41186  1.0000 -1.1793767317
O   O60       1.0  0.41186  0.04480  0.49854  1.0000 -1.1741570218
O   O61       1.0  0.95520  0.95520  0.50146  1.0000 -1.1793767317
O   O62       1.0  0.95520  0.95520  0.58814  1.0000 -1.1793767317
O   O63       1.0  0.58814  0.50146  0.95520  1.0000 -1.1793767317
O   O64       1.0  0.50146  0.58814  0.95520  1.0000 -1.1793767317
O   O65       1.0  0.58814  0.95520  0.50146  1.0000 -1.1793767317
O   O66       1.0  0.50146  0.95520  0.58814  1.0000 -1.1859946056
O   O67       1.0  0.95520  0.58814  0.95520  1.0000 -1.1793767317
O   O68       1.0  0.95520  0.50146  0.95520  1.0000 -1.1793767317
O   O69       1.0  0.95520  0.58814  0.50146  1.0000 -1.1793767317
O   O70       1.0  0.95520  0.50146  0.58814  1.0000 -1.1793767317
O   O71       1.0  0.50146  0.95520  0.95520  1.0000 -1.1793767317
O   O72       1.0  0.58814  0.95520  0.95520  1.0000 -1.1793767317
O   O73       1.0  0.97534  0.15278  0.36218  1.0000 -0.6215231693
O   O74       1.0  0.15278  0.97534  0.50970  1.0000 -0.6215231693
O   O75       1.0  0.36218  0.50970  0.97534  1.0000 -0.6215231693
O   O76       1.0  0.50970  0.36218  0.15278  1.0000 -0.6215231693
O   O77       1.0  0.36218  0.97534  0.15278  1.0000 -0.6215231693
O   O78       1.0  0.50970  0.15278  0.97534  1.0000 -0.6215231693
O   O79       1.0  0.97534  0.36218  0.50970  1.0000 -0.6215231693
O   O80       1.0  0.15278  0.50970  0.36218  1.0000 -0.6215231693
O   O81       1.0  0.15278  0.36218  0.97534  1.0000 -0.6215231693
O   O82       1.0  0.97534  0.50970  0.15278  1.0000 -0.6215231693
O   O83       1.0  0.50970  0.97534  0.36218  1.0000 -0.6215231693
O   O84       1.0  0.36218  0.15278  0.50970  1.0000 -0.6215231693
O   O85       1.0  0.02466  0.84722  0.49030  1.0000 -0.6215231693
O   O86       1.0  0.84722  0.02466  0.63782  1.0000 -0.6215231693
O   O87       1.0  0.63782  0.49030  0.84722  1.0000 -0.6215231693
O   O88       1.0  0.49030  0.63782  0.02466  1.0000 -0.6215231693
O   O89       1.0  0.63782  0.02466  0.49030  1.0000 -0.6215231693
O   O90       1.0  0.49030  0.84722  0.63782  1.0000 -0.6215231693
O   O91       1.0  0.02466  0.63782  0.84722  1.0000 -0.6215231693
O   O92       1.0  0.84722  0.49030  0.02466  1.0000 -0.6215231693
O   O93       1.0  0.84722  0.63782  0.49030  1.0000 -0.6215231693
O   O94       1.0  0.02466  0.49030  0.63782  1.0000 -0.6215231693
O   O95       1.0  0.49030  0.02466  0.84722  1.0000 -0.6215231693
O   O96       1.0  0.63782  0.84722  0.02466  1.0000 -0.6253298326
O   O97       1.0  0.02466  0.84722  0.63782  1.0000 -0.6215231693
O   O98       1.0  0.84722  0.02466  0.49030  1.0000 -0.6215231693
O   O99       1.0  0.63782  0.49030  0.02466  1.0000 -0.6215231693
O   O100      1.0  0.49030  0.63782  0.84722  1.0000 -0.6215231693
O   O101      1.0  0.63782  0.02466  0.84722  1.0000 -0.6215231693
O   O102      1.0  0.49030  0.84722  0.02466  1.0000 -0.6215231693
O   O103      1.0  0.02466  0.63782  0.49030  1.0000 -0.6215231693
O   O104      1.0  0.84722  0.49030  0.63782  1.0000 -0.6215231693
O   O105      1.0  0.84722  0.63782  0.02466  1.0000 -0.6215231693
O   O106      1.0  0.02466  0.49030  0.84722  1.0000 -0.6215231693
O   O107      1.0  0.49030  0.02466  0.63782  1.0000 -0.6215231693
O   O108      1.0  0.63782  0.84722  0.49030  1.0000 -0.6215231693
O   O109      1.0  0.97534  0.15278  0.50970  1.0000 -0.6215231693
O   O110      1.0  0.15278  0.97534  0.36218  1.0000 -0.6215231693
O   O111      1.0  0.36218  0.50970  0.15278  1.0000 -0.6215231693
O   O112      1.0  0.50970  0.36218  0.97534  1.0000 -0.6215231693
O   O113      1.0  0.36218  0.97534  0.50970  1.0000 -0.6215231693
O   O114      1.0  0.50970  0.15278  0.36218  1.0000 -0.6215231693
O   O115      1.0  0.97534  0.36218  0.15278  1.0000 -0.6215231693
O   O116      1.0  0.15278  0.50970  0.97534  1.0000 -0.6215231693
O   O117      1.0  0.15278  0.36218  0.50970  1.0000 -0.6215231693
O   O118      1.0  0.97534  0.50970  0.36218  1.0000 -0.6215231693
O   O119      1.0  0.50970  0.97534  0.15278  1.0000 -0.6215231693
O   O120      1.0  0.36218  0.15278  0.97534  1.0000 -0.6215231693
O   O121      1.0  0.06374  0.93626  0.54346  1.0000 -1.1741570218
O   O122      1.0  0.93626  0.06374  0.45654  1.0000 -1.1741570218
O   O123      1.0  0.54346  0.45654  0.06374  1.0000 -1.1741570218
O   O124      1.0  0.45654  0.54346  0.93626  1.0000 -1.1741570218
O   O125      1.0  0.54346  0.06374  0.93626  1.0000 -1.1741570218
O   O126      1.0  0.45654  0.93626  0.06374  1.0000 -1.1793767317
O   O127      1.0  0.06374  0.54346  0.45654  1.0000 -1.1741570218
O   O128      1.0  0.93626  0.45654  0.54346  1.0000 -1.1741570218
O   O129      1.0  0.93626  0.54346  0.06374  1.0000 -1.1741570218
O   O130      1.0  0.06374  0.45654  0.93626  1.0000 -1.1793767317
O   O131      1.0  0.45654  0.06374  0.54346  1.0000 -1.1741570218
O   O132      1.0  0.54346  0.93626  0.45654  1.0000 -1.1741570218
O   O133      1.0  0.93626  0.06374  0.54346  1.0000 -1.1741570218
O   O134      1.0  0.06374  0.93626  0.45654  1.0000 -1.1741570218
O   O135      1.0  0.45654  0.54346  0.06374  1.0000 -1.1793767317
O   O136      1.0  0.54346  0.45654  0.93626  1.0000 -1.1741570218
O   O137      1.0  0.45654  0.93626  0.54346  1.0000 -1.1741570218
O   O138      1.0  0.54346  0.06374  0.45654  1.0000 -1.1741570218
O   O139      1.0  0.93626  0.45654  0.06374  1.0000 -1.1793767317
O   O140      1.0  0.06374  0.54346  0.93626  1.0000 -1.1793767317
O   O141      1.0  0.06374  0.45654  0.54346  1.0000 -1.1741570218
O   O142      1.0  0.93626  0.54346  0.45654  1.0000 -1.1741570218
O   O143      1.0  0.54346  0.93626  0.06374  1.0000 -1.1741570218
O   O144      1.0  0.45654  0.06374  0.93626  1.0000 -1.1793767317
