# DDEC6 charges by PACMAN v1.1 (https://github.com/mtap-research/PACMAN-charge/)
data_2013[Cu][nan]3[ASR]6
_chemical_formula_sum              "Cu8 H28 C40 N20 O28"
_cell_length_a       16.0324
_cell_length_b       6.3798
_cell_length_c       15.1705
_cell_angle_alpha    90
_cell_angle_beta     90
_cell_angle_gamma    90

_symmetry_space_group_name_H-M    "P 1"
_symmetry_Int_Tables_number       1

loop_
  _symmetry_equiv_pos_as_xyz
  'x, y, z'

loop_
  _atom_site_type_symbol
  _atom_site_label
  _atom_site_symmetry_multiplicity
  _atom_site_fract_x
  _atom_site_fract_y
  _atom_site_fract_z
  _atom_site_occupancy
  _atom_site_charge
Cu  Cu1       1.0  0.36633  0.25036  0.16528  1.0000 0.7852491326
Cu  Cu2       1.0  0.13367  0.74964  0.66527  1.0000 0.7852491326
Cu  Cu3       1.0  0.63366  0.75036  0.83473  1.0000 0.7852491326
Cu  Cu4       1.0  0.86633  0.24963  0.33472  1.0000 0.7852491326
Cu  Cu5       1.0  0.50000  0.99991  0.99995  1.0000 0.8082713819
Cu  Cu6       1.0  0.00000  0.00009  0.49996  1.0000 0.8082713819
Cu  Cu7       1.0  0.50000  0.49992  0.00004  1.0000 0.8082713819
Cu  Cu8       1.0  0.00000  0.50009  0.50004  1.0000 0.8082713819
H   H1        1.0  0.78379  0.17859  0.77440  1.0000 0.1615202315
H   H2        1.0  0.70495  0.15492  0.69358  1.0000 0.1615202315
H   H3        1.0  0.73836  0.41205  0.72902  1.0000 0.1674523241
H   H4        1.0  0.71621  0.82141  0.27440  1.0000 0.1615202315
H   H5        1.0  0.79505  0.84508  0.19358  1.0000 0.1615202315
H   H6        1.0  0.76163  0.58795  0.22902  1.0000 0.1674523241
H   H7        1.0  0.21621  0.67859  0.22560  1.0000 0.1615202315
H   H8        1.0  0.29505  0.65492  0.30642  1.0000 0.1615202315
H   H9        1.0  0.26164  0.91205  0.27098  1.0000 0.1674523241
H   H10       1.0  0.28379  0.32141  0.72560  1.0000 0.1615202315
H   H11       1.0  0.20495  0.34508  0.80642  1.0000 0.1615202315
H   H12       1.0  0.23836  0.08795  0.77097  1.0000 0.1674523241
H   H13       1.0  0.37593  0.24999  0.99882  1.0000 0.3782488144
H   H14       1.0  0.60979  0.25026  0.31419  1.0000 0.1391270868
H   H15       1.0  0.38871  0.24978  0.47745  1.0000 0.1391270868
H   H16       1.0  0.63492  0.25337  0.59675  1.0000 0.1277998872
H   H17       1.0  0.12407  0.75000  0.49882  1.0000 0.3782488144
H   H18       1.0  0.89021  0.74974  0.81419  1.0000 0.1391270868
H   H19       1.0  0.11129  0.75022  0.97746  1.0000 0.1391270868
H   H20       1.0  0.86508  0.74663  0.09675  1.0000 0.1277998872
H   H21       1.0  0.62407  0.74999  0.00118  1.0000 0.3782488144
H   H22       1.0  0.39021  0.75026  0.68581  1.0000 0.1391270868
H   H23       1.0  0.61129  0.74978  0.52255  1.0000 0.1391270868
H   H24       1.0  0.36508  0.75337  0.40325  1.0000 0.1277998872
H   H25       1.0  0.87593  0.25002  0.50118  1.0000 0.3782488144
H   H26       1.0  0.10979  0.24974  0.18582  1.0000 0.1391270868
H   H27       1.0  0.88871  0.25022  0.02254  1.0000 0.1391270868
H   H28       1.0  0.13492  0.24663  0.90325  1.0000 0.1277998872
C   C1        1.0  0.43830  0.25005  0.30886  1.0000 0.5426275022
C   C2        1.0  0.49417  0.24982  0.38797  1.0000 -0.0323330647
C   C3        1.0  0.58113  0.24989  0.37962  1.0000 -0.0730633103
C   C4        1.0  0.45677  0.24973  0.47181  1.0000 -0.1321629733
C   C5        1.0  0.63197  0.25017  0.45548  1.0000 -0.012900347
C   C6        1.0  0.50802  0.25008  0.54579  1.0000 0.0503333397
C   C7        1.0  0.59517  0.25092  0.53835  1.0000 -0.1211614795
C   C8        1.0  0.72615  0.24989  0.44715  1.0000 0.5725085027
C   C9        1.0  0.06170  0.74995  0.80887  1.0000 0.5426275022
C   C10       1.0  0.00582  0.75018  0.88797  1.0000 -0.0323330647
C   C11       1.0  0.91887  0.75011  0.87962  1.0000 -0.0730633103
C   C12       1.0  0.04323  0.75027  0.97181  1.0000 -0.1321629733
C   C13       1.0  0.86803  0.74983  0.95548  1.0000 -0.012900347
C   C14       1.0  0.99198  0.74992  0.04578  1.0000 0.0503333397
C   C15       1.0  0.90483  0.74908  0.03835  1.0000 -0.1211614795
C   C16       1.0  0.77385  0.75011  0.94715  1.0000 0.5725085027
C   C17       1.0  0.56170  0.75005  0.69113  1.0000 0.5426275022
C   C18       1.0  0.50582  0.74982  0.61203  1.0000 -0.0323330647
C   C19       1.0  0.41887  0.74989  0.62038  1.0000 -0.0730633103
C   C20       1.0  0.54323  0.74973  0.52819  1.0000 -0.1321629733
C   C21       1.0  0.36803  0.75017  0.54452  1.0000 -0.012900347
C   C22       1.0  0.49198  0.75008  0.45421  1.0000 0.0503333397
C   C23       1.0  0.40483  0.75092  0.46165  1.0000 -0.1211614795
C   C24       1.0  0.27386  0.74989  0.55286  1.0000 0.5725085027
C   C25       1.0  0.93830  0.24995  0.19113  1.0000 0.5426275022
C   C26       1.0  0.99418  0.25018  0.11203  1.0000 -0.0323330647
C   C27       1.0  0.08113  0.25011  0.12038  1.0000 -0.0730633103
C   C28       1.0  0.95677  0.25027  0.02819  1.0000 -0.1321629733
C   C29       1.0  0.13198  0.24983  0.04452  1.0000 -0.012900347
C   C30       1.0  0.00802  0.24992  0.95421  1.0000 0.0503333397
C   C31       1.0  0.09517  0.24908  0.96166  1.0000 -0.1211614795
C   C32       1.0  0.22614  0.25011  0.05286  1.0000 0.5725085027
C   C33       1.0  0.33871  0.74995  0.17912  1.0000 0.4095154963
C   C34       1.0  0.27469  0.75012  0.24955  1.0000 -0.4679227286
C   C35       1.0  0.16129  0.25005  0.67913  1.0000 0.4095154963
C   C36       1.0  0.22532  0.24989  0.74955  1.0000 -0.4679227286
C   C37       1.0  0.66129  0.24995  0.82087  1.0000 0.4095154963
C   C38       1.0  0.72532  0.25012  0.75045  1.0000 -0.4679227286
C   C39       1.0  0.83871  0.75005  0.32088  1.0000 0.4095154963
C   C40       1.0  0.77468  0.74988  0.25045  1.0000 -0.4679227286
N   N1        1.0  0.37283  0.92406  0.14191  1.0000 -0.241852399
N   N2        1.0  0.42801  0.85343  0.08241  1.0000 -0.0323330647
N   N3        1.0  0.12717  0.07592  0.64190  1.0000 -0.2450323962
N   N4        1.0  0.07199  0.14657  0.58241  1.0000 -0.0323330647
N   N5        1.0  0.62717  0.42408  0.85810  1.0000 -0.2450323962
N   N6        1.0  0.57199  0.35343  0.91759  1.0000 -0.0323330647
N   N7        1.0  0.87283  0.57592  0.35810  1.0000 -0.241852399
N   N8        1.0  0.92801  0.64656  0.41759  1.0000 -0.0323330647
N   N9        1.0  0.62707  0.07573  0.85817  1.0000 -0.241852399
N   N10       1.0  0.57197  0.14658  0.91755  1.0000 -0.0323330647
N   N11       1.0  0.87293  0.92426  0.35817  1.0000 -0.241852399
N   N12       1.0  0.92803  0.85342  0.41755  1.0000 -0.0360537395
N   N13       1.0  0.37293  0.57575  0.14183  1.0000 -0.241852399
N   N14       1.0  0.42803  0.64659  0.08244  1.0000 -0.0323330647
N   N15       1.0  0.12707  0.42427  0.64183  1.0000 -0.241852399
N   N16       1.0  0.07197  0.35342  0.58245  1.0000 -0.0323330647
N   N17       1.0  0.46991  0.25014  0.63462  1.0000 0.5042563118
N   N18       1.0  0.03008  0.74986  0.13463  1.0000 0.5042563118
N   N19       1.0  0.53009  0.75014  0.36537  1.0000 0.5042563118
N   N20       1.0  0.96991  0.24986  0.86538  1.0000 0.5042563118
O   O1        1.0  0.47274  0.24942  0.23099  1.0000 -0.5309137318
O   O2        1.0  0.35963  0.25102  0.31792  1.0000 -0.5309137318
O   O3        1.0  0.43845  0.24990  0.01190  1.0000 -0.8219691925
O   O4        1.0  0.75084  0.24966  0.36574  1.0000 -0.5228757226
O   O5        1.0  0.77237  0.24958  0.51473  1.0000 -0.5309137318
O   O6        1.0  0.51760  0.25009  0.70000  1.0000 -0.3097681106
O   O7        1.0  0.39200  0.25000  0.64001  1.0000 -0.3097681106
O   O8        1.0  0.02726  0.75059  0.73099  1.0000 -0.5309137318
O   O9        1.0  0.14037  0.74898  0.81792  1.0000 -0.5309137318
O   O10       1.0  0.06156  0.75010  0.51190  1.0000 -0.8219691925
O   O11       1.0  0.74916  0.75034  0.86574  1.0000 -0.5228757226
O   O12       1.0  0.72763  0.75042  0.01473  1.0000 -0.5309137318
O   O13       1.0  0.98240  0.74991  0.20000  1.0000 -0.3097681106
O   O14       1.0  0.10800  0.75000  0.14000  1.0000 -0.3097681106
O   O15       1.0  0.52725  0.74941  0.76901  1.0000 -0.5309137318
O   O16       1.0  0.64037  0.75102  0.68208  1.0000 -0.5309137318
O   O17       1.0  0.56156  0.74991  0.98809  1.0000 -0.8219691925
O   O18       1.0  0.24916  0.74966  0.63426  1.0000 -0.5228757226
O   O19       1.0  0.22762  0.74958  0.48527  1.0000 -0.5309137318
O   O20       1.0  0.48240  0.75009  0.30000  1.0000 -0.3097681106
O   O21       1.0  0.60800  0.75000  0.35999  1.0000 -0.3097681106
O   O22       1.0  0.97274  0.25058  0.26901  1.0000 -0.5309137318
O   O23       1.0  0.85963  0.24898  0.18208  1.0000 -0.5309137318
O   O24       1.0  0.93845  0.25009  0.48810  1.0000 -0.8219691925
O   O25       1.0  0.25084  0.25034  0.13426  1.0000 -0.5228757226
O   O26       1.0  0.27238  0.25042  0.98526  1.0000 -0.5309137318
O   O27       1.0  0.01760  0.24991  0.80000  1.0000 -0.3097681106
O   O28       1.0  0.89200  0.25000  0.86000  1.0000 -0.3097681106
