# DDEC6 charges by PACMAN v1.1 (https://github.com/mtap-research/PACMAN-charge/)
data_2013[Eu][nan]3[ASR]8
_chemical_formula_sum              "Eu4 H40 C88 O32"
_cell_length_a       10.984
_cell_length_b       16.101
_cell_length_c       19.692
_cell_angle_alpha    74.149
_cell_angle_beta     74.035
_cell_angle_gamma    72.054

_symmetry_space_group_name_H-M    "P 1"
_symmetry_Int_Tables_number       1

loop_
  _symmetry_equiv_pos_as_xyz
  'x, y, z'

loop_
  _atom_site_type_symbol
  _atom_site_label
  _atom_site_symmetry_multiplicity
  _atom_site_fract_x
  _atom_site_fract_y
  _atom_site_fract_z
  _atom_site_occupancy
  _atom_site_charge
Eu  Eu1       1.0  0.39854  0.90186  0.23900  1.0000 2.0568876797
Eu  Eu2       1.0  0.60146  0.09814  0.76100  1.0000 2.0568876797
Eu  Eu3       1.0  0.94380  0.17628  0.22658  1.0000 2.0651506717
Eu  Eu4       1.0  0.05620  0.82372  0.77342  1.0000 2.0651506717
H   H1        1.0  0.23610  0.82770  0.50930  1.0000 0.1508380457
H   H2        1.0  0.76390  0.17230  0.49070  1.0000 0.1508380457
H   H3        1.0  0.04930  0.63600  0.61280  1.0000 0.1215003645
H   H4        1.0  0.95070  0.36400  0.38720  1.0000 0.1215003645
H   H5        1.0  0.19430  0.66260  0.40050  1.0000 0.1215003645
H   H6        1.0  0.80570  0.33740  0.59950  1.0000 0.1215003645
H   H7        1.0  0.01310  0.61920  0.40620  1.0000 0.126757673
H   H8        1.0  0.98690  0.38080  0.59380  1.0000 0.126757673
H   H9        1.0  0.06540  0.49110  0.60260  1.0000 0.126757673
H   H10       1.0  0.93460  0.50890  0.39740  1.0000 0.126757673
H   H11       1.0  0.81050  0.95430  0.25460  1.0000 0.1560967351
H   H12       1.0  0.18950  0.04570  0.74540  1.0000 0.1560967351
H   H13       1.0  0.83050  0.69850  0.26550  1.0000 0.126757673
H   H14       1.0  0.16950  0.30150  0.73450  1.0000 0.126757673
H   H15       1.0  0.15990  0.77250  0.24260  1.0000 0.1380160312
H   H16       1.0  0.84010  0.22750  0.75740  1.0000 0.1380160312
H   H17       1.0  0.95530  0.58170  0.22430  1.0000 0.126757673
H   H18       1.0  0.04470  0.41830  0.77570  1.0000 0.126757673
H   H19       1.0  0.07180  0.43590  0.22880  1.0000 0.1380160312
H   H20       1.0  0.92820  0.56410  0.77120  1.0000 0.1380160312
H   H21       1.0  0.36880  0.48870  0.27250  1.0000 0.126757673
H   H22       1.0  0.63120  0.51130  0.72750  1.0000 0.126757673
H   H23       1.0  0.25560  0.63510  0.26930  1.0000 0.1380160312
H   H24       1.0  0.74440  0.36490  0.73070  1.0000 0.1380160312
H   H25       1.0  0.48680  0.37160  0.23820  1.0000 0.1215003645
H   H26       1.0  0.51320  0.62840  0.76180  1.0000 0.1215003645
H   H27       1.0  0.50510  0.11280  0.26170  1.0000 0.1508380457
H   H28       1.0  0.49490  0.88720  0.73830  1.0000 0.1508380457
H   H29       1.0  0.16160  0.29480  0.26860  1.0000 0.1380160312
H   H30       1.0  0.83840  0.70520  0.73140  1.0000 0.1380160312
H   H31       1.0  0.27700  0.16470  0.99380  1.0000 0.1508380457
H   H32       1.0  0.72300  0.83530  0.00620  1.0000 0.1508380457
H   H33       1.0  0.51990  0.32420  0.90460  1.0000 0.126757673
H   H34       1.0  0.48010  0.67580  0.09540  1.0000 0.126757673
H   H35       1.0  0.25430  0.36300  0.08520  1.0000 0.126757673
H   H36       1.0  0.74570  0.63700  0.91480  1.0000 0.126757673
H   H37       1.0  0.43680  0.40390  0.10540  1.0000 0.1215003645
H   H38       1.0  0.56320  0.59610  0.89460  1.0000 0.1215003645
H   H39       1.0  0.48730  0.47880  0.89090  1.0000 0.126757673
H   H40       1.0  0.51270  0.52120  0.10910  1.0000 0.126757673
C   C1        1.0  0.29760  0.79800  0.37480  1.0000 0.5610964233
C   C2        1.0  0.70240  0.20200  0.62520  1.0000 0.5610964233
C   C3        1.0  0.22770  0.75170  0.44460  1.0000 0.0094779986
C   C4        1.0  0.77230  0.24830  0.55540  1.0000 0.0094779986
C   C5        1.0  0.20690  0.77930  0.50900  1.0000 -0.0833588543
C   C6        1.0  0.79310  0.22070  0.49100  1.0000 -0.0833588543
C   C7        1.0  0.14300  0.73470  0.57230  1.0000 0.0094779986
C   C8        1.0  0.85700  0.26530  0.42770  1.0000 0.0094779986
C   C9        1.0  0.09430  0.66510  0.57030  1.0000 -0.1316525293
C   C10       1.0  0.90570  0.33490  0.42970  1.0000 -0.1316525293
C   C11       1.0  0.11130  0.63820  0.50630  1.0000 0.0596636922
C   C12       1.0  0.88870  0.36180  0.49370  1.0000 0.0596636922
C   C13       1.0  0.17990  0.68090  0.44360  1.0000 -0.1316525293
C   C14       1.0  0.82010  0.31910  0.55640  1.0000 -0.1316525293
C   C15       1.0  0.12240  0.76220  0.64240  1.0000 0.5695419843
C   C16       1.0  0.87760  0.23780  0.35760  1.0000 0.5695419843
C   C17       1.0  0.05520  0.56690  0.50360  1.0000 0.0871651406
C   C18       1.0  0.94480  0.43310  0.49640  1.0000 0.0871651406
C   C19       1.0  0.00970  0.57050  0.44450  1.0000 -0.1316525293
C   C20       1.0  0.99030  0.42950  0.55550  1.0000 -0.1316525293
C   C21       1.0  0.04040  0.49490  0.56020  1.0000 -0.1316525293
C   C22       1.0  0.95960  0.50510  0.43980  1.0000 -0.1316525293
C   C23       1.0  0.05920  0.94650  0.24400  1.0000 0.6745659048
C   C24       1.0  0.94080  0.05350  0.75600  1.0000 0.6745659048
C   C25       1.0  0.99450  0.87410  0.24900  1.0000 -0.0089313332
C   C26       1.0  0.00550  0.12590  0.75100  1.0000 -0.0089313332
C   C27       1.0  0.85950  0.89580  0.25470  1.0000 -0.0833588543
C   C28       1.0  0.14050  0.10420  0.74530  1.0000 -0.0833588543
C   C29       1.0  0.79860  0.82970  0.26050  1.0000 0.003503046
C   C30       1.0  0.20140  0.17030  0.73950  1.0000 0.003503046
C   C31       1.0  0.87280  0.74250  0.26000  1.0000 -0.1398221841
C   C32       1.0  0.12720  0.25750  0.74000  1.0000 -0.1398221841
C   C33       1.0  0.01160  0.71840  0.25140  1.0000 0.0596636922
C   C34       1.0  0.98840  0.28160  0.74860  1.0000 0.0596636922
C   C35       1.0  0.06980  0.78590  0.24700  1.0000 -0.1398221841
C   C36       1.0  0.93020  0.21410  0.75300  1.0000 -0.1398221841
C   C37       1.0  0.65510  0.85480  0.26420  1.0000 0.5695419843
C   C38       1.0  0.34490  0.14520  0.73580  1.0000 0.5695419843
C   C39       1.0  0.08790  0.62480  0.24960  1.0000 0.069578137
C   C40       1.0  0.91210  0.37520  0.75040  1.0000 0.069578137
C   C41       1.0  0.03780  0.56350  0.23530  1.0000 -0.1316525293
C   C42       1.0  0.96220  0.43650  0.76470  1.0000 -0.1316525293
C   C43       1.0  0.10930  0.47550  0.23740  1.0000 -0.1316525293
C   C44       1.0  0.89070  0.52450  0.76260  1.0000 -0.1316525293
C   C45       1.0  0.23310  0.44440  0.25150  1.0000 0.069578137
C   C46       1.0  0.76690  0.55560  0.74850  1.0000 0.069578137
C   C47       1.0  0.28480  0.50700  0.26340  1.0000 -0.1398221841
C   C48       1.0  0.71520  0.49300  0.73660  1.0000 -0.1398221841
C   C49       1.0  0.21680  0.59530  0.26200  1.0000 -0.1214394051
C   C50       1.0  0.78320  0.40470  0.73800  1.0000 -0.1214394051
C   C51       1.0  0.30980  0.34930  0.25450  1.0000 0.0596636922
C   C52       1.0  0.69020  0.65070  0.74550  1.0000 0.0596636922
C   C53       1.0  0.44440  0.32690  0.24610  1.0000 -0.1503808787
C   C54       1.0  0.55560  0.67310  0.75390  1.0000 -0.1503808787
C   C55       1.0  0.51810  0.23850  0.24930  1.0000 0.0094779986
C   C56       1.0  0.48190  0.76150  0.75070  1.0000 0.0094779986
C   C57       1.0  0.45650  0.17170  0.25880  1.0000 -0.0833588543
C   C58       1.0  0.54350  0.82830  0.74120  1.0000 -0.0833588543
C   C59       1.0  0.32310  0.19240  0.26400  1.0000 -0.0038639324
C   C60       1.0  0.67690  0.80760  0.73600  1.0000 -0.0038639324
C   C61       1.0  0.25200  0.28110  0.26310  1.0000 -0.1398221841
C   C62       1.0  0.74800  0.71890  0.73690  1.0000 -0.1398221841
C   C63       1.0  0.66380  0.21700  0.24140  1.0000 0.5695419843
C   C64       1.0  0.33620  0.78300  0.75860  1.0000 0.5695419843
C   C65       1.0  0.25640  0.11920  0.27110  1.0000 0.6532823378
C   C66       1.0  0.74360  0.88080  0.72890  1.0000 0.6532823378
C   C67       1.0  0.14370  0.23160  0.10860  1.0000 0.5695419843
C   C68       1.0  0.85630  0.76840  0.89140  1.0000 0.5695419843
C   C69       1.0  0.25080  0.25890  0.04910  1.0000 -0.0038639324
C   C70       1.0  0.74920  0.74110  0.95090  1.0000 -0.0038639324
C   C71       1.0  0.30700  0.21250  0.99440  1.0000 -0.073702014
C   C72       1.0  0.69300  0.78750  0.00560  1.0000 -0.073702014
C   C73       1.0  0.40960  0.23710  0.93950  1.0000 -0.0089313332
C   C74       1.0  0.59040  0.76290  0.06050  1.0000 -0.0089313332
C   C75       1.0  0.45250  0.30770  0.94140  1.0000 -0.1214394051
C   C76       1.0  0.54750  0.69230  0.05860  1.0000 -0.1214394051
C   C77       1.0  0.39890  0.35510  0.99600  1.0000 0.069578137
C   C78       1.0  0.60110  0.64490  0.00400  1.0000 0.069578137
C   C79       1.0  0.29480  0.33040  0.04910  1.0000 -0.1316525293
C   C80       1.0  0.70520  0.66960  0.95090  1.0000 -0.1316525293
C   C81       1.0  0.46910  0.18750  0.88040  1.0000 0.5695419843
C   C82       1.0  0.53090  0.81250  0.11960  1.0000 0.5695419843
C   C83       1.0  0.46140  0.44270  0.06270  1.0000 -0.1214394051
C   C84       1.0  0.53860  0.55730  0.93730  1.0000 -0.1214394051
C   C85       1.0  0.45000  0.42960  0.99700  1.0000 0.0795439938
C   C86       1.0  0.55000  0.57040  0.00300  1.0000 0.0795439938
C   C87       1.0  0.49110  0.48680  0.93520  1.0000 -0.1316525293
C   C88       1.0  0.50890  0.51320  0.06480  1.0000 -0.1316525293
O   O1        1.0  0.33210  0.76520  0.32000  1.0000 -0.5805748865
O   O2        1.0  0.66790  0.23480  0.68000  1.0000 -0.5805748865
O   O3        1.0  0.31950  0.87410  0.37150  1.0000 -0.6014813399
O   O4        1.0  0.68050  0.12590  0.62850  1.0000 -0.6080183228
O   O5        1.0  0.13620  0.83830  0.64120  1.0000 -0.5805748865
O   O6        1.0  0.86380  0.16170  0.35880  1.0000 -0.5805748865
O   O7        1.0  0.08830  0.71030  0.70110  1.0000 -0.6080183228
O   O8        1.0  0.91170  0.28970  0.29890  1.0000 -0.6080183228
O   O9        1.0  0.98930  0.02370  0.24300  1.0000 -0.6080183228
O   O10       1.0  0.01070  0.97630  0.75700  1.0000 -0.6080183228
O   O11       1.0  0.59610  0.93580  0.25060  1.0000 -0.5701636141
O   O12       1.0  0.40390  0.06420  0.74940  1.0000 -0.5701636141
O   O13       1.0  0.59640  0.79460  0.27970  1.0000 -0.5805748865
O   O14       1.0  0.40360  0.20540  0.72030  1.0000 -0.5805748865
O   O15       1.0  0.13340  0.14070  0.27780  1.0000 -0.6457068985
O   O16       1.0  0.86660  0.85930  0.72220  1.0000 -0.6392662193
O   O17       1.0  0.32660  0.04260  0.27330  1.0000 -0.5902980333
O   O18       1.0  0.67340  0.95740  0.72670  1.0000 -0.5902980333
O   O19       1.0  0.72790  0.13700  0.25170  1.0000 -0.5701636141
O   O20       1.0  0.27210  0.86300  0.74830  1.0000 -0.5638299053
O   O21       1.0  0.71950  0.27910  0.22660  1.0000 -0.6014813399
O   O22       1.0  0.28050  0.72090  0.77340  1.0000 -0.6014813399
O   O23       1.0  0.05430  0.28940  0.13940  1.0000 -0.6216267263
O   O24       1.0  0.94570  0.71060  0.86060  1.0000 -0.6216267263
O   O25       1.0  0.14340  0.15060  0.12690  1.0000 -0.6080183228
O   O26       1.0  0.85660  0.84940  0.87310  1.0000 -0.6080183228
O   O27       1.0  0.41700  0.13110  0.87210  1.0000 -0.6014813399
O   O28       1.0  0.58300  0.86890  0.12790  1.0000 -0.6080183228
O   O29       1.0  0.57580  0.20110  0.83850  1.0000 -0.6216267263
O   O30       1.0  0.42420  0.79890  0.16150  1.0000 -0.6216267263
O   O31       1.0  0.17910  0.92620  0.23910  1.0000 -0.6392662193
O   O32       1.0  0.82090  0.07380  0.76090  1.0000 -0.6392662193
