# DDEC6 charges by PACMAN v1.1 (https://github.com/mtap-research/PACMAN-charge/)
data_2013[Ni][anh]3[ASR]1
_chemical_formula_sum              "Ni6 H42 C78 N6 O27"
_cell_length_a       10.7647
_cell_length_b       10.7647
_cell_length_c       26.7578
_cell_angle_alpha    90
_cell_angle_beta     90
_cell_angle_gamma    120

_symmetry_space_group_name_H-M    "P 1"
_symmetry_Int_Tables_number       1

loop_
  _symmetry_equiv_pos_as_xyz
  'x, y, z'

loop_
  _atom_site_type_symbol
  _atom_site_label
  _atom_site_symmetry_multiplicity
  _atom_site_fract_x
  _atom_site_fract_y
  _atom_site_fract_z
  _atom_site_occupancy
  _atom_site_charge
Ni  Ni1       1.0  0.78123  0.83231  0.13332  1.0000 0.9368652122
Ni  Ni2       1.0  0.16769  0.94892  0.79999  1.0000 0.9346274452
Ni  Ni3       1.0  0.05108  0.21877  0.46665  1.0000 0.9368652122
Ni  Ni4       1.0  0.83231  0.78123  0.86668  1.0000 0.9346274452
Ni  Ni5       1.0  0.94892  0.16769  0.20001  1.0000 0.9368652122
Ni  Ni6       1.0  0.21877  0.05108  0.53335  1.0000 0.9368652122
H   H1        1.0  0.98500  0.45220  0.17110  1.0000 0.1215716857
H   H2        1.0  0.54780  0.53280  0.83777  1.0000 0.1215716857
H   H3        1.0  0.46720  0.01500  0.50443  1.0000 0.1215716857
H   H4        1.0  0.45220  0.98500  0.82890  1.0000 0.1215716857
H   H5        1.0  0.53280  0.54780  0.16223  1.0000 0.1215716857
H   H6        1.0  0.01500  0.46720  0.49557  1.0000 0.1215716857
H   H7        1.0  0.69560  0.51260  0.24300  1.0000 0.1412110345
H   H8        1.0  0.48740  0.18300  0.90967  1.0000 0.1412110345
H   H9        1.0  0.81700  0.30440  0.57633  1.0000 0.1412110345
H   H10       1.0  0.51260  0.69560  0.75700  1.0000 0.1412110345
H   H11       1.0  0.18300  0.48740  0.09033  1.0000 0.1412110345
H   H12       1.0  0.30440  0.81700  0.42367  1.0000 0.1412110345
H   H13       1.0  0.79420  0.21940  0.28840  1.0000 0.110491121
H   H14       1.0  0.78060  0.57480  0.95507  1.0000 0.110491121
H   H15       1.0  0.42520  0.20580  0.62173  1.0000 0.110491121
H   H16       1.0  0.21940  0.79420  0.71160  1.0000 0.110491121
H   H17       1.0  0.57480  0.78060  0.04493  1.0000 0.110491121
H   H18       1.0  0.20580  0.42520  0.37827  1.0000 0.110491121
H   H19       1.0  0.47860  0.35150  0.27640  1.0000 0.1293343359
H   H20       1.0  0.64850  0.12710  0.94307  1.0000 0.1293343359
H   H21       1.0  0.87290  0.52140  0.60973  1.0000 0.1293343359
H   H22       1.0  0.35150  0.47860  0.72360  1.0000 0.1293343359
H   H23       1.0  0.12710  0.64850  0.05693  1.0000 0.1293343359
H   H24       1.0  0.52140  0.87290  0.39027  1.0000 0.1293343359
H   H25       1.0  0.31320  0.29040  0.33910  1.0000 0.1215716857
H   H26       1.0  0.70960  0.02280  0.00577  1.0000 0.1215716857
H   H27       1.0  0.97720  0.68680  0.67243  1.0000 0.1215716857
H   H28       1.0  0.29040  0.31320  0.66090  1.0000 0.1215716857
H   H29       1.0  0.02280  0.70960  0.99423  1.0000 0.1215716857
H   H30       1.0  0.68680  0.97720  0.32757  1.0000 0.1215716857
H   H31       1.0  0.55400  0.19920  0.42900  1.0000 0.1215716857
H   H32       1.0  0.80080  0.35480  0.09567  1.0000 0.1215716857
H   H33       1.0  0.64520  0.44600  0.76233  1.0000 0.1215716857
H   H34       1.0  0.19920  0.55400  0.57100  1.0000 0.1215716857
H   H35       1.0  0.35480  0.80080  0.90433  1.0000 0.1215716857
H   H36       1.0  0.44600  0.64520  0.23767  1.0000 0.1215716857
H   H37       1.0  0.72160  0.26060  0.36600  1.0000 0.1293343359
H   H38       1.0  0.73940  0.46100  0.03267  1.0000 0.1293343359
H   H39       1.0  0.53900  0.27840  0.69933  1.0000 0.1293343359
H   H40       1.0  0.26060  0.72160  0.63400  1.0000 0.1293343359
H   H41       1.0  0.46100  0.73940  0.96733  1.0000 0.1293343359
H   H42       1.0  0.27840  0.53900  0.30067  1.0000 0.1293343359
C   C1        1.0  0.91880  0.42760  0.19691  1.0000 0.0684035338
C   C2        1.0  0.57240  0.49120  0.86358  1.0000 0.0684035338
C   C3        1.0  0.50880  0.08120  0.53024  1.0000 0.0684035338
C   C4        1.0  0.42760  0.91880  0.80309  1.0000 0.0684035338
C   C5        1.0  0.49120  0.57240  0.13642  1.0000 0.0684035338
C   C6        1.0  0.08120  0.50880  0.46976  1.0000 0.0684035338
C   C7        1.0  0.84690  0.50260  0.20140  1.0000 -0.0372852257
C   C8        1.0  0.49740  0.34430  0.86807  1.0000 -0.0372852257
C   C9        1.0  0.65570  0.15310  0.53473  1.0000 -0.0372852257
C   C10       1.0  0.50260  0.84690  0.79860  1.0000 -0.0372852257
C   C11       1.0  0.34430  0.49740  0.13193  1.0000 -0.0372852257
C   C12       1.0  0.15310  0.65570  0.46527  1.0000 -0.0372852257
C   C13       1.0  0.74790  0.46560  0.23977  1.0000 -0.0885238923
C   C14       1.0  0.53440  0.28230  0.90644  1.0000 -0.0885238923
C   C15       1.0  0.71770  0.25210  0.57310  1.0000 -0.0885238923
C   C16       1.0  0.46560  0.74790  0.76023  1.0000 -0.0885238923
C   C17       1.0  0.28230  0.53440  0.09356  1.0000 -0.0885238923
C   C18       1.0  0.25210  0.71770  0.42690  1.0000 -0.0885238923
C   C19       1.0  0.72680  0.35870  0.27333  1.0000 0.0365969108
C   C20       1.0  0.64130  0.36810  0.94000  1.0000 0.0365969108
C   C21       1.0  0.63190  0.27320  0.60666  1.0000 0.0365969108
C   C22       1.0  0.35870  0.72680  0.72667  1.0000 0.0365969108
C   C23       1.0  0.36810  0.64130  0.06000  1.0000 0.0365969108
C   C24       1.0  0.27320  0.63190  0.39334  1.0000 0.0365969108
C   C25       1.0  0.80600  0.29020  0.26581  1.0000 0.0347320454
C   C26       1.0  0.70980  0.51580  0.93248  1.0000 0.0347320454
C   C27       1.0  0.48420  0.19400  0.59914  1.0000 0.0347320454
C   C28       1.0  0.29020  0.80600  0.73419  1.0000 0.0365969108
C   C29       1.0  0.51580  0.70980  0.06752  1.0000 0.0365969108
C   C30       1.0  0.19400  0.48420  0.40086  1.0000 0.0347320454
C   C31       1.0  0.62010  0.31510  0.31468  1.0000 0.0808552197
C   C32       1.0  0.68490  0.30500  0.98135  1.0000 0.0808552197
C   C33       1.0  0.69500  0.37990  0.64801  1.0000 0.0808552197
C   C34       1.0  0.31510  0.62010  0.68532  1.0000 0.0808552197
C   C35       1.0  0.30500  0.68490  0.01865  1.0000 0.0808552197
C   C36       1.0  0.37990  0.69500  0.35199  1.0000 0.0808552197
C   C37       1.0  0.49500  0.32210  0.30719  1.0000 -0.1318530324
C   C38       1.0  0.67790  0.17290  0.97386  1.0000 -0.1318530324
C   C39       1.0  0.82710  0.50500  0.64052  1.0000 -0.1318530324
C   C40       1.0  0.32210  0.49500  0.69281  1.0000 -0.1318530324
C   C41       1.0  0.17290  0.67790  0.02614  1.0000 -0.1318530324
C   C42       1.0  0.50500  0.82710  0.35948  1.0000 -0.1318530324
C   C43       1.0  0.39600  0.28580  0.34492  1.0000 -0.0885238923
C   C44       1.0  0.71420  0.11020  0.01159  1.0000 -0.0885238923
C   C45       1.0  0.88980  0.60400  0.67825  1.0000 -0.0885238923
C   C46       1.0  0.28580  0.39600  0.65508  1.0000 -0.0885238923
C   C47       1.0  0.11020  0.71420  0.98841  1.0000 -0.0885238923
C   C48       1.0  0.60400  0.88980  0.32175  1.0000 -0.0885238923
C   C49       1.0  0.41700  0.24260  0.39137  1.0000 -0.0179340972
C   C50       1.0  0.75740  0.17440  0.05804  1.0000 -0.0179340972
C   C51       1.0  0.82560  0.58300  0.72470  1.0000 -0.0179340972
C   C52       1.0  0.24260  0.41700  0.60863  1.0000 -0.0179340972
C   C53       1.0  0.17440  0.75740  0.94196  1.0000 -0.0179340972
C   C54       1.0  0.58300  0.82560  0.27530  1.0000 -0.0179340972
C   C55       1.0  0.53950  0.23140  0.39848  1.0000 -0.0830200087
C   C56       1.0  0.76860  0.30810  0.06515  1.0000 -0.0830200087
C   C57       1.0  0.69190  0.46050  0.73181  1.0000 -0.0830200087
C   C58       1.0  0.23140  0.53950  0.60152  1.0000 -0.0830200087
C   C59       1.0  0.30810  0.76860  0.93485  1.0000 -0.0830200087
C   C60       1.0  0.46050  0.69190  0.26819  1.0000 -0.0830200087
C   C61       1.0  0.64020  0.26790  0.36055  1.0000 -0.1431007071
C   C62       1.0  0.73210  0.37230  0.02722  1.0000 -0.1431007071
C   C63       1.0  0.62770  0.35980  0.69388  1.0000 -0.1431007071
C   C64       1.0  0.26790  0.64020  0.63945  1.0000 -0.1431007071
C   C65       1.0  0.37230  0.73210  0.97278  1.0000 -0.1431007071
C   C66       1.0  0.35980  0.62770  0.30612  1.0000 -0.1431007071
C   C67       1.0  0.86920  0.61820  0.16397  1.0000 0.5664628661
C   C68       1.0  0.38180  0.25100  0.83064  1.0000 0.5664628661
C   C69       1.0  0.74900  0.13080  0.49730  1.0000 0.5664628661
C   C70       1.0  0.61820  0.86920  0.83603  1.0000 0.5664628661
C   C71       1.0  0.25100  0.38180  0.16936  1.0000 0.5664628661
C   C72       1.0  0.13080  0.74900  0.50270  1.0000 0.5664628661
C   C73       1.0  0.31100  0.20907  0.43302  1.0000 0.5817022638
C   C74       1.0  0.79093  0.10193  0.09969  1.0000 0.5817022638
C   C75       1.0  0.89807  0.68900  0.76635  1.0000 0.5817022638
C   C76       1.0  0.20907  0.31100  0.56698  1.0000 0.5817022638
C   C77       1.0  0.10193  0.79093  0.90031  1.0000 0.5817022638
C   C78       1.0  0.68900  0.89807  0.23365  1.0000 0.5817022638
N   N1        1.0  0.89842  0.32052  0.22781  1.0000 -0.2289959548
N   N2        1.0  0.67948  0.57790  0.89448  1.0000 -0.2289959548
N   N3        1.0  0.42210  0.10158  0.56114  1.0000 -0.2289959548
N   N4        1.0  0.32052  0.89842  0.77219  1.0000 -0.2289959548
N   N5        1.0  0.57790  0.67948  0.10552  1.0000 -0.2289959548
N   N6        1.0  0.10158  0.42210  0.43886  1.0000 -0.2289959548
O   O1        1.0  0.94730  0.63446  0.12747  1.0000 -0.5418067757
O   O2        1.0  0.36554  0.31284  0.79414  1.0000 -0.5418067757
O   O3        1.0  0.68716  0.05270  0.46080  1.0000 -0.5460567756
O   O4        1.0  0.63446  0.94730  0.87253  1.0000 -0.5418067757
O   O5        1.0  0.31284  0.36554  0.20586  1.0000 -0.5418067757
O   O6        1.0  0.05270  0.68716  0.53920  1.0000 -0.5460567756
O   O7        1.0  0.80314  0.68326  0.17337  1.0000 -0.5186849995
O   O8        1.0  0.31674  0.11988  0.84004  1.0000 -0.5115244968
O   O9        1.0  0.88012  0.19686  0.50670  1.0000 -0.5115244968
O   O10       1.0  0.68326  0.80314  0.82663  1.0000 -0.5186849995
O   O11       1.0  0.11988  0.31674  0.15996  1.0000 -0.5186849995
O   O12       1.0  0.19686  0.88012  0.49330  1.0000 -0.5186849995
O   O13       1.0  0.20424  0.22098  0.42289  1.0000 -0.5186849995
O   O14       1.0  0.77902  0.98326  0.08956  1.0000 -0.5186849995
O   O15       1.0  0.01674  0.79576  0.75622  1.0000 -0.5186849995
O   O16       1.0  0.22098  0.20424  0.57711  1.0000 -0.5186849995
O   O17       1.0  0.98326  0.77902  0.91044  1.0000 -0.5186849995
O   O18       1.0  0.79576  0.01674  0.24378  1.0000 -0.5186849995
O   O19       1.0  0.33841  0.17265  0.47454  1.0000 -0.5115244968
O   O20       1.0  0.82735  0.16576  0.14121  1.0000 -0.5115244968
O   O21       1.0  0.83424  0.66159  0.80787  1.0000 -0.5115244968
O   O22       1.0  0.17265  0.33841  0.52546  1.0000 -0.5115244968
O   O23       1.0  0.16576  0.82735  0.85879  1.0000 -0.5115244968
O   O24       1.0  0.66159  0.83424  0.19213  1.0000 -0.5115244968
O   O25       1.0  0.97629  0.00000  0.16667  1.0000 -0.5460567756
O   O26       1.0  1.00000  0.97629  0.83333  1.0000 -0.5418067757
O   O27       1.0  0.02371  0.02371  0.50000  1.0000 -0.5418067757
