# DDEC6 charges by PACMAN v1.1 (https://github.com/mtap-research/PACMAN-charge/)
data_2013[Zn][ths]3[ASR]7
_chemical_formula_sum              "Zn12 H96 C144 I24 N48"
_cell_length_a       19.4175
_cell_length_b       19.4175
_cell_length_c       31.358
_cell_angle_alpha    78.2921
_cell_angle_beta     101.708
_cell_angle_gamma    134.871

_symmetry_space_group_name_H-M    "P 1"
_symmetry_Int_Tables_number       1

loop_
  _symmetry_equiv_pos_as_xyz
  'x, y, z'

loop_
  _atom_site_type_symbol
  _atom_site_label
  _atom_site_symmetry_multiplicity
  _atom_site_fract_x
  _atom_site_fract_y
  _atom_site_fract_z
  _atom_site_occupancy
  _atom_site_charge
Zn  Zn1       1.0  0.47045  0.82041  0.21740  1.0000 0.4388820367
Zn  Zn2       1.0  0.17959  0.52955  0.71740  1.0000 0.4388820367
Zn  Zn3       1.0  0.52224  0.27816  0.07029  1.0000 0.4624171542
Zn  Zn4       1.0  0.72184  0.47776  0.57029  1.0000 0.4624171542
Zn  Zn5       1.0  0.04397  0.18981  0.89855  1.0000 0.4624171542
Zn  Zn6       1.0  0.81019  0.95603  0.39855  1.0000 0.4624171542
Zn  Zn7       1.0  0.82041  0.47045  0.28260  1.0000 0.4388820367
Zn  Zn8       1.0  0.52955  0.17959  0.78260  1.0000 0.4388820367
Zn  Zn9       1.0  0.27816  0.52224  0.42971  1.0000 0.4624171542
Zn  Zn10      1.0  0.47776  0.72184  0.92971  1.0000 0.4624171542
Zn  Zn11      1.0  0.18981  0.04397  0.60145  1.0000 0.4624171542
Zn  Zn12      1.0  0.95603  0.81019  0.10145  1.0000 0.4624171542
H   H1        1.0  0.27360  0.75080  0.17410  1.0000 0.1075761738
H   H2        1.0  0.24920  0.72640  0.67410  1.0000 0.1075761738
H   H3        1.0  0.11010  0.60850  0.17390  1.0000 0.1388555763
H   H4        1.0  0.39150  0.88990  0.67390  1.0000 0.1388555763
H   H5        1.0  0.17380  0.47420  0.26030  1.0000 0.1388555763
H   H6        1.0  0.52580  0.82620  0.76030  1.0000 0.1388555763
H   H7        1.0  0.33860  0.61740  0.25590  1.0000 0.1000971595
H   H8        1.0  0.38260  0.66140  0.75590  1.0000 0.1000971595
H   H9        1.0  0.54440  0.18280  0.15390  1.0000 0.1075761738
H   H10       1.0  0.81720  0.45560  0.65390  1.0000 0.1075761738
H   H11       1.0  0.66280  0.20000  0.19930  1.0000 0.1238641875
H   H12       1.0  0.80000  0.33720  0.69930  1.0000 0.1238641875
H   H13       1.0  0.86290  0.46290  0.13440  1.0000 0.1388555763
H   H14       1.0  0.53710  0.13710  0.63440  1.0000 0.1388555763
H   H15       1.0  0.73780  0.43300  0.08800  1.0000 0.1075761738
H   H16       1.0  0.56700  0.26220  0.58800  1.0000 0.1075761738
H   H17       1.0  0.97840  0.14980  0.36000  1.0000 0.1000971595
H   H18       1.0  0.85020  0.02160  0.86000  1.0000 0.1000971595
H   H19       1.0  0.01600  0.27180  0.30570  1.0000 0.1319490891
H   H20       1.0  0.72820  0.98400  0.80570  1.0000 0.1319490891
H   H21       1.0  0.72720  0.11540  0.28110  1.0000 0.1319490891
H   H22       1.0  0.88460  0.27280  0.78110  1.0000 0.1319490891
H   H23       1.0  0.69820  0.99980  0.33690  1.0000 0.1075761738
H   H24       1.0  0.00020  0.30180  0.83690  1.0000 0.1075761738
H   H25       1.0  0.60280  0.45520  0.00470  1.0000 0.1075761738
H   H26       1.0  0.54480  0.39720  0.50470  1.0000 0.1075761738
H   H27       1.0  0.63860  0.59780  0.99660  1.0000 0.1388555763
H   H28       1.0  0.40220  0.36140  0.49660  1.0000 0.1388555763
H   H29       1.0  0.58700  0.54860  0.12320  1.0000 0.1319490891
H   H30       1.0  0.45140  0.41300  0.62320  1.0000 0.1319490891
H   H31       1.0  0.55770  0.40810  0.12790  1.0000 0.1075761738
H   H32       1.0  0.59190  0.44230  0.62790  1.0000 0.1075761738
H   H33       1.0  0.93260  0.14600  0.96810  1.0000 0.1075761738
H   H34       1.0  0.85400  0.06740  0.46810  1.0000 0.1075761738
H   H35       1.0  0.80200  0.01440  0.00730  1.0000 0.1388555763
H   H36       1.0  0.98560  0.19800  0.50730  1.0000 0.1388555763
H   H37       1.0  0.83680  0.85000  0.97580  1.0000 0.1388555763
H   H38       1.0  0.15000  0.16320  0.47580  1.0000 0.1388555763
H   H39       1.0  0.96180  0.98560  0.93600  1.0000 0.1075761738
H   H40       1.0  0.01440  0.03820  0.43600  1.0000 0.1075761738
H   H41       1.0  0.50440  0.69960  0.20660  1.0000 0.1000971595
H   H42       1.0  0.30040  0.49560  0.70660  1.0000 0.1000971595
H   H43       1.0  0.56840  0.68080  0.16110  1.0000 0.1388555763
H   H44       1.0  0.31920  0.43160  0.66110  1.0000 0.1388555763
H   H45       1.0  0.62230  0.90070  0.08190  1.0000 0.1319490891
H   H46       1.0  0.09930  0.37770  0.58190  1.0000 0.1319490891
H   H47       1.0  0.56220  0.91880  0.13020  1.0000 0.1075761738
H   H48       1.0  0.08120  0.43780  0.63020  1.0000 0.1075761738
H   H49       1.0  0.75080  0.27360  0.32590  1.0000 0.1075761738
H   H50       1.0  0.72640  0.24920  0.82590  1.0000 0.1075761738
H   H51       1.0  0.60850  0.11010  0.32610  1.0000 0.1388555763
H   H52       1.0  0.88990  0.39150  0.82610  1.0000 0.1388555763
H   H53       1.0  0.47420  0.17380  0.23970  1.0000 0.1388555763
H   H54       1.0  0.82620  0.52580  0.73970  1.0000 0.1388555763
H   H55       1.0  0.61740  0.33860  0.24410  1.0000 0.1000971595
H   H56       1.0  0.66140  0.38260  0.74410  1.0000 0.1000971595
H   H57       1.0  0.18280  0.54440  0.34610  1.0000 0.1075761738
H   H58       1.0  0.45560  0.81720  0.84610  1.0000 0.1075761738
H   H59       1.0  0.20000  0.66280  0.30070  1.0000 0.1238641875
H   H60       1.0  0.33720  0.80000  0.80070  1.0000 0.1238641875
H   H61       1.0  0.46290  0.86290  0.36560  1.0000 0.1388555763
H   H62       1.0  0.13710  0.53710  0.86560  1.0000 0.1388555763
H   H63       1.0  0.43300  0.73780  0.41200  1.0000 0.1075761738
H   H64       1.0  0.26220  0.56700  0.91200  1.0000 0.1075761738
H   H65       1.0  0.14980  0.97840  0.14000  1.0000 0.1000971595
H   H66       1.0  0.02160  0.85020  0.64000  1.0000 0.1000971595
H   H67       1.0  0.27180  0.01600  0.19430  1.0000 0.1319490891
H   H68       1.0  0.98400  0.72820  0.69430  1.0000 0.1319490891
H   H69       1.0  0.11540  0.72720  0.21890  1.0000 0.1319490891
H   H70       1.0  0.27280  0.88460  0.71890  1.0000 0.1319490891
H   H71       1.0  0.99980  0.69820  0.16310  1.0000 0.1075761738
H   H72       1.0  0.30180  0.00020  0.66310  1.0000 0.1075761738
H   H73       1.0  0.45520  0.60280  0.49530  1.0000 0.1075761738
H   H74       1.0  0.39720  0.54480  0.99530  1.0000 0.1075761738
H   H75       1.0  0.59780  0.63860  0.50340  1.0000 0.1388555763
H   H76       1.0  0.36140  0.40220  0.00340  1.0000 0.1388555763
H   H77       1.0  0.54860  0.58700  0.37680  1.0000 0.1319490891
H   H78       1.0  0.41300  0.45140  0.87680  1.0000 0.1319490891
H   H79       1.0  0.40810  0.55770  0.37210  1.0000 0.1075761738
H   H80       1.0  0.44230  0.59190  0.87210  1.0000 0.1075761738
H   H81       1.0  0.14600  0.93260  0.53190  1.0000 0.1075761738
H   H82       1.0  0.06740  0.85400  0.03190  1.0000 0.1075761738
H   H83       1.0  0.01440  0.80200  0.49270  1.0000 0.1388555763
H   H84       1.0  0.19800  0.98560  0.99270  1.0000 0.1388555763
H   H85       1.0  0.85000  0.83680  0.52420  1.0000 0.1388555763
H   H86       1.0  0.16320  0.15000  0.02420  1.0000 0.1388555763
H   H87       1.0  0.98560  0.96180  0.56400  1.0000 0.1075761738
H   H88       1.0  0.03820  0.01440  0.06400  1.0000 0.1075761738
H   H89       1.0  0.69960  0.50440  0.29340  1.0000 0.1000971595
H   H90       1.0  0.49560  0.30040  0.79340  1.0000 0.1000971595
H   H91       1.0  0.68080  0.56840  0.33890  1.0000 0.1388555763
H   H92       1.0  0.43160  0.31920  0.83890  1.0000 0.1388555763
H   H93       1.0  0.90070  0.62230  0.41810  1.0000 0.1319490891
H   H94       1.0  0.37770  0.09930  0.91810  1.0000 0.1319490891
H   H95       1.0  0.91880  0.56220  0.36980  1.0000 0.1075761738
H   H96       1.0  0.43780  0.08120  0.86980  1.0000 0.1075761738
C   C1        1.0  0.25370  0.69370  0.19100  1.0000 0.070833281
C   C2        1.0  0.30630  0.74630  0.69100  1.0000 0.070833281
C   C3        1.0  0.15630  0.60930  0.19180  1.0000 -0.1718025854
C   C4        1.0  0.39070  0.84370  0.69180  1.0000 -0.1718025854
C   C5        1.0  0.12320  0.52620  0.21750  1.0000 0.070833281
C   C6        1.0  0.47380  0.87680  0.71750  1.0000 0.070833281
C   C7        1.0  0.19230  0.52950  0.24190  1.0000 -0.1496878965
C   C8        1.0  0.47050  0.80770  0.74190  1.0000 -0.1496878965
C   C9        1.0  0.29080  0.61560  0.23910  1.0000 0.0817950214
C   C10       1.0  0.38440  0.70920  0.73910  1.0000 0.0817950214
C   C11       1.0  0.01760  0.43720  0.22070  1.0000 0.3638673039
C   C12       1.0  0.56280  0.98240  0.72070  1.0000 0.3638673039
C   C13       1.0  0.85870  0.35030  0.20140  1.0000 0.3699294651
C   C14       1.0  0.64970  0.14130  0.70140  1.0000 0.3699294651
C   C15       1.0  0.90290  0.28930  0.25410  1.0000 0.3699294651
C   C16       1.0  0.71070  0.09710  0.75410  1.0000 0.3699294651
C   C17       1.0  0.61080  0.23940  0.14920  1.0000 0.070833281
C   C18       1.0  0.76060  0.38920  0.64920  1.0000 0.070833281
C   C19       1.0  0.68030  0.25010  0.17710  1.0000 -0.1496878965
C   C20       1.0  0.74990  0.31970  0.67710  1.0000 -0.1496878965
C   C21       1.0  0.77820  0.33580  0.17260  1.0000 0.0606154196
C   C22       1.0  0.66420  0.22180  0.67260  1.0000 0.0606154196
C   C23       1.0  0.79750  0.40350  0.13870  1.0000 -0.1496878965
C   C24       1.0  0.59650  0.20250  0.63870  1.0000 -0.1496878965
C   C25       1.0  0.72260  0.38520  0.11120  1.0000 0.091215028
C   C26       1.0  0.61480  0.27740  0.61120  1.0000 0.091215028
C   C27       1.0  0.92710  0.14250  0.34340  1.0000 0.091215028
C   C28       1.0  0.85750  0.07290  0.84340  1.0000 0.091215028
C   C29       1.0  0.95000  0.21680  0.31170  1.0000 -0.1435205055
C   C30       1.0  0.78320  0.05000  0.81170  1.0000 -0.1435205055
C   C31       1.0  0.87680  0.21000  0.28910  1.0000 0.070833281
C   C32       1.0  0.79000  0.12320  0.78910  1.0000 0.070833281
C   C33       1.0  0.77990  0.12490  0.29730  1.0000 -0.1588468602
C   C34       1.0  0.87510  0.22010  0.79730  1.0000 -0.1588468602
C   C35       1.0  0.76320  0.05500  0.32950  1.0000 0.0817950214
C   C36       1.0  0.94500  0.23680  0.82950  1.0000 0.0817950214
C   C37       1.0  0.59600  0.47260  0.02860  1.0000 0.0817950214
C   C38       1.0  0.52740  0.40400  0.52860  1.0000 0.0817950214
C   C39       1.0  0.61960  0.55840  0.02360  1.0000 -0.1435205055
C   C40       1.0  0.44160  0.38040  0.52360  1.0000 -0.1435205055
C   C41       1.0  0.61450  0.58450  0.05890  1.0000 0.0541557955
C   C42       1.0  0.41550  0.38550  0.55890  1.0000 0.0541557955
C   C43       1.0  0.58970  0.52930  0.09850  1.0000 -0.1314193582
C   C44       1.0  0.47070  0.41030  0.59850  1.0000 -0.1314193582
C   C45       1.0  0.56910  0.44470  0.10050  1.0000 0.070833281
C   C46       1.0  0.55530  0.43090  0.60050  1.0000 0.070833281
C   C47       1.0  0.64400  0.68060  0.05680  1.0000 0.3880268397
C   C48       1.0  0.31940  0.35600  0.55680  1.0000 0.3880268397
C   C49       1.0  0.73790  0.83950  0.02820  1.0000 0.3880268397
C   C50       1.0  0.16050  0.26210  0.52820  1.0000 0.3880268397
C   C51       1.0  0.63810  0.77450  0.08350  1.0000 0.3880268397
C   C52       1.0  0.22550  0.36190  0.58350  1.0000 0.3880268397
C   C53       1.0  0.91030  0.08390  0.96820  1.0000 0.0606154196
C   C54       1.0  0.91610  0.08970  0.46820  1.0000 0.0606154196
C   C55       1.0  0.83600  0.00700  0.99380  1.0000 -0.1314193582
C   C56       1.0  0.99300  0.16400  0.49380  1.0000 -0.1314193582
C   C57       1.0  0.81140  0.92140  0.99970  1.0000 0.0392592257
C   C58       1.0  0.07860  0.18860  0.49970  1.0000 0.0392592257
C   C59       1.0  0.85560  0.91040  0.97510  1.0000 -0.1496878965
C   C60       1.0  0.08960  0.14440  0.47510  1.0000 -0.1496878965
C   C61       1.0  0.92710  0.99110  0.95010  1.0000 0.0606154196
C   C62       1.0  0.00890  0.07290  0.45010  1.0000 0.0606154196
C   C63       1.0  0.52660  0.73980  0.17990  1.0000 0.070833281
C   C64       1.0  0.26020  0.47340  0.67990  1.0000 0.070833281
C   C65       1.0  0.56500  0.72840  0.15310  1.0000 -0.1496878965
C   C66       1.0  0.27160  0.43500  0.65310  1.0000 -0.1496878965
C   C67       1.0  0.59850  0.78590  0.11510  1.0000 0.070833281
C   C68       1.0  0.21410  0.40150  0.61510  1.0000 0.070833281
C   C69       1.0  0.59660  0.85700  0.10750  1.0000 -0.1496878965
C   C70       1.0  0.14300  0.40340  0.60750  1.0000 -0.1496878965
C   C71       1.0  0.55910  0.86670  0.13570  1.0000 0.0817950214
C   C72       1.0  0.13330  0.44090  0.63570  1.0000 0.0817950214
C   C73       1.0  0.69370  0.25370  0.30900  1.0000 0.070833281
C   C74       1.0  0.74630  0.30630  0.80900  1.0000 0.070833281
C   C75       1.0  0.60930  0.15630  0.30820  1.0000 -0.1718025854
C   C76       1.0  0.84370  0.39070  0.80820  1.0000 -0.1718025854
C   C77       1.0  0.52620  0.12320  0.28250  1.0000 0.070833281
C   C78       1.0  0.87680  0.47380  0.78250  1.0000 0.070833281
C   C79       1.0  0.52950  0.19230  0.25810  1.0000 -0.1496878965
C   C80       1.0  0.80770  0.47050  0.75810  1.0000 -0.1496878965
C   C81       1.0  0.61560  0.29080  0.26090  1.0000 0.0817950214
C   C82       1.0  0.70920  0.38440  0.76090  1.0000 0.0817950214
C   C83       1.0  0.43720  0.01760  0.27930  1.0000 0.3638673039
C   C84       1.0  0.98240  0.56280  0.77930  1.0000 0.3638673039
C   C85       1.0  0.35030  0.85870  0.29860  1.0000 0.3699294651
C   C86       1.0  0.14130  0.64970  0.79860  1.0000 0.3699294651
C   C87       1.0  0.28930  0.90290  0.24590  1.0000 0.3699294651
C   C88       1.0  0.09710  0.71070  0.74590  1.0000 0.3699294651
C   C89       1.0  0.23940  0.61080  0.35080  1.0000 0.070833281
C   C90       1.0  0.38920  0.76060  0.85080  1.0000 0.070833281
C   C91       1.0  0.25010  0.68030  0.32290  1.0000 -0.1496878965
C   C92       1.0  0.31970  0.74990  0.82290  1.0000 -0.1496878965
C   C93       1.0  0.33580  0.77820  0.32740  1.0000 0.0606154196
C   C94       1.0  0.22180  0.66420  0.82740  1.0000 0.0606154196
C   C95       1.0  0.40350  0.79750  0.36130  1.0000 -0.1496878965
C   C96       1.0  0.20250  0.59650  0.86130  1.0000 -0.1496878965
C   C97       1.0  0.38520  0.72260  0.38880  1.0000 0.091215028
C   C98       1.0  0.27740  0.61480  0.88880  1.0000 0.091215028
C   C99       1.0  0.14250  0.92710  0.15660  1.0000 0.091215028
C   C100      1.0  0.07290  0.85750  0.65660  1.0000 0.091215028
C   C101      1.0  0.21680  0.95000  0.18830  1.0000 -0.1435205055
C   C102      1.0  0.05000  0.78320  0.68830  1.0000 -0.1435205055
C   C103      1.0  0.21000  0.87680  0.21090  1.0000 0.070833281
C   C104      1.0  0.12320  0.79000  0.71090  1.0000 0.070833281
C   C105      1.0  0.12490  0.77990  0.20270  1.0000 -0.1588468602
C   C106      1.0  0.22010  0.87510  0.70270  1.0000 -0.1588468602
C   C107      1.0  0.05500  0.76320  0.17050  1.0000 0.0817950214
C   C108      1.0  0.23680  0.94500  0.67050  1.0000 0.0817950214
C   C109      1.0  0.47260  0.59600  0.47140  1.0000 0.0817950214
C   C110      1.0  0.40400  0.52740  0.97140  1.0000 0.0817950214
C   C111      1.0  0.55840  0.61960  0.47640  1.0000 -0.1435205055
C   C112      1.0  0.38040  0.44160  0.97640  1.0000 -0.1496878965
C   C113      1.0  0.58450  0.61450  0.44110  1.0000 0.0541557955
C   C114      1.0  0.38550  0.41550  0.94110  1.0000 0.0541557955
C   C115      1.0  0.52930  0.58970  0.40150  1.0000 -0.1314193582
C   C116      1.0  0.41030  0.47070  0.90150  1.0000 -0.1314193582
C   C117      1.0  0.44470  0.56910  0.39950  1.0000 0.070833281
C   C118      1.0  0.43090  0.55530  0.89950  1.0000 0.070833281
C   C119      1.0  0.68060  0.64400  0.44320  1.0000 0.3880268397
C   C120      1.0  0.35600  0.31940  0.94320  1.0000 0.3880268397
C   C121      1.0  0.83950  0.73790  0.47180  1.0000 0.3880268397
C   C122      1.0  0.26210  0.16050  0.97180  1.0000 0.3880268397
C   C123      1.0  0.77450  0.63810  0.41650  1.0000 0.3880268397
C   C124      1.0  0.36190  0.22550  0.91650  1.0000 0.3880268397
C   C125      1.0  0.08390  0.91030  0.53180  1.0000 0.0606154196
C   C126      1.0  0.08970  0.91610  0.03180  1.0000 0.0606154196
C   C127      1.0  0.00700  0.83600  0.50620  1.0000 -0.1314193582
C   C128      1.0  0.16400  0.99300  0.00620  1.0000 -0.1314193582
C   C129      1.0  0.92140  0.81140  0.50030  1.0000 0.0392592257
C   C130      1.0  0.18860  0.07860  0.00030  1.0000 0.0392592257
C   C131      1.0  0.91040  0.85560  0.52490  1.0000 -0.1496878965
C   C132      1.0  0.14440  0.08960  0.02490  1.0000 -0.1496878965
C   C133      1.0  0.99110  0.92710  0.54990  1.0000 0.0606154196
C   C134      1.0  0.07290  0.00890  0.04990  1.0000 0.0606154196
C   C135      1.0  0.73980  0.52660  0.32010  1.0000 0.0817950214
C   C136      1.0  0.47340  0.26020  0.82010  1.0000 0.070833281
C   C137      1.0  0.72840  0.56500  0.34690  1.0000 -0.1496878965
C   C138      1.0  0.43500  0.27160  0.84690  1.0000 -0.1496878965
C   C139      1.0  0.78590  0.59850  0.38490  1.0000 0.070833281
C   C140      1.0  0.40150  0.21410  0.88490  1.0000 0.070833281
C   C141      1.0  0.85700  0.59660  0.39250  1.0000 -0.1496878965
C   C142      1.0  0.40340  0.14300  0.89250  1.0000 -0.1496878965
C   C143      1.0  0.86670  0.55910  0.36430  1.0000 0.0817950214
C   C144      1.0  0.44090  0.13330  0.86430  1.0000 0.0817950214
I   I1        1.0  0.54327  0.80437  0.29177  1.0000 -0.4295448674
I   I2        1.0  0.19563  0.45673  0.79177  1.0000 -0.4295448674
I   I3        1.0  0.49354  0.96780  0.19162  1.0000 -0.4399125996
I   I4        1.0  0.03220  0.50646  0.69162  1.0000 -0.4399125996
I   I5        1.0  0.54550  0.25616  0.99929  1.0000 -0.4399125996
I   I6        1.0  0.74384  0.45450  0.49929  1.0000 -0.4450594051
I   I7        1.0  0.36513  0.15681  0.10754  1.0000 -0.4399125996
I   I8        1.0  0.84319  0.63487  0.60754  1.0000 -0.4399125996
I   I9        1.0  0.12643  0.15719  0.86506  1.0000 -0.4399125996
I   I10       1.0  0.84281  0.87357  0.36506  1.0000 -0.4399125996
I   I11       1.0  0.13254  0.34364  0.93158  1.0000 -0.4295448674
I   I12       1.0  0.65636  0.86746  0.43158  1.0000 -0.4295448674
I   I13       1.0  0.80437  0.54327  0.20823  1.0000 -0.4295448674
I   I14       1.0  0.45673  0.19563  0.70823  1.0000 -0.4295448674
I   I15       1.0  0.96780  0.49354  0.30838  1.0000 -0.4399125996
I   I16       1.0  0.50646  0.03220  0.80838  1.0000 -0.4399125996
I   I17       1.0  0.25616  0.54550  0.50071  1.0000 -0.4399125996
I   I18       1.0  0.45450  0.74384  0.00071  1.0000 -0.4399125996
I   I19       1.0  0.15681  0.36513  0.39246  1.0000 -0.4399125996
I   I20       1.0  0.63487  0.84319  0.89246  1.0000 -0.4399125996
I   I21       1.0  0.15719  0.12643  0.63494  1.0000 -0.4399125996
I   I22       1.0  0.87357  0.84281  0.13494  1.0000 -0.4399125996
I   I23       1.0  0.34364  0.13254  0.56842  1.0000 -0.4295448674
I   I24       1.0  0.86746  0.65636  0.06842  1.0000 -0.4295448674
N   N1        1.0  0.32000  0.69440  0.21410  1.0000 -0.1718025854
N   N2        1.0  0.30560  0.68000  0.71410  1.0000 -0.1718025854
N   N3        1.0  0.94970  0.43110  0.19360  1.0000 -0.3865368255
N   N4        1.0  0.56890  0.05030  0.69360  1.0000 -0.3865368255
N   N5        1.0  0.83020  0.27740  0.23050  1.0000 -0.3827721216
N   N6        1.0  0.72260  0.16980  0.73050  1.0000 -0.3827721216
N   N7        1.0  0.99830  0.36630  0.25040  1.0000 -0.3827721216
N   N8        1.0  0.63370  0.00170  0.75040  1.0000 -0.3827721216
N   N9        1.0  0.62980  0.30380  0.11540  1.0000 -0.1804914227
N   N10       1.0  0.69620  0.37020  0.61540  1.0000 -0.1804914227
N   N11       1.0  0.83550  0.06230  0.35080  1.0000 -0.1804914227
N   N12       1.0  0.93770  0.16450  0.85080  1.0000 -0.1804914227
N   N13       1.0  0.56440  0.41160  0.06450  1.0000 -0.1928328065
N   N14       1.0  0.58840  0.43560  0.56450  1.0000 -0.1928328065
N   N15       1.0  0.70390  0.75010  0.02660  1.0000 -0.3827721216
N   N16       1.0  0.24990  0.29610  0.52660  1.0000 -0.3827721216
N   N17       1.0  0.70190  0.85190  0.05550  1.0000 -0.3865368255
N   N18       1.0  0.14810  0.29810  0.55550  1.0000 -0.3865368255
N   N19       1.0  0.61000  0.68900  0.08600  1.0000 -0.3865368255
N   N20       1.0  0.31100  0.39000  0.58600  1.0000 -0.3865368255
N   N21       1.0  0.95290  0.07610  0.94350  1.0000 -0.1928328065
N   N22       1.0  0.92390  0.04710  0.44350  1.0000 -0.1928328065
N   N23       1.0  0.51830  0.80390  0.17060  1.0000 -0.1804914227
N   N24       1.0  0.19610  0.48170  0.67060  1.0000 -0.1804914227
N   N25       1.0  0.69440  0.32000  0.28590  1.0000 -0.1718025854
N   N26       1.0  0.68000  0.30560  0.78590  1.0000 -0.1718025854
N   N27       1.0  0.43110  0.94970  0.30640  1.0000 -0.3865368255
N   N28       1.0  0.05030  0.56890  0.80640  1.0000 -0.3865368255
N   N29       1.0  0.27740  0.83020  0.26950  1.0000 -0.3827721216
N   N30       1.0  0.16980  0.72260  0.76950  1.0000 -0.3827721216
N   N31       1.0  0.36630  0.99830  0.24960  1.0000 -0.3827721216
N   N32       1.0  0.00170  0.63370  0.74960  1.0000 -0.3827721216
N   N33       1.0  0.30380  0.62980  0.38460  1.0000 -0.1804914227
N   N34       1.0  0.37020  0.69620  0.88460  1.0000 -0.1804914227
N   N35       1.0  0.06230  0.83550  0.14920  1.0000 -0.1804914227
N   N36       1.0  0.16450  0.93770  0.64920  1.0000 -0.1804914227
N   N37       1.0  0.41160  0.56440  0.43550  1.0000 -0.1928328065
N   N38       1.0  0.43560  0.58840  0.93550  1.0000 -0.1928328065
N   N39       1.0  0.75010  0.70390  0.47340  1.0000 -0.3827721216
N   N40       1.0  0.29610  0.24990  0.97340  1.0000 -0.3827721216
N   N41       1.0  0.85190  0.70190  0.44450  1.0000 -0.3865368255
N   N42       1.0  0.29810  0.14810  0.94450  1.0000 -0.3865368255
N   N43       1.0  0.68900  0.61000  0.41400  1.0000 -0.3865368255
N   N44       1.0  0.39000  0.31100  0.91400  1.0000 -0.3865368255
N   N45       1.0  0.07610  0.95290  0.55650  1.0000 -0.1928328065
N   N46       1.0  0.04710  0.92390  0.05650  1.0000 -0.1928328065
N   N47       1.0  0.80390  0.51830  0.32940  1.0000 -0.1804914227
N   N48       1.0  0.48170  0.19610  0.82940  1.0000 -0.1804914227
