# DDEC6 charges by PACMAN v1.1 (https://github.com/mtap-research/PACMAN-charge/)
data_2013[Tb][tcs]3[ASR]1
_chemical_formula_sum              "Tb2 H21 C39 N3 O12"
_cell_length_a       9.9199
_cell_length_b       10.4905
_cell_length_c       13.4316
_cell_angle_alpha    105.687
_cell_angle_beta     101.88
_cell_angle_gamma    94.436

_symmetry_space_group_name_H-M    "P 1"
_symmetry_Int_Tables_number       1

loop_
  _symmetry_equiv_pos_as_xyz
  'x, y, z'

loop_
  _atom_site_type_symbol
  _atom_site_label
  _atom_site_symmetry_multiplicity
  _atom_site_fract_x
  _atom_site_fract_y
  _atom_site_fract_z
  _atom_site_occupancy
  _atom_site_charge
Tb  Tb1       1.0  0.74974  0.50122  0.49453  1.0000 2.0973954352
Tb  Tb2       1.0  0.25247  0.50053  0.50708  1.0000 2.0973954352
H   H1        1.0  0.65149  0.86763  0.37675  1.0000 0.0819039347
H   H2        1.0  0.33966  0.08894  0.29725  1.0000 0.0944525602
H   H3        1.0  0.24471  0.75995  0.42150  1.0000 0.1093986737
H   H4        1.0  0.03680  0.75625  0.30081  1.0000 0.1013558178
H   H5        1.0  0.79456  0.80813  0.29607  1.0000 0.1013558178
H   H6        1.0  0.75599  0.05193  0.36074  1.0000 0.1013558178
H   H7        1.0  0.19568  0.17727  0.42074  1.0000 0.1013558178
H   H8        1.0  0.34852  0.13228  0.62336  1.0000 0.0819039347
H   H9        1.0  0.66069  0.91115  0.70286  1.0000 0.1013558178
H   H10       1.0  0.75535  0.24006  0.57856  1.0000 0.1093986737
H   H11       1.0  0.96325  0.24368  0.69788  1.0000 0.1013558178
H   H12       1.0  0.20540  0.19195  0.70448  1.0000 0.1013558178
H   H13       1.0  0.24400  0.94809  0.63948  1.0000 0.1013558178
H   H14       1.0  0.80431  0.82253  0.57955  1.0000 0.1013558178
H   H15       1.0  0.22711  0.20307  0.15577  1.0000 0.1013558178
H   H16       1.0  0.99651  0.25992  0.88217  1.0000 0.0819039347
H   H17       1.0  0.03338  0.56134  0.18447  1.0000 0.1093986737
H   H18       1.0  0.84656  0.60565  0.11148  1.0000 0.1013558178
H   H19       1.0  0.71070  0.75611  0.03124  1.0000 0.1093986737
H   H20       1.0  0.69595  0.73861  0.83658  1.0000 0.1160217899
H   H21       1.0  0.96331  0.43385  0.81560  1.0000 0.1093986737
C   C1        1.0  0.50659  0.68441  0.43963  1.0000 0.6804279389
C   C2        1.0  0.45310  0.79504  0.39884  1.0000 -0.0894878356
C   C3        1.0  0.54204  0.88035  0.36824  1.0000 0.0819039347
C   C4        1.0  0.36947  0.00548  0.32745  1.0000 0.0540415163
C   C5        1.0  0.27297  0.92979  0.36040  1.0000 0.026398658
C   C6        1.0  0.31598  0.82134  0.39550  1.0000 -0.0894878356
C   C7        1.0  0.13097  0.96350  0.35859  1.0000 0.0690059019
C   C8        1.0  0.01694  0.86023  0.32475  1.0000 -0.1177604792
C   C9        1.0  0.88196  0.89052  0.32346  1.0000 -0.0804618327
C   C10       1.0  0.85979  0.02459  0.35861  1.0000 -0.0804618327
C   C11       1.0  0.97296  0.12861  0.39350  1.0000 -0.0295152674
C   C12       1.0  0.10835  0.09737  0.39249  1.0000 -0.1375607697
C   C13       1.0  0.95141  0.27226  0.43456  1.0000 0.6804279389
C   C14       1.0  0.81066  0.56481  0.70462  1.0000 0.5690605196
C   C15       1.0  0.49386  0.31577  0.56060  1.0000 0.6804279389
C   C16       1.0  0.54694  0.20489  0.60120  1.0000 -0.0894878356
C   C17       1.0  0.45792  0.11945  0.63171  1.0000 0.0819039347
C   C18       1.0  0.63055  0.99437  0.67247  1.0000 0.0578077978
C   C19       1.0  0.72705  0.07013  0.63946  1.0000 0.026398658
C   C20       1.0  0.68400  0.17866  0.60456  1.0000 -0.0894878356
C   C21       1.0  0.86891  0.03635  0.64099  1.0000 0.0690059019
C   C22       1.0  0.98296  0.13966  0.67436  1.0000 -0.1177604792
C   C23       1.0  0.11806  0.10955  0.67626  1.0000 -0.0727180017
C   C24       1.0  0.14018  0.97552  0.64137  1.0000 -0.0804618327
C   C25       1.0  0.02704  0.87148  0.60645  1.0000 -0.0295152674
C   C26       1.0  0.89157  0.90246  0.60747  1.0000 -0.1311628816
C   C27       1.0  0.04901  0.72812  0.56537  1.0000 0.6804279389
C   C28       1.0  0.18265  0.42908  0.29684  1.0000 0.5778608474
C   C29       1.0  0.13317  0.38602  0.18095  1.0000 -0.0804618327
C   C30       1.0  0.16301  0.26606  0.11861  1.0000 0.0944525602
C   C31       1.0  0.03581  0.30160  0.96805  1.0000 0.0578077978
C   C32       1.0  0.00282  0.42546  0.02348  1.0000 0.0242981187
C   C33       1.0  0.05333  0.46717  0.13376  1.0000 -0.0894878356
C   C34       1.0  0.91785  0.50934  0.97146  1.0000 0.0690059019
C   C35       1.0  0.84398  0.60109  0.02898  1.0000 -0.1130726186
C   C36       1.0  0.76571  0.68555  0.98374  1.0000 -0.0894878356
C   C37       1.0  0.75654  0.67634  0.87685  1.0000 -0.0804618327
C   C38       1.0  0.82625  0.58271  0.81880  1.0000 -0.0295152674
C   C39       1.0  0.90826  0.50099  0.86467  1.0000 -0.1311628816
N   N1        1.0  0.50233  0.98286  0.33116  1.0000 -0.2635746745
N   N2        1.0  0.49764  0.01685  0.66871  1.0000 -0.2635746745
N   N3        1.0  0.11437  0.22203  0.01188  1.0000 -0.2770114688
O   O1        1.0  0.62659  0.65302  0.42857  1.0000 -0.6868224291
O   O2        1.0  0.43036  0.62653  0.48494  1.0000 -0.7122958449
O   O3        1.0  0.05892  0.36014  0.48161  1.0000 -0.7291089145
O   O4        1.0  0.82670  0.30211  0.42227  1.0000 -0.6820871977
O   O5        1.0  0.87299  0.47569  0.65178  1.0000 -0.6595206109
O   O6        1.0  0.73108  0.63330  0.65723  1.0000 -0.6595206109
O   O7        1.0  0.37354  0.34682  0.57111  1.0000 -0.6868224291
O   O8        1.0  0.57086  0.37445  0.51622  1.0000 -0.7122958449
O   O9        1.0  0.94192  0.64031  0.51695  1.0000 -0.7245458809
O   O10       1.0  0.17382  0.69839  0.57858  1.0000 -0.6820871977
O   O11       1.0  0.13281  0.52858  0.35041  1.0000 -0.6595206109
O   O12       1.0  0.27162  0.36866  0.34369  1.0000 -0.6457797137
