# DDEC6 charges by PACMAN v1.1 (https://github.com/mtap-research/PACMAN-charge/)
data_2013[Zn][crb]3[ASR]1
_chemical_formula_sum              "Zn4 H48 C72 N8 O12"
_cell_length_a       5.2351
_cell_length_b       18.9281
_cell_length_c       18.9281
_cell_angle_alpha    88.9042
_cell_angle_beta     82.0512
_cell_angle_gamma    82.0513

_symmetry_space_group_name_H-M    "P 1"
_symmetry_Int_Tables_number       1

loop_
  _symmetry_equiv_pos_as_xyz
  'x, y, z'

loop_
  _atom_site_type_symbol
  _atom_site_label
  _atom_site_symmetry_multiplicity
  _atom_site_fract_x
  _atom_site_fract_y
  _atom_site_fract_z
  _atom_site_occupancy
  _atom_site_charge
Zn  Zn1       1.0  0.29866  0.51149  0.05905  1.0000 0.8752349294
Zn  Zn2       1.0  0.86920  0.48851  0.94095  1.0000 0.8909703172
Zn  Zn3       1.0  0.64229  0.05905  0.48851  1.0000 0.8984288252
Zn  Zn4       1.0  0.18985  0.94095  0.51149  1.0000 0.8679349697
H   H1        1.0  0.95930  0.59710  0.18770  1.0000 0.1188304628
H   H2        1.0  0.66080  0.63240  0.00760  1.0000 0.1407606007
H   H3        1.0  0.98970  0.70740  0.95120  1.0000 0.1188304628
H   H4        1.0  0.14850  0.81560  0.94160  1.0000 0.1023207535
H   H5        1.0  0.94890  0.91200  0.01460  1.0000 0.1087580201
H   H6        1.0  0.59440  0.90100  0.09740  1.0000 0.1188304628
H   H7        1.0  0.28270  0.82650  0.16170  1.0000 0.1296514491
H   H8        1.0  0.90500  0.63750  0.29890  1.0000 0.1407606007
H   H9        1.0  0.71690  0.69210  0.40970  1.0000 0.1296514491
H   H10       1.0  0.62890  0.88240  0.30940  1.0000 0.1188304628
H   H11       1.0  0.83840  0.82730  0.20230  1.0000 0.1188304628
H   H12       1.0  0.74410  0.40290  0.81230  1.0000 0.1188304628
H   H13       1.0  0.30080  0.36760  0.99240  1.0000 0.1407606007
H   H14       1.0  0.64830  0.29260  0.04880  1.0000 0.1188304628
H   H15       1.0  0.90570  0.18440  0.05840  1.0000 0.1023207535
H   H16       1.0  0.87550  0.08800  0.98540  1.0000 0.1087580201
H   H17       1.0  0.59280  0.09900  0.90260  1.0000 0.1188304628
H   H18       1.0  0.27090  0.17350  0.83830  1.0000 0.1296514491
H   H19       1.0  0.84140  0.36250  0.70110  1.0000 0.1407606007
H   H20       1.0  0.81870  0.30790  0.59030  1.0000 0.1296514491
H   H21       1.0  0.82070  0.11760  0.69060  1.0000 0.1188304628
H   H22       1.0  0.86800  0.17270  0.79770  1.0000 0.1188304628
H   H23       1.0  0.85300  0.18770  0.40290  1.0000 0.1188304628
H   H24       1.0  0.33160  0.00760  0.36760  1.0000 0.1407606007
H   H25       1.0  0.05910  0.95120  0.29260  1.0000 0.1188304628
H   H26       1.0  0.90990  0.94160  0.18440  1.0000 0.1023207535
H   H27       1.0  0.03650  0.01460  0.08800  1.0000 0.1087580201
H   H28       1.0  0.30820  0.09740  0.09900  1.0000 0.1188304628
H   H29       1.0  0.55560  0.16170  0.17350  1.0000 0.1296514491
H   H30       1.0  0.79610  0.29890  0.36250  1.0000 0.1407606007
H   H31       1.0  0.87340  0.40970  0.30790  1.0000 0.1296514491
H   H32       1.0  0.06170  0.30940  0.11760  1.0000 0.1087580201
H   H33       1.0  0.95930  0.20230  0.17270  1.0000 0.1188304628
H   H34       1.0  0.44360  0.81230  0.59710  1.0000 0.1188304628
H   H35       1.0  0.70680  0.99240  0.63240  1.0000 0.1407606007
H   H36       1.0  0.30290  0.04880  0.70740  1.0000 0.1188304628
H   H37       1.0  0.03590  0.05840  0.81560  1.0000 0.1023207535
H   H38       1.0  0.13910  0.98540  0.91200  1.0000 0.1087580201
H   H39       1.0  0.50460  0.90260  0.90100  1.0000 0.1188304628
H   H40       1.0  0.89080  0.83830  0.82650  1.0000 0.1296514491
H   H41       1.0  0.45750  0.70110  0.63750  1.0000 0.1407606007
H   H42       1.0  0.59100  0.59030  0.69210  1.0000 0.1296514491
H   H43       1.0  0.48870  0.69060  0.88240  1.0000 0.1087580201
H   H44       1.0  0.33430  0.79770  0.82730  1.0000 0.1188304628
H   H45       1.0  0.65790  0.42205  0.03092  1.0000 0.3536133147
H   H46       1.0  0.15642  0.07803  0.53015  1.0000 0.343073783
H   H47       1.0  0.16270  0.57795  0.96908  1.0000 0.3603193439
H   H48       1.0  0.86721  0.91725  0.47590  1.0000 0.3603193439
C   C1        1.0  0.07534  0.62713  0.16419  1.0000 0.148844914
C   C2        1.0  0.38017  0.66560  0.09026  1.0000 0.1407606007
C   C3        1.0  0.58637  0.67147  0.03799  1.0000 -0.2409649068
C   C4        1.0  0.68300  0.73726  0.03114  1.0000 0.0808592574
C   C5        1.0  0.90640  0.74607  0.98093  1.0000 -0.1621955061
C   C6        1.0  0.00077  0.81001  0.97545  1.0000 -0.1015173853
C   C7        1.0  0.88149  0.86777  0.01945  1.0000 -0.1015173853
C   C8        1.0  0.67252  0.86126  0.06850  1.0000 -0.1621955061
C   C9        1.0  0.56733  0.79516  0.07738  1.0000 0.0808592574
C   C10       1.0  0.35934  0.78794  0.13098  1.0000 -0.2302274355
C   C11       1.0  0.27093  0.72293  0.13721  1.0000 0.1023207535
C   C12       1.0  0.92164  0.72954  0.24558  1.0000 0.1638448066
C   C13       1.0  0.86220  0.68790  0.30250  1.0000 -0.1873414242
C   C14       1.0  0.73680  0.71930  0.36710  1.0000 -0.0677358867
C   C15       1.0  0.63941  0.79396  0.36622  1.0000 -0.0099220302
C   C16       1.0  0.68600  0.83250  0.30830  1.0000 -0.0939369709
C   C17       1.0  0.81919  0.80037  0.24505  1.0000 -0.198526735
C   C18       1.0  0.47910  0.83000  0.43180  1.0000 0.5287467516
C   C19       1.0  0.86666  0.37287  0.83581  1.0000 0.148844914
C   C20       1.0  0.13603  0.33440  0.90974  1.0000 0.1407606007
C   C21       1.0  0.29583  0.32853  0.96201  1.0000 -0.2409649068
C   C22       1.0  0.45140  0.26274  0.96886  1.0000 0.0808592574
C   C23       1.0  0.63340  0.25393  0.01907  1.0000 -0.1621955061
C   C24       1.0  0.78623  0.18999  0.02455  1.0000 -0.1015173853
C   C25       1.0  0.76871  0.13223  0.98055  1.0000 -0.1015173853
C   C26       1.0  0.60228  0.13874  0.93150  1.0000 -0.1621955061
C   C27       1.0  0.43987  0.20484  0.92262  1.0000 0.0808592574
C   C28       1.0  0.27826  0.21206  0.86902  1.0000 -0.2302274355
C   C29       1.0  0.13107  0.27707  0.86279  1.0000 0.1023207535
C   C30       1.0  0.89676  0.27046  0.75442  1.0000 0.165047673
C   C31       1.0  0.85260  0.31210  0.69750  1.0000 -0.1873414242
C   C32       1.0  0.82320  0.28070  0.63290  1.0000 -0.0677358867
C   C33       1.0  0.79959  0.20604  0.63378  1.0000 -0.0152250896
C   C34       1.0  0.82680  0.16750  0.69170  1.0000 -0.0939369709
C   C35       1.0  0.86461  0.19963  0.75495  1.0000 -0.198526735
C   C36       1.0  0.74090  0.17000  0.56820  1.0000 0.5374775009
C   C37       1.0  0.76047  0.16419  0.37287  1.0000 0.148844914
C   C38       1.0  0.52957  0.09026  0.33440  1.0000 0.1407606007
C   C39       1.0  0.37564  0.03799  0.32853  1.0000 -0.2302274355
C   C40       1.0  0.28586  0.03114  0.26274  1.0000 0.0808592574
C   C41       1.0  0.11267  0.98093  0.25393  1.0000 -0.1500584209
C   C42       1.0  0.02378  0.97545  0.18999  1.0000 -0.1063407031
C   C43       1.0  0.09906  0.01945  0.13223  1.0000 -0.1063407031
C   C44       1.0  0.25898  0.06850  0.13874  1.0000 -0.1657695198
C   C45       1.0  0.35529  0.07738  0.20484  1.0000 0.0808592574
C   C46       1.0  0.50968  0.13098  0.21206  1.0000 -0.2302274355
C   C47       1.0  0.59186  0.13721  0.27707  1.0000 0.1023207535
C   C48       1.0  0.83278  0.24558  0.27046  1.0000 0.1638448066
C   C49       1.0  0.83530  0.30250  0.31210  1.0000 -0.1873414242
C   C50       1.0  0.89610  0.36710  0.28070  1.0000 -0.0677358867
C   C51       1.0  0.99437  0.36622  0.20604  1.0000 -0.0099220302
C   C52       1.0  0.00570  0.30830  0.16750  1.0000 -0.1015173853
C   C53       1.0  0.93576  0.24505  0.19963  1.0000 -0.198526735
C   C54       1.0  0.08910  0.43180  0.17000  1.0000 0.5374775009
C   C55       1.0  0.29753  0.83581  0.62713  1.0000 0.148844914
C   C56       1.0  0.95423  0.90974  0.66560  1.0000 0.1407606007
C   C57       1.0  0.74216  0.96201  0.67147  1.0000 -0.2302274355
C   C58       1.0  0.57974  0.96886  0.73726  1.0000 0.0808592574
C   C59       1.0  0.34753  0.01907  0.74607  1.0000 -0.1500584209
C   C60       1.0  0.18922  0.02455  0.81001  1.0000 -0.1063407031
C   C61       1.0  0.25074  0.98055  0.86777  1.0000 -0.1063407031
C   C62       1.0  0.46622  0.93150  0.86126  1.0000 -0.1657695198
C   C63       1.0  0.63751  0.92262  0.79516  1.0000 0.0808592574
C   C64       1.0  0.85272  0.86902  0.78794  1.0000 -0.2302274355
C   C65       1.0  0.00614  0.86279  0.72293  1.0000 0.1023207535
C   C66       1.0  0.34882  0.75442  0.72954  1.0000 0.1638448066
C   C67       1.0  0.44990  0.69750  0.68790  1.0000 -0.1873414242
C   C68       1.0  0.54390  0.63290  0.71930  1.0000 -0.0677358867
C   C69       1.0  0.56663  0.63378  0.79396  1.0000 -0.0099220302
C   C70       1.0  0.48150  0.69170  0.83250  1.0000 -0.1015173853
C   C71       1.0  0.38044  0.75495  0.80037  1.0000 -0.198526735
C   C72       1.0  0.69090  0.56820  0.83000  1.0000 0.5374775009
N   N1        1.0  0.25016  0.60678  0.10970  1.0000 -0.3615022623
N   N2        1.0  0.07667  0.69613  0.18373  1.0000 -0.0542606623
N   N3        1.0  0.96664  0.39322  0.89030  1.0000 -0.3615022623
N   N4        1.0  0.95653  0.30387  0.81627  1.0000 -0.0542606623
N   N5        1.0  0.64014  0.10970  0.39322  1.0000 -0.3615022623
N   N6        1.0  0.73960  0.18373  0.30387  1.0000 -0.0542606623
N   N7        1.0  0.14306  0.89030  0.60678  1.0000 -0.3547769808
N   N8        1.0  0.22720  0.81627  0.69613  1.0000 -0.0542606623
O   O1        1.0  0.16270  0.52511  0.97009  1.0000 -0.8468116446
O   O2        1.0  0.46113  0.88818  0.44316  1.0000 -0.4129917794
O   O3        1.0  0.46210  0.78180  0.48800  1.0000 -0.5985123241
O   O4        1.0  0.65790  0.47489  0.02991  1.0000 -0.8366109454
O   O5        1.0  0.79247  0.11182  0.55684  1.0000 -0.4285911643
O   O6        1.0  0.73190  0.21820  0.51200  1.0000 -0.5985123241
O   O7        1.0  0.86721  0.97009  0.47489  1.0000 -0.8468116446
O   O8        1.0  0.09571  0.44316  0.11182  1.0000 -0.4129917794
O   O9        1.0  0.04990  0.48800  0.21820  1.0000 -0.5985123241
O   O10       1.0  0.31219  0.02991  0.52511  1.0000 -0.8468116446
O   O11       1.0  0.65069  0.55684  0.88818  1.0000 -0.4188340926
O   O12       1.0  0.75610  0.51200  0.78180  1.0000 -0.5985123241
