# DDEC6 charges by PACMAN v1.1 (https://github.com/mtap-research/PACMAN-charge/)
data_2013[Co][hex]3[ASR]1
_chemical_formula_sum              "Co14 H64 C96 N8 O48"
_cell_length_a       13.111
_cell_length_b       13.848
_cell_length_c       19.978
_cell_angle_alpha    90
_cell_angle_beta     90
_cell_angle_gamma    90

_symmetry_space_group_name_H-M    "P 1"
_symmetry_Int_Tables_number       1

loop_
  _symmetry_equiv_pos_as_xyz
  'x, y, z'

loop_
  _atom_site_type_symbol
  _atom_site_label
  _atom_site_symmetry_multiplicity
  _atom_site_fract_x
  _atom_site_fract_y
  _atom_site_fract_z
  _atom_site_occupancy
  _atom_site_charge
Co  Co1       1.0  0.33695  0.50000  0.00000  1.0000 1.1379339883
Co  Co2       1.0  0.33695  0.00000  0.50000  1.0000 1.1379339883
Co  Co3       1.0  0.41293  0.70200  0.09747  1.0000 0.9676899502
Co  Co4       1.0  0.41293  0.29800  0.90253  1.0000 0.9676899502
Co  Co5       1.0  0.41293  0.20200  0.40253  1.0000 0.9676899502
Co  Co6       1.0  0.41293  0.79800  0.59747  1.0000 0.9676899502
Co  Co7       1.0  0.59468  0.60368  0.02522  1.0000 1.0557049105
Co  Co8       1.0  0.59468  0.39632  0.97478  1.0000 1.0557049105
Co  Co9       1.0  0.59468  0.10368  0.47478  1.0000 1.0557049105
Co  Co10      1.0  0.59468  0.89632  0.52522  1.0000 1.0557049105
Co  Co11      1.0  0.74073  0.52526  0.88500  1.0000 0.9334963748
Co  Co12      1.0  0.74073  0.47474  0.11500  1.0000 0.9334963748
Co  Co13      1.0  0.74073  0.02526  0.61500  1.0000 0.9334963748
Co  Co14      1.0  0.74073  0.97474  0.38500  1.0000 0.9334963748
H   H1        1.0  0.42740  0.65420  0.97960  1.0000 0.3773965949
H   H2        1.0  0.42740  0.34580  0.02040  1.0000 0.3773965949
H   H3        1.0  0.42740  0.15420  0.52040  1.0000 0.3773965949
H   H4        1.0  0.42740  0.84580  0.47960  1.0000 0.3773965949
H   H5        1.0  0.54930  0.55270  0.90460  1.0000 0.3773965949
H   H6        1.0  0.54930  0.44730  0.09540  1.0000 0.3773965949
H   H7        1.0  0.54930  0.05270  0.59540  1.0000 0.3773965949
H   H8        1.0  0.54930  0.94730  0.40460  1.0000 0.3773965949
H   H9        1.0  0.82230  0.74700  0.10890  1.0000 0.1187704567
H   H10       1.0  0.82230  0.25300  0.89110  1.0000 0.1187704567
H   H11       1.0  0.82230  0.24700  0.39110  1.0000 0.1187704567
H   H12       1.0  0.82230  0.75300  0.60890  1.0000 0.1187704567
H   H13       1.0  0.94990  0.82820  0.16190  1.0000 0.1086182317
H   H14       1.0  0.94990  0.17180  0.83810  1.0000 0.1086182317
H   H15       1.0  0.94990  0.32820  0.33810  1.0000 0.1086182317
H   H16       1.0  0.94990  0.67180  0.66190  1.0000 0.1086182317
H   H17       1.0  0.11830  0.79870  0.13440  1.0000 0.1187704567
H   H18       1.0  0.11830  0.20130  0.86560  1.0000 0.1187704567
H   H19       1.0  0.11830  0.29870  0.36560  1.0000 0.1187704567
H   H20       1.0  0.11830  0.70130  0.63440  1.0000 0.1187704567
H   H21       1.0  0.02630  0.61510  0.99170  1.0000 0.1391831899
H   H22       1.0  0.02630  0.38490  0.00830  1.0000 0.1391831899
H   H23       1.0  0.02630  0.11510  0.50830  1.0000 0.1391831899
H   H24       1.0  0.02630  0.88490  0.49170  1.0000 0.1391831899
H   H25       1.0  0.84180  0.00000  0.00000  1.0000 0.1187704567
H   H26       1.0  0.84180  0.50000  0.50000  1.0000 0.1187704567
H   H27       1.0  0.75310  0.85570  0.99710  1.0000 0.1187704567
H   H28       1.0  0.75310  0.14430  0.00290  1.0000 0.1187704567
H   H29       1.0  0.75310  0.35570  0.50290  1.0000 0.1187704567
H   H30       1.0  0.75310  0.64430  0.49710  1.0000 0.1187704567
H   H31       1.0  0.48910  0.00000  0.00000  1.0000 0.1320775786
H   H32       1.0  0.48910  0.50000  0.50000  1.0000 0.1320775786
H   H33       1.0  0.69100  0.76070  0.37930  1.0000 0.1187704567
H   H34       1.0  0.69100  0.23930  0.62070  1.0000 0.1187704567
H   H35       1.0  0.69100  0.26070  0.12070  1.0000 0.1187704567
H   H36       1.0  0.69100  0.73930  0.87930  1.0000 0.1187704567
H   H37       1.0  0.65120  0.64030  0.30550  1.0000 0.1391831899
H   H38       1.0  0.65120  0.35970  0.69450  1.0000 0.1391831899
H   H39       1.0  0.65120  0.14030  0.19450  1.0000 0.1391831899
H   H40       1.0  0.65120  0.85970  0.80550  1.0000 0.1391831899
H   H41       1.0  0.65470  0.83720  0.15900  1.0000 0.1391831899
H   H42       1.0  0.65470  0.16280  0.84100  1.0000 0.1391831899
H   H43       1.0  0.65470  0.33720  0.34100  1.0000 0.1391831899
H   H44       1.0  0.65470  0.66280  0.65900  1.0000 0.1391831899
H   H45       1.0  0.70290  0.95060  0.23580  1.0000 0.1086182317
H   H46       1.0  0.70290  0.04940  0.76420  1.0000 0.1086182317
H   H47       1.0  0.70290  0.45060  0.26420  1.0000 0.1086182317
H   H48       1.0  0.70290  0.54940  0.73580  1.0000 0.1086182317
H   H49       1.0  0.38470  0.79310  0.74820  1.0000 0.1086182317
H   H50       1.0  0.38470  0.20690  0.25180  1.0000 0.1086182317
H   H51       1.0  0.38470  0.29310  0.75180  1.0000 0.1086182317
H   H52       1.0  0.38470  0.70690  0.24820  1.0000 0.1086182317
H   H53       1.0  0.37100  0.69280  0.83660  1.0000 0.1391831899
H   H54       1.0  0.37100  0.30720  0.16340  1.0000 0.1391831899
H   H55       1.0  0.37100  0.19280  0.66340  1.0000 0.1391831899
H   H56       1.0  0.37100  0.80720  0.33660  1.0000 0.1391831899
H   H57       1.0  0.39830  0.47160  0.71350  1.0000 0.1320775786
H   H58       1.0  0.39830  0.52840  0.28650  1.0000 0.1320775786
H   H59       1.0  0.39830  0.97160  0.78650  1.0000 0.1320775786
H   H60       1.0  0.39830  0.02840  0.21350  1.0000 0.1320775786
H   H61       1.0  0.41430  0.57910  0.62750  1.0000 0.1086182317
H   H62       1.0  0.41430  0.42090  0.37250  1.0000 0.1086182317
H   H63       1.0  0.41430  0.07910  0.87250  1.0000 0.1086182317
H   H64       1.0  0.41430  0.92090  0.12750  1.0000 0.1086182317
C   C1        1.0  0.82490  0.62450  0.00770  1.0000 0.6005010197
C   C2        1.0  0.82490  0.37550  0.99230  1.0000 0.6005010197
C   C3        1.0  0.82490  0.12450  0.49230  1.0000 0.6005010197
C   C4        1.0  0.82490  0.87550  0.50770  1.0000 0.6005010197
C   C5        1.0  0.20020  0.67350  0.04810  1.0000 0.5887155721
C   C6        1.0  0.20020  0.32650  0.95190  1.0000 0.5887155721
C   C7        1.0  0.20020  0.17350  0.45190  1.0000 0.5887155721
C   C8        1.0  0.20020  0.82650  0.54810  1.0000 0.5887155721
C   C9        1.0  0.91100  0.67460  0.04380  1.0000 -0.0220990738
C   C10       1.0  0.91100  0.32540  0.95620  1.0000 -0.0220990738
C   C11       1.0  0.91100  0.17460  0.45620  1.0000 -0.0220990738
C   C12       1.0  0.91100  0.82540  0.54380  1.0000 -0.0220990738
C   C13       1.0  0.88960  0.73710  0.09590  1.0000 -0.1287105417
C   C14       1.0  0.88960  0.26290  0.90410  1.0000 -0.1287105417
C   C15       1.0  0.88960  0.23710  0.40410  1.0000 -0.1287105417
C   C16       1.0  0.88960  0.76290  0.59590  1.0000 -0.1287105417
C   C17       1.0  0.96560  0.78400  0.12840  1.0000 -0.101183497
C   C18       1.0  0.96560  0.21600  0.87160  1.0000 -0.101183497
C   C19       1.0  0.96560  0.28400  0.37160  1.0000 -0.101183497
C   C20       1.0  0.96560  0.71600  0.62840  1.0000 -0.101183497
C   C21       1.0  0.06630  0.76660  0.11190  1.0000 -0.101183497
C   C22       1.0  0.06630  0.23340  0.88810  1.0000 -0.101183497
C   C23       1.0  0.06630  0.26660  0.38810  1.0000 -0.101183497
C   C24       1.0  0.06630  0.73340  0.61190  1.0000 -0.101183497
C   C25       1.0  0.08950  0.70110  0.06180  1.0000 -0.0083868483
C   C26       1.0  0.08950  0.29890  0.93820  1.0000 -0.0083868483
C   C27       1.0  0.08950  0.20110  0.43820  1.0000 -0.0083868483
C   C28       1.0  0.08950  0.79890  0.56180  1.0000 -0.0083868483
C   C29       1.0  0.01130  0.65690  0.02680  1.0000 -0.110749509
C   C30       1.0  0.01130  0.34310  0.97320  1.0000 -0.110749509
C   C31       1.0  0.01130  0.15690  0.47320  1.0000 -0.110749509
C   C32       1.0  0.01130  0.84310  0.52680  1.0000 -0.110749509
C   C33       1.0  0.56040  0.81770  0.00960  1.0000 0.5720456728
C   C34       1.0  0.56040  0.18230  0.99040  1.0000 0.5720456728
C   C35       1.0  0.56040  0.31770  0.49040  1.0000 0.5720456728
C   C36       1.0  0.56040  0.68230  0.50960  1.0000 0.5720456728
C   C37       1.0  0.77080  0.00000  0.00000  1.0000 -0.101183497
C   C38       1.0  0.77080  0.50000  0.50000  1.0000 -0.101183497
C   C39       1.0  0.71770  0.91380  0.99970  1.0000 -0.110749509
C   C40       1.0  0.71770  0.08620  0.00030  1.0000 -0.110749509
C   C41       1.0  0.71770  0.41380  0.50030  1.0000 -0.110749509
C   C42       1.0  0.71770  0.58620  0.49970  1.0000 -0.110749509
C   C43       1.0  0.61300  0.91340  0.00320  1.0000 -0.0284931379
C   C44       1.0  0.61300  0.08660  0.99680  1.0000 -0.0284931379
C   C45       1.0  0.61300  0.41340  0.49680  1.0000 -0.0284931379
C   C46       1.0  0.61300  0.58660  0.50320  1.0000 -0.0284931379
C   C47       1.0  0.56010  0.00000  0.00000  1.0000 -0.1287105417
C   C48       1.0  0.56010  0.50000  0.50000  1.0000 -0.1287105417
C   C49       1.0  0.62820  0.64790  0.17250  1.0000 0.5887155721
C   C50       1.0  0.62820  0.35210  0.82750  1.0000 0.5887155721
C   C51       1.0  0.62820  0.14790  0.32750  1.0000 0.5887155721
C   C52       1.0  0.62820  0.85210  0.67250  1.0000 0.5887155721
C   C53       1.0  0.68530  0.77560  0.33410  1.0000 0.0809237512
C   C54       1.0  0.68530  0.22440  0.66590  1.0000 0.0809237512
C   C55       1.0  0.68530  0.27560  0.16590  1.0000 0.0809237512
C   C56       1.0  0.68530  0.72440  0.83410  1.0000 0.0809237512
C   C57       1.0  0.65960  0.70320  0.29030  1.0000 -0.1624314318
C   C58       1.0  0.65960  0.29680  0.70970  1.0000 -0.1624314318
C   C59       1.0  0.65960  0.20320  0.20970  1.0000 -0.1624314318
C   C60       1.0  0.65960  0.79680  0.79030  1.0000 -0.1624314318
C   C61       1.0  0.64630  0.72500  0.22360  1.0000 0.0209450016
C   C62       1.0  0.64630  0.27500  0.77640  1.0000 0.0209450016
C   C63       1.0  0.64630  0.22500  0.27640  1.0000 0.0209450016
C   C64       1.0  0.64630  0.77500  0.72360  1.0000 0.0209450016
C   C65       1.0  0.66280  0.81980  0.20360  1.0000 -0.1706718931
C   C66       1.0  0.66280  0.18020  0.79640  1.0000 -0.1706718931
C   C67       1.0  0.66280  0.31980  0.29640  1.0000 -0.1706718931
C   C68       1.0  0.66280  0.68020  0.70360  1.0000 -0.1706718931
C   C69       1.0  0.69120  0.88760  0.25010  1.0000 0.0809237512
C   C70       1.0  0.69120  0.11240  0.74990  1.0000 0.0809237512
C   C71       1.0  0.69120  0.38760  0.24990  1.0000 0.0809237512
C   C72       1.0  0.69120  0.61240  0.75010  1.0000 0.0809237512
C   C73       1.0  0.36870  0.50130  0.84540  1.0000 0.5791215191
C   C74       1.0  0.36870  0.49870  0.15460  1.0000 0.5791215191
C   C75       1.0  0.36870  0.00130  0.65460  1.0000 0.5791215191
C   C76       1.0  0.36870  0.99870  0.34540  1.0000 0.5791215191
C   C77       1.0  0.38750  0.72700  0.74030  1.0000 0.0635324755
C   C78       1.0  0.38750  0.27300  0.25970  1.0000 0.0635324755
C   C79       1.0  0.38750  0.22700  0.75970  1.0000 0.0635324755
C   C80       1.0  0.38750  0.77300  0.24030  1.0000 0.0635324755
C   C81       1.0  0.37850  0.66690  0.79390  1.0000 -0.1624314318
C   C82       1.0  0.37850  0.33310  0.20610  1.0000 -0.1624314318
C   C83       1.0  0.37850  0.16690  0.70610  1.0000 -0.1624314318
C   C84       1.0  0.37850  0.83310  0.29390  1.0000 -0.1624314318
C   C85       1.0  0.38040  0.56990  0.78600  1.0000 0.0296598861
C   C86       1.0  0.38040  0.43010  0.21400  1.0000 0.0296598861
C   C87       1.0  0.38040  0.06990  0.71400  1.0000 0.0296598861
C   C88       1.0  0.38040  0.93010  0.28600  1.0000 0.0296598861
C   C89       1.0  0.39480  0.53750  0.72220  1.0000 -0.1706718931
C   C90       1.0  0.39480  0.46250  0.27780  1.0000 -0.1706718931
C   C91       1.0  0.39480  0.03750  0.77780  1.0000 -0.1706718931
C   C92       1.0  0.39480  0.96250  0.22220  1.0000 -0.1706718931
C   C93       1.0  0.40430  0.60300  0.67050  1.0000 0.0655368307
C   C94       1.0  0.40430  0.39700  0.32950  1.0000 0.0655368307
C   C95       1.0  0.40430  0.10300  0.82950  1.0000 0.0655368307
C   C96       1.0  0.40430  0.89700  0.17050  1.0000 0.0655368307
N   N1        1.0  0.70260  0.86690  0.31464  1.0000 -0.2471097967
N   N2        1.0  0.70260  0.13310  0.68536  1.0000 -0.2471097967
N   N3        1.0  0.70260  0.36690  0.18536  1.0000 -0.2471097967
N   N4        1.0  0.70260  0.63310  0.81464  1.0000 -0.2471097967
N   N5        1.0  0.39990  0.69790  0.67834  1.0000 -0.2276715448
N   N6        1.0  0.39990  0.30210  0.32166  1.0000 -0.2276715448
N   N7        1.0  0.39990  0.19790  0.82166  1.0000 -0.2276715448
N   N8        1.0  0.39990  0.80210  0.17834  1.0000 -0.2276715448
O   O1        1.0  0.43770  0.61177  0.01828  1.0000 -0.9111415556
O   O2        1.0  0.43770  0.38823  0.98172  1.0000 -0.9111415556
O   O3        1.0  0.43770  0.11177  0.48172  1.0000 -0.9111415556
O   O4        1.0  0.43770  0.88823  0.51828  1.0000 -0.9111415556
O   O5        1.0  0.60620  0.53694  0.93444  1.0000 -0.8904043248
O   O6        1.0  0.60620  0.46306  0.06556  1.0000 -0.8904043248
O   O7        1.0  0.60620  0.03694  0.56556  1.0000 -0.8904043248
O   O8        1.0  0.60620  0.96306  0.43444  1.0000 -0.8904043248
O   O9        1.0  0.75270  0.59593  0.04334  1.0000 -0.5802944711
O   O10       1.0  0.75270  0.40407  0.95666  1.0000 -0.5802944711
O   O11       1.0  0.75270  0.09593  0.45666  1.0000 -0.5802944711
O   O12       1.0  0.75270  0.90407  0.54334  1.0000 -0.5802944711
O   O13       1.0  0.83120  0.61320  0.94579  1.0000 -0.5395901164
O   O14       1.0  0.83120  0.38680  0.05421  1.0000 -0.5395901164
O   O15       1.0  0.83120  0.11320  0.55421  1.0000 -0.5395901164
O   O16       1.0  0.83120  0.88680  0.44579  1.0000 -0.5395901164
O   O17       1.0  0.26540  0.73100  0.06970  1.0000 -0.5580091512
O   O18       1.0  0.26540  0.26900  0.93030  1.0000 -0.5580091512
O   O19       1.0  0.26540  0.23100  0.43030  1.0000 -0.5580091512
O   O20       1.0  0.26540  0.76900  0.56970  1.0000 -0.5580091512
O   O21       1.0  0.21500  0.59540  0.01903  1.0000 -0.5580091512
O   O22       1.0  0.21500  0.40460  0.98097  1.0000 -0.5580091512
O   O23       1.0  0.21500  0.09540  0.48097  1.0000 -0.5580091512
O   O24       1.0  0.21500  0.90460  0.51903  1.0000 -0.5580091512
O   O25       1.0  0.47190  0.81720  0.03543  1.0000 -0.5580091512
O   O26       1.0  0.47190  0.18280  0.96457  1.0000 -0.5580091512
O   O27       1.0  0.47190  0.31720  0.46457  1.0000 -0.5580091512
O   O28       1.0  0.47190  0.68280  0.53543  1.0000 -0.5580091512
O   O29       1.0  0.60900  0.74580  0.99131  1.0000 -0.5580091512
O   O30       1.0  0.60900  0.25420  0.00869  1.0000 -0.5580091512
O   O31       1.0  0.60900  0.24580  0.50869  1.0000 -0.5580091512
O   O32       1.0  0.60900  0.75420  0.49131  1.0000 -0.5580091512
O   O33       1.0  0.57440  0.66840  0.12113  1.0000 -0.5984954646
O   O34       1.0  0.57440  0.33160  0.87887  1.0000 -0.5984954646
O   O35       1.0  0.57440  0.16840  0.37887  1.0000 -0.5984954646
O   O36       1.0  0.57440  0.83160  0.62113  1.0000 -0.5984954646
O   O37       1.0  0.67490  0.57060  0.18209  1.0000 -0.5580091512
O   O38       1.0  0.67490  0.42940  0.81791  1.0000 -0.5580091512
O   O39       1.0  0.67490  0.07060  0.31791  1.0000 -0.5580091512
O   O40       1.0  0.67490  0.92940  0.68209  1.0000 -0.5580091512
O   O41       1.0  0.34980  0.54410  0.89942  1.0000 -0.5580091512
O   O42       1.0  0.34980  0.45590  0.10058  1.0000 -0.5580091512
O   O43       1.0  0.34980  0.04410  0.60058  1.0000 -0.5580091512
O   O44       1.0  0.34980  0.95590  0.39942  1.0000 -0.5580091512
O   O45       1.0  0.37820  0.41390  0.83590  1.0000 -0.5395901164
O   O46       1.0  0.37820  0.58610  0.16410  1.0000 -0.5395901164
O   O47       1.0  0.37820  0.91390  0.66410  1.0000 -0.5395901164
O   O48       1.0  0.37820  0.08610  0.33590  1.0000 -0.5395901164
