# DDEC6 charges by PACMAN v1.1 (https://github.com/mtap-research/PACMAN-charge/)
data_2013[Zn][uni]3[ASR]5
_chemical_formula_sum              "Zn6 H60 C54 N12 O12"
_cell_length_a       17.5806
_cell_length_b       17.5806
_cell_length_c       10.1486
_cell_angle_alpha    90
_cell_angle_beta     90
_cell_angle_gamma    120

_symmetry_space_group_name_H-M    "P 1"
_symmetry_Int_Tables_number       1

loop_
  _symmetry_equiv_pos_as_xyz
  'x, y, z'

loop_
  _atom_site_type_symbol
  _atom_site_label
  _atom_site_symmetry_multiplicity
  _atom_site_fract_x
  _atom_site_fract_y
  _atom_site_fract_z
  _atom_site_occupancy
  _atom_site_charge
Zn  Zn1       1.0  0.53315  0.45948  0.03982  1.0000 0.7233391458
Zn  Zn2       1.0  0.07367  0.53315  0.20649  1.0000 0.7233391458
Zn  Zn3       1.0  0.54052  0.07367  0.37315  1.0000 0.7233391458
Zn  Zn4       1.0  0.46685  0.54052  0.53982  1.0000 0.7233391458
Zn  Zn5       1.0  0.92633  0.46685  0.70649  1.0000 0.7233391458
Zn  Zn6       1.0  0.45948  0.92633  0.87315  1.0000 0.7233391458
H   H1        1.0  0.10810  0.43460  0.98330  1.0000 0.1120655988
H   H2        1.0  0.67350  0.10810  0.14997  1.0000 0.1120655988
H   H3        1.0  0.56540  0.67350  0.31663  1.0000 0.1120655988
H   H4        1.0  0.89190  0.56540  0.48330  1.0000 0.1120655988
H   H5        1.0  0.32650  0.89190  0.64997  1.0000 0.1120655988
H   H6        1.0  0.43460  0.32650  0.81663  1.0000 0.1120655988
H   H7        1.0  0.22000  0.52450  0.32700  1.0000 0.1120655988
H   H8        1.0  0.69550  0.22000  0.49367  1.0000 0.1120655988
H   H9        1.0  0.47550  0.69550  0.66033  1.0000 0.1120655988
H   H10       1.0  0.78000  0.47550  0.82700  1.0000 0.1120655988
H   H11       1.0  0.30450  0.78000  0.99367  1.0000 0.1120655988
H   H12       1.0  0.52450  0.30450  0.16033  1.0000 0.1120655988
H   H13       1.0  0.20340  0.38960  0.93330  1.0000 0.1411864339
H   H14       1.0  0.81380  0.20340  0.09997  1.0000 0.1411864339
H   H15       1.0  0.61040  0.81380  0.26663  1.0000 0.1411864339
H   H16       1.0  0.79660  0.61040  0.43330  1.0000 0.1411864339
H   H17       1.0  0.18620  0.79660  0.59997  1.0000 0.1411864339
H   H18       1.0  0.38960  0.18620  0.76663  1.0000 0.1411864339
H   H19       1.0  0.32420  0.48490  0.27720  1.0000 0.1411864339
H   H20       1.0  0.83930  0.32420  0.44387  1.0000 0.1411864339
H   H21       1.0  0.51510  0.83930  0.61053  1.0000 0.1411864339
H   H22       1.0  0.67580  0.51510  0.77720  1.0000 0.1411864339
H   H23       1.0  0.16070  0.67580  0.94387  1.0000 0.1411864339
H   H24       1.0  0.48490  0.16070  0.11053  1.0000 0.1411864339
H   H25       1.0  0.46260  0.66870  0.04800  1.0000 0.122023544
H   H26       1.0  0.79390  0.46260  0.21467  1.0000 0.122023544
H   H27       1.0  0.33130  0.79390  0.38133  1.0000 0.122023544
H   H28       1.0  0.53740  0.33130  0.54800  1.0000 0.122023544
H   H29       1.0  0.20610  0.53740  0.71467  1.0000 0.122023544
H   H30       1.0  0.66870  0.20610  0.88133  1.0000 0.122023544
H   H31       1.0  0.53180  0.68260  0.93940  1.0000 0.122023544
H   H32       1.0  0.84920  0.53180  0.10607  1.0000 0.122023544
H   H33       1.0  0.31740  0.84920  0.27273  1.0000 0.122023544
H   H34       1.0  0.46820  0.31740  0.43940  1.0000 0.122023544
H   H35       1.0  0.15080  0.46820  0.60607  1.0000 0.122023544
H   H36       1.0  0.68260  0.15080  0.77273  1.0000 0.122023544
H   H37       1.0  0.53770  0.64790  0.07910  1.0000 0.122023544
H   H38       1.0  0.88980  0.53770  0.24577  1.0000 0.122023544
H   H39       1.0  0.35210  0.88980  0.41243  1.0000 0.122023544
H   H40       1.0  0.46230  0.35210  0.57910  1.0000 0.122023544
H   H41       1.0  0.11020  0.46230  0.74577  1.0000 0.122023544
H   H42       1.0  0.64790  0.11020  0.91243  1.0000 0.122023544
H   H43       1.0  0.34450  0.36550  0.12910  1.0000 0.1273902063
H   H44       1.0  0.97900  0.34450  0.29577  1.0000 0.1273902063
H   H45       1.0  0.63450  0.97900  0.46243  1.0000 0.1273902063
H   H46       1.0  0.65550  0.63450  0.62910  1.0000 0.1273902063
H   H47       1.0  0.02100  0.65550  0.79577  1.0000 0.1273902063
H   H48       1.0  0.36550  0.02100  0.96243  1.0000 0.1273902063
H   H49       1.0  0.33310  0.37940  0.97890  1.0000 0.0999098052
H   H50       1.0  0.95370  0.33310  0.14557  1.0000 0.0999098052
H   H51       1.0  0.62060  0.95370  0.31223  1.0000 0.0999098052
H   H52       1.0  0.66690  0.62060  0.47890  1.0000 0.0999098052
H   H53       1.0  0.04630  0.66690  0.64557  1.0000 0.0999098052
H   H54       1.0  0.37940  0.04630  0.81223  1.0000 0.0999098052
H   H55       1.0  0.38030  0.54140  0.94530  1.0000 0.0865157549
H   H56       1.0  0.83890  0.38030  0.11197  1.0000 0.0865157549
H   H57       1.0  0.45860  0.83890  0.27863  1.0000 0.0865157549
H   H58       1.0  0.61970  0.45860  0.44530  1.0000 0.0865157549
H   H59       1.0  0.16110  0.61970  0.61197  1.0000 0.0865157549
H   H60       1.0  0.54140  0.16110  0.77863  1.0000 0.0865157549
C   C1        1.0  0.15190  0.44470  0.04370  1.0000 0.0244986419
C   C2        1.0  0.70720  0.15190  0.21037  1.0000 0.0244986419
C   C3        1.0  0.55530  0.70720  0.37703  1.0000 0.0244986419
C   C4        1.0  0.84810  0.55530  0.54370  1.0000 0.0251052458
C   C5        1.0  0.29280  0.84810  0.71037  1.0000 0.0244986419
C   C6        1.0  0.44470  0.29280  0.87703  1.0000 0.0251052458
C   C7        1.0  0.21750  0.49870  0.24600  1.0000 0.0798623417
C   C8        1.0  0.71880  0.21750  0.41267  1.0000 0.0798623417
C   C9        1.0  0.50130  0.71880  0.57933  1.0000 0.0798623417
C   C10       1.0  0.78250  0.50130  0.74600  1.0000 0.0798623417
C   C11       1.0  0.28120  0.78250  0.91267  1.0000 0.0798623417
C   C12       1.0  0.49870  0.28120  0.07933  1.0000 0.0798623417
C   C13       1.0  0.20870  0.41740  0.01350  1.0000 -0.1979156878
C   C14       1.0  0.79130  0.20870  0.18017  1.0000 -0.1979156878
C   C15       1.0  0.58260  0.79130  0.34683  1.0000 -0.1979156878
C   C16       1.0  0.79130  0.58260  0.51350  1.0000 -0.1979156878
C   C17       1.0  0.20870  0.79130  0.68017  1.0000 -0.1979156878
C   C18       1.0  0.41740  0.20870  0.84683  1.0000 -0.1979156878
C   C19       1.0  0.27510  0.42990  0.09970  1.0000 0.1456675981
C   C20       1.0  0.84520  0.27510  0.26637  1.0000 0.1456675981
C   C21       1.0  0.57010  0.84520  0.43303  1.0000 0.1456675981
C   C22       1.0  0.72490  0.57010  0.59970  1.0000 0.1456675981
C   C23       1.0  0.15480  0.72490  0.76637  1.0000 0.1456675981
C   C24       1.0  0.42990  0.15480  0.93303  1.0000 0.1456675981
C   C25       1.0  0.27960  0.47300  0.21720  1.0000 -0.208920682
C   C26       1.0  0.80660  0.27960  0.38387  1.0000 -0.208920682
C   C27       1.0  0.52700  0.80660  0.55053  1.0000 -0.208920682
C   C28       1.0  0.72040  0.52700  0.71720  1.0000 -0.208920682
C   C29       1.0  0.19340  0.72040  0.88387  1.0000 -0.208920682
C   C30       1.0  0.47300  0.19340  0.05053  1.0000 -0.208920682
C   C31       1.0  0.49840  0.64660  0.01230  1.0000 -0.4235560493
C   C32       1.0  0.85180  0.49840  0.17897  1.0000 -0.4235560493
C   C33       1.0  0.35340  0.85180  0.34563  1.0000 -0.4235560493
C   C34       1.0  0.50160  0.35340  0.51230  1.0000 -0.4235560493
C   C35       1.0  0.14820  0.50160  0.67897  1.0000 -0.4235560493
C   C36       1.0  0.64660  0.14820  0.84563  1.0000 -0.4235560493
C   C37       1.0  0.47910  0.53770  0.84020  1.0000 0.5635538552
C   C38       1.0  0.94140  0.47910  0.00687  1.0000 0.5635538552
C   C39       1.0  0.46230  0.94140  0.17353  1.0000 0.5635538552
C   C40       1.0  0.52090  0.46230  0.34020  1.0000 0.5635538552
C   C41       1.0  0.05860  0.52090  0.50687  1.0000 0.5635538552
C   C42       1.0  0.53770  0.05860  0.67353  1.0000 0.5635538552
C   C43       1.0  0.34500  0.40680  0.06510  1.0000 -0.1780560311
C   C44       1.0  0.93820  0.34500  0.23177  1.0000 -0.1780560311
C   C45       1.0  0.59320  0.93820  0.39843  1.0000 -0.1780560311
C   C46       1.0  0.65500  0.59320  0.56510  1.0000 -0.1780560311
C   C47       1.0  0.06180  0.65500  0.73177  1.0000 -0.1780560311
C   C48       1.0  0.40680  0.06180  0.89843  1.0000 -0.1780560311
C   C49       1.0  0.43910  0.55130  0.96470  1.0000 -0.0055703715
C   C50       1.0  0.88780  0.43910  0.13137  1.0000 -0.0055703715
C   C51       1.0  0.44870  0.88780  0.29803  1.0000 -0.0055703715
C   C52       1.0  0.56090  0.44870  0.46470  1.0000 -0.0055703715
C   C53       1.0  0.11220  0.56090  0.63137  1.0000 -0.0055703715
C   C54       1.0  0.55130  0.11220  0.79803  1.0000 -0.0055703715
N   N1        1.0  0.43320  0.48900  0.06500  1.0000 -0.344315901
N   N2        1.0  0.94420  0.43320  0.23167  1.0000 -0.3467306222
N   N3        1.0  0.51100  0.94420  0.39833  1.0000 -0.3467306222
N   N4        1.0  0.56680  0.51100  0.56500  1.0000 -0.3467306222
N   N5        1.0  0.05580  0.56680  0.73167  1.0000 -0.3467306222
N   N6        1.0  0.48900  0.05580  0.89833  1.0000 -0.3467306222
N   N7        1.0  0.15520  0.48710  0.16000  1.0000 -0.2486184459
N   N8        1.0  0.66810  0.15520  0.32667  1.0000 -0.2486184459
N   N9        1.0  0.51290  0.66810  0.49333  1.0000 -0.2486184459
N   N10       1.0  0.84480  0.51290  0.66000  1.0000 -0.2486184459
N   N11       1.0  0.33190  0.84480  0.82667  1.0000 -0.2486184459
N   N12       1.0  0.48710  0.33190  0.99333  1.0000 -0.2486184459
O   O1        1.0  0.52010  0.49680  0.84540  1.0000 -0.5468040651
O   O2        1.0  0.02330  0.52010  0.01207  1.0000 -0.5468040651
O   O3        1.0  0.50320  0.02330  0.17873  1.0000 -0.5468040651
O   O4        1.0  0.47990  0.50320  0.34540  1.0000 -0.5468040651
O   O5        1.0  0.97670  0.47990  0.51207  1.0000 -0.5468040651
O   O6        1.0  0.49680  0.97670  0.67873  1.0000 -0.5468040651
O   O7        1.0  0.46820  0.57250  0.73640  1.0000 -0.5677447464
O   O8        1.0  0.89570  0.46820  0.90307  1.0000 -0.5677447464
O   O9        1.0  0.42750  0.89570  0.06973  1.0000 -0.5677447464
O   O10       1.0  0.53180  0.42750  0.23640  1.0000 -0.5677447464
O   O11       1.0  0.10430  0.53180  0.40307  1.0000 -0.5677447464
O   O12       1.0  0.57250  0.10430  0.56973  1.0000 -0.5677447464
