# DDEC6 charges by PACMAN v1.1 (https://github.com/mtap-research/PACMAN-charge/)
data_2013[Co][cml]3[ASR]1
_chemical_formula_sum              "Co12 H124 C220 O56"
_cell_length_a       18.49
_cell_length_b       27.509
_cell_length_c       22.86
_cell_angle_alpha    90
_cell_angle_beta     123.23
_cell_angle_gamma    90

_symmetry_space_group_name_H-M    "P 1"
_symmetry_Int_Tables_number       1

loop_
  _symmetry_equiv_pos_as_xyz
  'x, y, z'

loop_
  _atom_site_type_symbol
  _atom_site_label
  _atom_site_symmetry_multiplicity
  _atom_site_fract_x
  _atom_site_fract_y
  _atom_site_fract_z
  _atom_site_occupancy
  _atom_site_charge
Co  Co1       1.0  0.63885  0.64638  0.19276  1.0000 0.9168399466
Co  Co2       1.0  0.36115  0.14638  0.30724  1.0000 0.9168399466
Co  Co3       1.0  0.60981  0.64471  0.94525  1.0000 0.95663162
Co  Co4       1.0  0.39019  0.14471  0.55475  1.0000 0.95663162
Co  Co5       1.0  0.75401  0.65964  0.12383  1.0000 1.0593249989
Co  Co6       1.0  0.24599  0.15964  0.37617  1.0000 1.0593249989
Co  Co7       1.0  0.36115  0.35362  0.80724  1.0000 0.9168399466
Co  Co8       1.0  0.63885  0.85362  0.69276  1.0000 0.9168399466
Co  Co9       1.0  0.39019  0.35529  0.05475  1.0000 0.95663162
Co  Co10      1.0  0.60981  0.85529  0.44525  1.0000 0.95663162
Co  Co11      1.0  0.24599  0.34036  0.87617  1.0000 1.0593249989
Co  Co12      1.0  0.75401  0.84036  0.62383  1.0000 1.0593249989
H   H1        1.0  0.39980  0.63130  0.19840  1.0000 0.1204974775
H   H2        1.0  0.60020  0.13130  0.30160  1.0000 0.1204974775
H   H3        1.0  0.28710  0.59300  0.19660  1.0000 0.1135820518
H   H4        1.0  0.71290  0.09300  0.30340  1.0000 0.1135820518
H   H5        1.0  0.13870  0.55800  0.11790  1.0000 0.1204974775
H   H6        1.0  0.86130  0.05800  0.38210  1.0000 0.1204974775
H   H7        1.0  0.98760  0.55080  0.01260  1.0000 0.1204974775
H   H8        1.0  0.01240  0.05080  0.48740  1.0000 0.1204974775
H   H9        1.0  0.85850  0.59030  0.96330  1.0000 0.1135820518
H   H10       1.0  0.14150  0.09030  0.53670  1.0000 0.1135820518
H   H11       1.0  0.39090  0.63410  0.71410  1.0000 0.1204974775
H   H12       1.0  0.60910  0.13410  0.78590  1.0000 0.1204974775
H   H13       1.0  0.28740  0.59430  0.60830  1.0000 0.1135820518
H   H14       1.0  0.71260  0.09430  0.89170  1.0000 0.1135820518
H   H15       1.0  0.14380  0.55680  0.53540  1.0000 0.1204974775
H   H16       1.0  0.85620  0.05680  0.96460  1.0000 0.1204974775
H   H17       1.0  0.98540  0.54990  0.46910  1.0000 0.1135820518
H   H18       1.0  0.01460  0.04990  0.03090  1.0000 0.1135820518
H   H19       1.0  0.85920  0.58540  0.38290  1.0000 0.1135820518
H   H20       1.0  0.14080  0.08540  0.11710  1.0000 0.1135820518
H   H21       1.0  0.29880  0.44090  0.61560  1.0000 0.1300008824
H   H22       1.0  0.70120  0.94090  0.88440  1.0000 0.1300008824
H   H23       1.0  0.11480  0.37150  0.23840  1.0000 0.1135820518
H   H24       1.0  0.88520  0.87150  0.26160  1.0000 0.1135820518
H   H25       1.0  0.14470  0.29130  0.27220  1.0000 0.1300008824
H   H26       1.0  0.85530  0.79130  0.22780  1.0000 0.1300008824
H   H27       1.0  0.29200  0.28300  0.19490  1.0000 0.1300008824
H   H28       1.0  0.70800  0.78300  0.30510  1.0000 0.1300008824
H   H29       1.0  0.25740  0.36200  0.15710  1.0000 0.1300008824
H   H30       1.0  0.74260  0.86200  0.34290  1.0000 0.1300008824
H   H31       1.0  0.43530  0.51110  0.11730  1.0000 0.1300008824
H   H32       1.0  0.56470  0.01110  0.38270  1.0000 0.1300008824
H   H33       1.0  0.32590  0.47320  0.11890  1.0000 0.1300008824
H   H34       1.0  0.67410  0.97320  0.38110  1.0000 0.1300008824
H   H35       1.0  0.28710  0.44000  0.19120  1.0000 0.1300008824
H   H36       1.0  0.71290  0.94000  0.30880  1.0000 0.1300008824
H   H37       1.0  0.04610  0.43510  0.15000  1.0000 0.1204974775
H   H38       1.0  0.95390  0.93510  0.35000  1.0000 0.1204974775
H   H39       1.0  0.83750  0.54820  0.12000  1.0000 0.1300008824
H   H40       1.0  0.16250  0.04820  0.38000  1.0000 0.1300008824
H   H41       1.0  0.96310  0.50460  0.16770  1.0000 0.1204974775
H   H42       1.0  0.03690  0.00460  0.33230  1.0000 0.1204974775
H   H43       1.0  0.91350  0.54010  0.24250  1.0000 0.1135820518
H   H44       1.0  0.08650  0.04010  0.25750  1.0000 0.1135820518
H   H45       1.0  0.03910  0.50540  0.33280  1.0000 0.1204974775
H   H46       1.0  0.96090  0.00540  0.16720  1.0000 0.1204974775
H   H47       1.0  0.09440  0.43680  0.42050  1.0000 0.1204974775
H   H48       1.0  0.90560  0.93680  0.07950  1.0000 0.1204974775
H   H49       1.0  0.31430  0.47520  0.72060  1.0000 0.1204974775
H   H50       1.0  0.68570  0.97520  0.77940  1.0000 0.1204974775
H   H51       1.0  0.41780  0.51360  0.82010  1.0000 0.1300008824
H   H52       1.0  0.58220  0.01360  0.67990  1.0000 0.1300008824
H   H53       1.0  0.27490  0.35880  0.61350  1.0000 0.1300008824
H   H54       1.0  0.72510  0.85880  0.88650  1.0000 0.1300008824
H   H55       1.0  0.31190  0.28170  0.60440  1.0000 0.1300008824
H   H56       1.0  0.68810  0.78170  0.89560  1.0000 0.1300008824
H   H57       1.0  0.21870  0.30320  0.40210  1.0000 0.1204974775
H   H58       1.0  0.78130  0.80320  0.09790  1.0000 0.1204974775
H   H59       1.0  0.17770  0.38070  0.40880  1.0000 0.1135820518
H   H60       1.0  0.82230  0.88070  0.09120  1.0000 0.1135820518
H   H61       1.0  0.50860  0.66820  0.05030  1.0000 0.1135820518
H   H62       1.0  0.49140  0.16820  0.44970  1.0000 0.1135820518
H   H63       1.0  0.60020  0.36870  0.80160  1.0000 0.1204974775
H   H64       1.0  0.39980  0.86870  0.69840  1.0000 0.1204974775
H   H65       1.0  0.71290  0.40700  0.80340  1.0000 0.1135820518
H   H66       1.0  0.28710  0.90700  0.69660  1.0000 0.1135820518
H   H67       1.0  0.86130  0.44200  0.88210  1.0000 0.1204974775
H   H68       1.0  0.13870  0.94200  0.61790  1.0000 0.1204974775
H   H69       1.0  0.01240  0.44920  0.98740  1.0000 0.1204974775
H   H70       1.0  0.98760  0.94920  0.51260  1.0000 0.1204974775
H   H71       1.0  0.14150  0.40970  0.03670  1.0000 0.1135820518
H   H72       1.0  0.85850  0.90970  0.46330  1.0000 0.1135820518
H   H73       1.0  0.60910  0.36590  0.28590  1.0000 0.1204974775
H   H74       1.0  0.39090  0.86590  0.21410  1.0000 0.1204974775
H   H75       1.0  0.71260  0.40570  0.39170  1.0000 0.1135820518
H   H76       1.0  0.28740  0.90570  0.10830  1.0000 0.1135820518
H   H77       1.0  0.85620  0.44320  0.46460  1.0000 0.1204974775
H   H78       1.0  0.14380  0.94320  0.03540  1.0000 0.1204974775
H   H79       1.0  0.01460  0.45010  0.53090  1.0000 0.1135820518
H   H80       1.0  0.98540  0.95010  0.96910  1.0000 0.1135820518
H   H81       1.0  0.14080  0.41460  0.61710  1.0000 0.1135820518
H   H82       1.0  0.85920  0.91460  0.88290  1.0000 0.1135820518
H   H83       1.0  0.70120  0.55910  0.38440  1.0000 0.1300008824
H   H84       1.0  0.29880  0.05910  0.11560  1.0000 0.1300008824
H   H85       1.0  0.88520  0.62850  0.76160  1.0000 0.1135820518
H   H86       1.0  0.11480  0.12850  0.73840  1.0000 0.1135820518
H   H87       1.0  0.85530  0.70870  0.72780  1.0000 0.1300008824
H   H88       1.0  0.14470  0.20870  0.77220  1.0000 0.1300008824
H   H89       1.0  0.70800  0.71700  0.80510  1.0000 0.1300008824
H   H90       1.0  0.29200  0.21700  0.69490  1.0000 0.1300008824
H   H91       1.0  0.74260  0.63800  0.84290  1.0000 0.1300008824
H   H92       1.0  0.25740  0.13800  0.65710  1.0000 0.1300008824
H   H93       1.0  0.56470  0.48890  0.88270  1.0000 0.1300008824
H   H94       1.0  0.43530  0.98890  0.61730  1.0000 0.1300008824
H   H95       1.0  0.67410  0.52680  0.88110  1.0000 0.1300008824
H   H96       1.0  0.32590  0.02680  0.61890  1.0000 0.1300008824
H   H97       1.0  0.71290  0.56000  0.80880  1.0000 0.1300008824
H   H98       1.0  0.28710  0.06000  0.69120  1.0000 0.1300008824
H   H99       1.0  0.95390  0.56490  0.85000  1.0000 0.1204974775
H   H100      1.0  0.04610  0.06490  0.65000  1.0000 0.1204974775
H   H101      1.0  0.16250  0.45180  0.88000  1.0000 0.1300008824
H   H102      1.0  0.83750  0.95180  0.62000  1.0000 0.1300008824
H   H103      1.0  0.03690  0.49540  0.83230  1.0000 0.1204974775
H   H104      1.0  0.96310  0.99540  0.66770  1.0000 0.1204974775
H   H105      1.0  0.08650  0.45990  0.75750  1.0000 0.1135820518
H   H106      1.0  0.91350  0.95990  0.74250  1.0000 0.1135820518
H   H107      1.0  0.96090  0.49460  0.66720  1.0000 0.1204974775
H   H108      1.0  0.03910  0.99460  0.83280  1.0000 0.1204974775
H   H109      1.0  0.90560  0.56320  0.57950  1.0000 0.1204974775
H   H110      1.0  0.09440  0.06320  0.92050  1.0000 0.1204974775
H   H111      1.0  0.68570  0.52480  0.27940  1.0000 0.1204974775
H   H112      1.0  0.31430  0.02480  0.22060  1.0000 0.1204974775
H   H113      1.0  0.58220  0.48640  0.17990  1.0000 0.1300008824
H   H114      1.0  0.41780  0.98640  0.32010  1.0000 0.1300008824
H   H115      1.0  0.72510  0.64120  0.38650  1.0000 0.1300008824
H   H116      1.0  0.27490  0.14120  0.11350  1.0000 0.1300008824
H   H117      1.0  0.68810  0.71830  0.39560  1.0000 0.1300008824
H   H118      1.0  0.31190  0.21830  0.10440  1.0000 0.1300008824
H   H119      1.0  0.78130  0.69680  0.59790  1.0000 0.1204974775
H   H120      1.0  0.21870  0.19680  0.90210  1.0000 0.1204974775
H   H121      1.0  0.82230  0.61930  0.59120  1.0000 0.1135820518
H   H122      1.0  0.17770  0.11930  0.90880  1.0000 0.1135820518
H   H123      1.0  0.49140  0.33180  0.94970  1.0000 0.1135820518
H   H124      1.0  0.50860  0.83180  0.55030  1.0000 0.1135820518
C   C1        1.0  0.29680  0.23380  0.49590  1.0000 0.5918117357
C   C2        1.0  0.70320  0.73380  0.00410  1.0000 0.5918117357
C   C3        1.0  0.50800  0.59890  0.16680  1.0000 0.5411344958
C   C4        1.0  0.49200  0.09890  0.33320  1.0000 0.5411344958
C   C5        1.0  0.43210  0.57550  0.16180  1.0000 -0.0187662822
C   C6        1.0  0.56790  0.07550  0.33820  1.0000 -0.0187662822
C   C7        1.0  0.38590  0.59940  0.18290  1.0000 -0.0892584076
C   C8        1.0  0.61410  0.09940  0.31710  1.0000 -0.0892584076
C   C9        1.0  0.31780  0.57640  0.18150  1.0000 -0.1499849452
C   C10       1.0  0.68220  0.07640  0.31850  1.0000 -0.1499849452
C   C11       1.0  0.29560  0.52910  0.15790  1.0000 0.0793764835
C   C12       1.0  0.70440  0.02910  0.34210  1.0000 0.0793764835
C   C13       1.0  0.22390  0.50320  0.15650  1.0000 0.088584743
C   C14       1.0  0.77610  0.00320  0.34350  1.0000 0.088584743
C   C15       1.0  0.14660  0.52570  0.13240  1.0000 -0.1992558243
C   C16       1.0  0.85340  0.02570  0.36760  1.0000 -0.1992558243
C   C17       1.0  0.07780  0.49950  0.12960  1.0000 0.0793764835
C   C18       1.0  0.92220  0.99950  0.37040  1.0000 0.0793764835
C   C19       1.0  0.99200  0.52400  0.09700  1.0000 0.0702825622
C   C20       1.0  0.00800  0.02400  0.40300  1.0000 0.0702825622
C   C21       1.0  0.95750  0.54980  0.03450  1.0000 -0.1499849452
C   C22       1.0  0.04250  0.04980  0.46550  1.0000 -0.1499849452
C   C23       1.0  0.88050  0.57370  0.00510  1.0000 -0.0892584076
C   C24       1.0  0.11950  0.07370  0.49490  1.0000 -0.0892584076
C   C25       1.0  0.83400  0.57340  0.03710  1.0000 -0.0115396899
C   C26       1.0  0.16600  0.07340  0.46290  1.0000 -0.0115396899
C   C27       1.0  0.48710  0.60070  0.84200  1.0000 0.5464965594
C   C28       1.0  0.51290  0.10070  0.65800  1.0000 0.5464965594
C   C29       1.0  0.41650  0.57700  0.77680  1.0000 -0.0187662822
C   C30       1.0  0.58350  0.07700  0.72320  1.0000 -0.0187662822
C   C31       1.0  0.37680  0.60170  0.71480  1.0000 -0.0892584076
C   C32       1.0  0.62320  0.10170  0.78520  1.0000 -0.0892584076
C   C33       1.0  0.31340  0.57790  0.65080  1.0000 -0.1499849452
C   C34       1.0  0.68660  0.07790  0.84920  1.0000 -0.1499849452
C   C35       1.0  0.29190  0.53110  0.65320  1.0000 0.0702825622
C   C36       1.0  0.70810  0.03110  0.84680  1.0000 0.0702825622
C   C37       1.0  0.23380  0.50360  0.58630  1.0000 0.0964359385
C   C38       1.0  0.76620  0.00360  0.91370  1.0000 0.0964359385
C   C39       1.0  0.15880  0.52550  0.53050  1.0000 -0.1992558243
C   C40       1.0  0.84120  0.02550  0.96950  1.0000 -0.1992558243
C   C41       1.0  0.10720  0.50070  0.46830  1.0000 0.0793764835
C   C42       1.0  0.89280  0.00070  0.03170  1.0000 0.0793764835
C   C43       1.0  0.02680  0.52400  0.41170  1.0000 0.0702825622
C   C44       1.0  0.97320  0.02400  0.08830  1.0000 0.0702825622
C   C45       1.0  0.97100  0.54810  0.42330  1.0000 -0.1585831823
C   C46       1.0  0.02900  0.04810  0.07670  1.0000 -0.1585831823
C   C47       1.0  0.89540  0.56990  0.37240  1.0000 -0.0975262176
C   C48       1.0  0.10460  0.06990  0.12760  1.0000 -0.0975262176
C   C49       1.0  0.87540  0.56780  0.30390  1.0000 -0.0115396899
C   C50       1.0  0.12460  0.06780  0.19610  1.0000 -0.0115396899
C   C51       1.0  0.25050  0.45610  0.57830  1.0000 -0.1829066905
C   C52       1.0  0.74950  0.95610  0.92170  1.0000 -0.1829066905
C   C53       1.0  0.79420  0.59250  0.24710  1.0000 0.5975912404
C   C54       1.0  0.20580  0.09250  0.25290  1.0000 0.5975912404
C   C55       1.0  0.25290  0.22870  0.27010  1.0000 0.5975912404
C   C56       1.0  0.74710  0.72870  0.22990  1.0000 0.5975912404
C   C57       1.0  0.15070  0.35390  0.22950  1.0000 -0.1499849452
C   C58       1.0  0.84930  0.85390  0.27050  1.0000 -0.1499849452
C   C59       1.0  0.16980  0.30590  0.25070  1.0000 -0.0975262176
C   C60       1.0  0.83020  0.80590  0.24930  1.0000 -0.0975262176
C   C61       1.0  0.22480  0.27970  0.24070  1.0000 -0.0187662822
C   C62       1.0  0.77520  0.77970  0.25930  1.0000 -0.0187662822
C   C63       1.0  0.25670  0.30080  0.20420  1.0000 -0.080187196
C   C64       1.0  0.74330  0.80080  0.29580  1.0000 -0.080187196
C   C65       1.0  0.23600  0.34830  0.18180  1.0000 -0.1382902865
C   C66       1.0  0.76400  0.84830  0.31820  1.0000 -0.1382902865
C   C67       1.0  0.40680  0.52730  0.13480  1.0000 -0.080187196
C   C68       1.0  0.59320  0.02730  0.36520  1.0000 -0.080187196
C   C69       1.0  0.34070  0.50510  0.13480  1.0000 -0.1382902865
C   C70       1.0  0.65930  0.00510  0.36520  1.0000 -0.1382902865
C   C71       1.0  0.23480  0.45510  0.17650  1.0000 -0.1887272033
C   C72       1.0  0.76520  0.95510  0.32350  1.0000 -0.1887272033
C   C73       1.0  0.16960  0.42810  0.17550  1.0000 0.088584743
C   C74       1.0  0.83040  0.92810  0.32450  1.0000 0.088584743
C   C75       1.0  0.09060  0.45190  0.15130  1.0000 -0.2097439575
C   C76       1.0  0.90940  0.95190  0.34870  1.0000 -0.2097439575
C   C77       1.0  0.86720  0.54820  0.09790  1.0000 -0.0892584076
C   C78       1.0  0.13280  0.04820  0.40210  1.0000 -0.0892584076
C   C79       1.0  0.94350  0.52280  0.12740  1.0000 -0.1499849452
C   C80       1.0  0.05650  0.02280  0.37260  1.0000 -0.1499849452
C   C81       1.0  0.18430  0.37590  0.19520  1.0000 0.0702825622
C   C82       1.0  0.81570  0.87590  0.30480  1.0000 0.0702825622
C   C83       1.0  0.75060  0.60030  0.00320  1.0000 0.561070968
C   C84       1.0  0.24940  0.10030  0.49680  1.0000 0.561070968
C   C85       1.0  0.92820  0.54270  0.28830  1.0000 -0.0975262176
C   C86       1.0  0.07180  0.04270  0.21170  1.0000 -0.0975262176
C   C87       1.0  0.00310  0.52170  0.34280  1.0000 -0.1499849452
C   C88       1.0  0.99690  0.02170  0.15720  1.0000 -0.1499849452
C   C89       1.0  0.12860  0.45330  0.46270  1.0000 -0.1992558243
C   C90       1.0  0.87140  0.95330  0.03730  1.0000 -0.1992558243
C   C91       1.0  0.19890  0.43010  0.51760  1.0000 0.0793764835
C   C92       1.0  0.80110  0.93010  0.98240  1.0000 0.0793764835
C   C93       1.0  0.33070  0.50680  0.71840  1.0000 -0.1382902865
C   C94       1.0  0.66930  0.00680  0.78160  1.0000 -0.1382902865
C   C95       1.0  0.39180  0.53000  0.77760  1.0000 -0.0709874811
C   C96       1.0  0.60820  0.03000  0.72240  1.0000 -0.0709874811
C   C97       1.0  0.22270  0.37980  0.51140  1.0000 0.0793764835
C   C98       1.0  0.77730  0.87980  0.98860  1.0000 0.0793764835
C   C99       1.0  0.26340  0.34780  0.57080  1.0000 -0.1382902865
C   C100      1.0  0.73660  0.84780  0.92920  1.0000 -0.1382902865
C   C101      1.0  0.28520  0.30190  0.56540  1.0000 -0.080187196
C   C102      1.0  0.71480  0.80190  0.93460  1.0000 -0.080187196
C   C103      1.0  0.26760  0.28460  0.50090  1.0000 -0.0115396899
C   C104      1.0  0.73240  0.78460  0.99910  1.0000 -0.0115396899
C   C105      1.0  0.22920  0.31450  0.44440  1.0000 -0.0892584076
C   C106      1.0  0.77080  0.81450  0.05560  1.0000 -0.0892584076
C   C107      1.0  0.20560  0.36130  0.44860  1.0000 -0.1499849452
C   C108      1.0  0.79440  0.86130  0.05140  1.0000 -0.1499849452
C   C109      1.0  0.55270  0.66130  0.04340  1.0000 0.5318369461
C   C110      1.0  0.44730  0.16130  0.45660  1.0000 0.5318369461
C   C111      1.0  0.70320  0.76620  0.50410  1.0000 0.5918117357
C   C112      1.0  0.29680  0.26620  0.99590  1.0000 0.5918117357
C   C113      1.0  0.49200  0.40110  0.83320  1.0000 0.5411344958
C   C114      1.0  0.50800  0.90110  0.66680  1.0000 0.5411344958
C   C115      1.0  0.56790  0.42450  0.83820  1.0000 -0.0187662822
C   C116      1.0  0.43210  0.92450  0.66180  1.0000 -0.0187662822
C   C117      1.0  0.61410  0.40060  0.81710  1.0000 -0.0892584076
C   C118      1.0  0.38590  0.90060  0.68290  1.0000 -0.0892584076
C   C119      1.0  0.68220  0.42360  0.81850  1.0000 -0.1499849452
C   C120      1.0  0.31780  0.92360  0.68150  1.0000 -0.1499849452
C   C121      1.0  0.70440  0.47090  0.84210  1.0000 0.0793764835
C   C122      1.0  0.29560  0.97090  0.65790  1.0000 0.0793764835
C   C123      1.0  0.77610  0.49680  0.84350  1.0000 0.088584743
C   C124      1.0  0.22390  0.99680  0.65650  1.0000 0.088584743
C   C125      1.0  0.85340  0.47430  0.86760  1.0000 -0.1992558243
C   C126      1.0  0.14660  0.97430  0.63240  1.0000 -0.1992558243
C   C127      1.0  0.92220  0.50050  0.87040  1.0000 0.0793764835
C   C128      1.0  0.07780  0.00050  0.62960  1.0000 0.0793764835
C   C129      1.0  0.00800  0.47600  0.90300  1.0000 0.0702825622
C   C130      1.0  0.99200  0.97600  0.59700  1.0000 0.0702825622
C   C131      1.0  0.04250  0.45020  0.96550  1.0000 -0.1499849452
C   C132      1.0  0.95750  0.95020  0.53450  1.0000 -0.1499849452
C   C133      1.0  0.11950  0.42630  0.99490  1.0000 -0.0892584076
C   C134      1.0  0.88050  0.92630  0.50510  1.0000 -0.0892584076
C   C135      1.0  0.16600  0.42660  0.96290  1.0000 -0.0115396899
C   C136      1.0  0.83400  0.92660  0.53710  1.0000 -0.0115396899
C   C137      1.0  0.51290  0.39930  0.15800  1.0000 0.5464965594
C   C138      1.0  0.48710  0.89930  0.34200  1.0000 0.5464965594
C   C139      1.0  0.58350  0.42300  0.22320  1.0000 -0.0187662822
C   C140      1.0  0.41650  0.92300  0.27680  1.0000 -0.0187662822
C   C141      1.0  0.62320  0.39830  0.28520  1.0000 -0.0892584076
C   C142      1.0  0.37680  0.89830  0.21480  1.0000 -0.0892584076
C   C143      1.0  0.68660  0.42210  0.34920  1.0000 -0.1499849452
C   C144      1.0  0.31340  0.92210  0.15080  1.0000 -0.1499849452
C   C145      1.0  0.70810  0.46890  0.34680  1.0000 0.0702825622
C   C146      1.0  0.29190  0.96890  0.15320  1.0000 0.0702825622
C   C147      1.0  0.76620  0.49640  0.41370  1.0000 0.0964359385
C   C148      1.0  0.23380  0.99640  0.08630  1.0000 0.0964359385
C   C149      1.0  0.84120  0.47450  0.46950  1.0000 -0.1887272033
C   C150      1.0  0.15880  0.97450  0.03050  1.0000 -0.1887272033
C   C151      1.0  0.89280  0.49930  0.53170  1.0000 0.0793764835
C   C152      1.0  0.10720  0.99930  0.96830  1.0000 0.0793764835
C   C153      1.0  0.97320  0.47600  0.58830  1.0000 0.0702825622
C   C154      1.0  0.02680  0.97600  0.91170  1.0000 0.0702825622
C   C155      1.0  0.02900  0.45190  0.57670  1.0000 -0.1585831823
C   C156      1.0  0.97100  0.95190  0.92330  1.0000 -0.1585831823
C   C157      1.0  0.10460  0.43010  0.62760  1.0000 -0.0975262176
C   C158      1.0  0.89540  0.93010  0.87240  1.0000 -0.0975262176
C   C159      1.0  0.12460  0.43220  0.69610  1.0000 -0.0115396899
C   C160      1.0  0.87540  0.93220  0.80390  1.0000 -0.0115396899
C   C161      1.0  0.74950  0.54390  0.42170  1.0000 -0.1829066905
C   C162      1.0  0.25050  0.04390  0.07830  1.0000 -0.1829066905
C   C163      1.0  0.20580  0.40750  0.75290  1.0000 0.5975912404
C   C164      1.0  0.79420  0.90750  0.74710  1.0000 0.5975912404
C   C165      1.0  0.74710  0.77130  0.72990  1.0000 0.5975912404
C   C166      1.0  0.25290  0.27130  0.77010  1.0000 0.5975912404
C   C167      1.0  0.84930  0.64610  0.77050  1.0000 -0.1499849452
C   C168      1.0  0.15070  0.14610  0.72950  1.0000 -0.1499849452
C   C169      1.0  0.83020  0.69410  0.74930  1.0000 -0.0975262176
C   C170      1.0  0.16980  0.19410  0.75070  1.0000 -0.0975262176
C   C171      1.0  0.77520  0.72030  0.75930  1.0000 -0.0187662822
C   C172      1.0  0.22480  0.22030  0.74070  1.0000 -0.0187662822
C   C173      1.0  0.74330  0.69920  0.79580  1.0000 -0.080187196
C   C174      1.0  0.25670  0.19920  0.70420  1.0000 -0.080187196
C   C175      1.0  0.76400  0.65170  0.81820  1.0000 -0.1382902865
C   C176      1.0  0.23600  0.15170  0.68180  1.0000 -0.1382902865
C   C177      1.0  0.59320  0.47270  0.86520  1.0000 -0.080187196
C   C178      1.0  0.40680  0.97270  0.63480  1.0000 -0.080187196
C   C179      1.0  0.65930  0.49490  0.86520  1.0000 -0.1382902865
C   C180      1.0  0.34070  0.99490  0.63480  1.0000 -0.1382902865
C   C181      1.0  0.76520  0.54490  0.82350  1.0000 -0.1887272033
C   C182      1.0  0.23480  0.04490  0.67650  1.0000 -0.1887272033
C   C183      1.0  0.83040  0.57190  0.82450  1.0000 0.088584743
C   C184      1.0  0.16960  0.07190  0.67550  1.0000 0.088584743
C   C185      1.0  0.90940  0.54810  0.84870  1.0000 -0.2097439575
C   C186      1.0  0.09060  0.04810  0.65130  1.0000 -0.2097439575
C   C187      1.0  0.13280  0.45180  0.90210  1.0000 -0.0892584076
C   C188      1.0  0.86720  0.95180  0.59790  1.0000 -0.0892584076
C   C189      1.0  0.05650  0.47720  0.87260  1.0000 -0.1499849452
C   C190      1.0  0.94350  0.97720  0.62740  1.0000 -0.1499849452
C   C191      1.0  0.81570  0.62410  0.80480  1.0000 0.0702825622
C   C192      1.0  0.18430  0.12410  0.69520  1.0000 0.0702825622
C   C193      1.0  0.24940  0.39970  0.99680  1.0000 0.561070968
C   C194      1.0  0.75060  0.89970  0.50320  1.0000 0.561070968
C   C195      1.0  0.07180  0.45730  0.71170  1.0000 -0.0975262176
C   C196      1.0  0.92820  0.95730  0.78830  1.0000 -0.0975262176
C   C197      1.0  0.99690  0.47830  0.65720  1.0000 -0.1499849452
C   C198      1.0  0.00310  0.97830  0.84280  1.0000 -0.1499849452
C   C199      1.0  0.87140  0.54670  0.53730  1.0000 -0.1992558243
C   C200      1.0  0.12860  0.04670  0.96270  1.0000 -0.1992558243
C   C201      1.0  0.80110  0.56990  0.48240  1.0000 0.0793764835
C   C202      1.0  0.19890  0.06990  0.01760  1.0000 0.0793764835
C   C203      1.0  0.66930  0.49320  0.28160  1.0000 -0.1382902865
C   C204      1.0  0.33070  0.99320  0.21840  1.0000 -0.1382902865
C   C205      1.0  0.60820  0.47000  0.22240  1.0000 -0.0709874811
C   C206      1.0  0.39180  0.97000  0.27760  1.0000 -0.0709874811
C   C207      1.0  0.77730  0.62020  0.48860  1.0000 0.0793764835
C   C208      1.0  0.22270  0.12020  0.01140  1.0000 0.0793764835
C   C209      1.0  0.73660  0.65220  0.42920  1.0000 -0.1382902865
C   C210      1.0  0.26340  0.15220  0.07080  1.0000 -0.1382902865
C   C211      1.0  0.71480  0.69810  0.43460  1.0000 -0.080187196
C   C212      1.0  0.28520  0.19810  0.06540  1.0000 -0.080187196
C   C213      1.0  0.73240  0.71540  0.49910  1.0000 -0.0115396899
C   C214      1.0  0.26760  0.21540  0.00090  1.0000 -0.0115396899
C   C215      1.0  0.77080  0.68550  0.55560  1.0000 -0.0892584076
C   C216      1.0  0.22920  0.18550  0.94440  1.0000 -0.0892584076
C   C217      1.0  0.79440  0.63870  0.55140  1.0000 -0.1499849452
C   C218      1.0  0.20560  0.13870  0.94860  1.0000 -0.1499849452
C   C219      1.0  0.44730  0.33870  0.95660  1.0000 0.5318369461
C   C220      1.0  0.55270  0.83870  0.54340  1.0000 0.5318369461
O   O1        1.0  0.34230  0.21030  0.55100  1.0000 -0.5268892852
O   O2        1.0  0.65770  0.71030  0.94900  1.0000 -0.5268892852
O   O3        1.0  0.27370  0.22020  0.43540  1.0000 -0.5932745146
O   O4        1.0  0.72630  0.72020  0.06460  1.0000 -0.5932745146
O   O5        1.0  0.53650  0.63820  0.19780  1.0000 -0.5230763586
O   O6        1.0  0.46350  0.13820  0.30220  1.0000 -0.5230763586
O   O7        1.0  0.54350  0.57780  0.13910  1.0000 -0.5447693474
O   O8        1.0  0.45650  0.07780  0.36090  1.0000 -0.547999045
O   O9        1.0  0.50910  0.64430  0.84120  1.0000 -0.5230763586
O   O10       1.0  0.49090  0.14430  0.65880  1.0000 -0.5230763586
O   O11       1.0  0.52500  0.57790  0.89870  1.0000 -0.5268892852
O   O12       1.0  0.47500  0.07790  0.60130  1.0000 -0.5268892852
O   O13       1.0  0.73800  0.60610  0.25900  1.0000 -0.5447693474
O   O14       1.0  0.26200  0.10610  0.24100  1.0000 -0.5447693474
O   O15       1.0  0.21640  0.20760  0.29480  1.0000 -0.5597199308
O   O16       1.0  0.78360  0.70760  0.20520  1.0000 -0.5597199308
O   O17       1.0  0.31780  0.21160  0.26980  1.0000 -0.547999045
O   O18       1.0  0.68220  0.71160  0.23020  1.0000 -0.547999045
O   O19       1.0  0.71150  0.60980  0.93950  1.0000 -0.5102218198
O   O20       1.0  0.28850  0.10980  0.56050  1.0000 -0.5102218198
O   O21       1.0  0.71920  0.61260  0.03810  1.0000 -0.5795596796
O   O22       1.0  0.28080  0.11260  0.46190  1.0000 -0.5795596796
O   O23       1.0  0.78940  0.60050  0.18950  1.0000 -0.6031322288
O   O24       1.0  0.21060  0.10050  0.31050  1.0000 -0.6031322288
O   O25       1.0  0.62490  0.65290  0.09480  1.0000 -0.5268892852
O   O26       1.0  0.37510  0.15290  0.40520  1.0000 -0.5268892852
O   O27       1.0  0.53510  0.66110  0.98270  1.0000 -0.4409292968
O   O28       1.0  0.46490  0.16110  0.51730  1.0000 -0.4409292968
O   O29       1.0  0.65770  0.78970  0.44900  1.0000 -0.5268892852
O   O30       1.0  0.34230  0.28970  0.05100  1.0000 -0.5268892852
O   O31       1.0  0.72630  0.77980  0.56460  1.0000 -0.5932745146
O   O32       1.0  0.27370  0.27980  0.93540  1.0000 -0.5932745146
O   O33       1.0  0.46350  0.36180  0.80220  1.0000 -0.5230763586
O   O34       1.0  0.53650  0.86180  0.69780  1.0000 -0.5230763586
O   O35       1.0  0.45650  0.42220  0.86090  1.0000 -0.547999045
O   O36       1.0  0.54350  0.92220  0.63910  1.0000 -0.5447693474
O   O37       1.0  0.49090  0.35570  0.15880  1.0000 -0.5230763586
O   O38       1.0  0.50910  0.85570  0.34120  1.0000 -0.5230763586
O   O39       1.0  0.47500  0.42210  0.10130  1.0000 -0.5268892852
O   O40       1.0  0.52500  0.92210  0.39870  1.0000 -0.5268892852
O   O41       1.0  0.26200  0.39390  0.74100  1.0000 -0.5447693474
O   O42       1.0  0.73800  0.89390  0.75900  1.0000 -0.5447693474
O   O43       1.0  0.78360  0.79240  0.70520  1.0000 -0.5597199308
O   O44       1.0  0.21640  0.29240  0.79480  1.0000 -0.5597199308
O   O45       1.0  0.68220  0.78840  0.73020  1.0000 -0.547999045
O   O46       1.0  0.31780  0.28840  0.76980  1.0000 -0.547999045
O   O47       1.0  0.28850  0.39020  0.06050  1.0000 -0.5102218198
O   O48       1.0  0.71150  0.89020  0.43950  1.0000 -0.5102218198
O   O49       1.0  0.28080  0.38740  0.96190  1.0000 -0.5795596796
O   O50       1.0  0.71920  0.88740  0.53810  1.0000 -0.5795596796
O   O51       1.0  0.21060  0.39950  0.81050  1.0000 -0.6031322288
O   O52       1.0  0.78940  0.89950  0.68950  1.0000 -0.6031322288
O   O53       1.0  0.37510  0.34710  0.90520  1.0000 -0.5268892852
O   O54       1.0  0.62490  0.84710  0.59480  1.0000 -0.5268892852
O   O55       1.0  0.46490  0.33890  0.01730  1.0000 -0.4409292968
O   O56       1.0  0.53510  0.83890  0.48270  1.0000 -0.4409292968
