# DDEC6 charges by PACMAN v1.1 (https://github.com/mtap-research/PACMAN-charge/)
data_2013[Er][nan]3[ASR]3
_chemical_formula_sum              "Er4 H6 C30 O24"
_cell_length_a       10.4135
_cell_length_b       10.5541
_cell_length_c       14.0372
_cell_angle_alpha    99.595
_cell_angle_beta     99.62
_cell_angle_gamma    108.843

_symmetry_space_group_name_H-M    "P 1"
_symmetry_Int_Tables_number       1

loop_
  _symmetry_equiv_pos_as_xyz
  'x, y, z'

loop_
  _atom_site_type_symbol
  _atom_site_label
  _atom_site_symmetry_multiplicity
  _atom_site_fract_x
  _atom_site_fract_y
  _atom_site_fract_z
  _atom_site_occupancy
  _atom_site_charge
Er  Er1       1.0  0.03584  0.53583  0.17855  1.0000 2.0439321333
Er  Er2       1.0  0.96416  0.46417  0.82145  1.0000 2.0439321333
Er  Er3       1.0  0.45822  0.93462  0.81801  1.0000 2.0462676818
Er  Er4       1.0  0.54178  0.06538  0.18199  1.0000 2.0462676818
H   H1        1.0  0.20790  0.18170  0.07830  1.0000 0.1233086819
H   H2        1.0  0.79210  0.81830  0.92170  1.0000 0.1233086819
H   H3        1.0  0.69850  0.66550  0.10850  1.0000 0.1233086819
H   H4        1.0  0.30150  0.33450  0.89150  1.0000 0.1233086819
H   H5        1.0  0.91430  0.26270  0.44870  1.0000 0.1233086819
H   H6        1.0  0.08570  0.73730  0.55130  1.0000 0.1233086819
C   C1        1.0  0.99830  0.12080  0.05570  1.0000 -0.0196670209
C   C2        1.0  0.00170  0.87920  0.94430  1.0000 -0.0196670209
C   C3        1.0  0.87230  0.01200  0.00950  1.0000 -0.0359937036
C   C4        1.0  0.12770  0.98800  0.99050  1.0000 -0.0359937036
C   C5        1.0  0.12480  0.10890  0.04680  1.0000 -0.132340624
C   C6        1.0  0.87520  0.89110  0.95320  1.0000 -0.132340624
C   C7        1.0  0.99910  0.25860  0.10560  1.0000 0.5685079628
C   C8        1.0  0.00090  0.74140  0.89440  1.0000 0.5685079628
C   C9        1.0  0.73500  0.01770  0.02700  1.0000 0.6700551444
C   C10       1.0  0.26500  0.98230  0.97300  1.0000 0.6700551444
C   C11       1.0  0.51190  0.39820  0.92810  1.0000 -0.0147952037
C   C12       1.0  0.48810  0.60180  0.07190  1.0000 -0.0147952037
C   C13       1.0  0.63160  0.49840  0.99320  1.0000 -0.0577580147
C   C14       1.0  0.36840  0.50160  0.00680  1.0000 -0.0577580147
C   C15       1.0  0.61880  0.59930  0.06490  1.0000 -0.1183141126
C   C16       1.0  0.38120  0.40070  0.93510  1.0000 -0.1183141126
C   C17       1.0  0.51510  0.27950  0.85300  1.0000 0.608968311
C   C18       1.0  0.48490  0.72050  0.14700  1.0000 0.608968311
C   C19       1.0  0.77480  0.50140  0.98820  1.0000 0.6700551444
C   C20       1.0  0.22520  0.49860  0.01180  1.0000 0.6700551444
C   C21       1.0  0.96980  0.58010  0.43490  1.0000 -0.0577580147
C   C22       1.0  0.03020  0.41990  0.56510  1.0000 -0.0577580147
C   C23       1.0  0.91710  0.43520  0.40390  1.0000 -0.0682260553
C   C24       1.0  0.08290  0.56480  0.59610  1.0000 -0.0682260553
C   C25       1.0  0.94890  0.35830  0.46970  1.0000 -0.0844885474
C   C26       1.0  0.05110  0.64170  0.53030  1.0000 -0.0844885474
C   C27       1.0  0.94380  0.67400  0.36970  1.0000 0.593739056
C   C28       1.0  0.05620  0.32600  0.63030  1.0000 0.593739056
C   C29       1.0  0.82310  0.35770  0.30330  1.0000 0.6566873723
C   C30       1.0  0.17690  0.64230  0.69670  1.0000 0.6566873723
O   O1        1.0  0.63760  0.99310  0.95310  1.0000 -0.7210743493
O   O2        1.0  0.36240  0.00690  0.04690  1.0000 -0.7210743493
O   O3        1.0  0.72700  0.04200  0.11640  1.0000 -0.6691338932
O   O4        1.0  0.27300  0.95800  0.88360  1.0000 -0.6691338932
O   O5        1.0  0.92380  0.31010  0.05740  1.0000 -0.601395554
O   O6        1.0  0.07620  0.68990  0.94260  1.0000 -0.601395554
O   O7        1.0  0.08020  0.32490  0.18900  1.0000 -0.6433972782
O   O8        1.0  0.91980  0.67510  0.81100  1.0000 -0.6433972782
O   O9        1.0  0.86880  0.55750  0.06770  1.0000 -0.6982368296
O   O10       1.0  0.13120  0.44250  0.93230  1.0000 -0.6982368296
O   O11       1.0  0.79320  0.45060  0.90680  1.0000 -0.6691338932
O   O12       1.0  0.20680  0.54940  0.09320  1.0000 -0.6691338932
O   O13       1.0  0.52560  0.17830  0.88560  1.0000 -0.6820028638
O   O14       1.0  0.47440  0.82170  0.11440  1.0000 -0.6820028638
O   O15       1.0  0.49730  0.28490  0.76370  1.0000 -0.4963854766
O   O16       1.0  0.50270  0.71510  0.23630  1.0000 -0.4963854766
O   O17       1.0  0.84570  0.40700  0.22940  1.0000 -0.6820028638
O   O18       1.0  0.15430  0.59300  0.77060  1.0000 -0.6820028638
O   O19       1.0  0.72620  0.24770  0.29910  1.0000 -0.6820028638
O   O20       1.0  0.27380  0.75230  0.70090  1.0000 -0.6820028638
O   O21       1.0  0.99980  0.68420  0.29890  1.0000 -0.6820028638
O   O22       1.0  0.00020  0.31580  0.70110  1.0000 -0.6820028638
O   O23       1.0  0.87530  0.74510  0.39420  1.0000 -0.4120288259
O   O24       1.0  0.12470  0.25490  0.60580  1.0000 -0.4120288259
