# DDEC6 charges by PACMAN v1.1 (https://github.com/mtap-research/PACMAN-charge/)
data_2013[Zn][flu]3[ASR]1
_chemical_formula_sum              "Zn8 P4 H52 C84 O32"
_cell_length_a       13.71
_cell_length_b       14.753
_cell_length_c       20.027
_cell_angle_alpha    90
_cell_angle_beta     107.969
_cell_angle_gamma    90

_symmetry_space_group_name_H-M    "P 1"
_symmetry_Int_Tables_number       1

loop_
  _symmetry_equiv_pos_as_xyz
  'x, y, z'

loop_
  _atom_site_type_symbol
  _atom_site_label
  _atom_site_symmetry_multiplicity
  _atom_site_fract_x
  _atom_site_fract_y
  _atom_site_fract_z
  _atom_site_occupancy
  _atom_site_charge
Zn  Zn1       1.0  0.59845  0.02520  0.56213  1.0000 0.9745992658
Zn  Zn2       1.0  0.40155  0.52520  0.93787  1.0000 0.9745992658
Zn  Zn3       1.0  0.40155  0.97480  0.43787  1.0000 0.9745992658
Zn  Zn4       1.0  0.59845  0.47480  0.06213  1.0000 0.9745992658
Zn  Zn5       1.0  0.35162  0.09889  0.55285  1.0000 1.0243383881
Zn  Zn6       1.0  0.64838  0.59889  0.94715  1.0000 1.0243383881
Zn  Zn7       1.0  0.64838  0.90111  0.44715  1.0000 1.0243383881
Zn  Zn8       1.0  0.35162  0.40111  0.05285  1.0000 1.0243383881
P   P1        1.0  0.27574  0.02659  0.69600  1.0000 0.8621486064
P   P2        1.0  0.72426  0.52659  0.80400  1.0000 0.8621486064
P   P3        1.0  0.72426  0.97341  0.30400  1.0000 0.8621486064
P   P4        1.0  0.27574  0.47341  0.19600  1.0000 0.8621486064
H   H1        1.0  0.53830  0.82450  0.81810  1.0000 0.1107479942
H   H2        1.0  0.46170  0.32450  0.68190  1.0000 0.1107479942
H   H3        1.0  0.46170  0.17550  0.18190  1.0000 0.1107479942
H   H4        1.0  0.53830  0.67550  0.31810  1.0000 0.1107479942
H   H5        1.0  0.26020  0.75520  0.82680  1.0000 0.1278503117
H   H6        1.0  0.73980  0.25520  0.67320  1.0000 0.1278503117
H   H7        1.0  0.73980  0.24480  0.17320  1.0000 0.1278503117
H   H8        1.0  0.26020  0.74480  0.32680  1.0000 0.1278503117
H   H9        1.0  0.43300  0.94870  0.56500  1.0000 0.393728399
H   H10       1.0  0.56700  0.44870  0.93500  1.0000 0.393728399
H   H11       1.0  0.56700  0.05130  0.43500  1.0000 0.393728399
H   H12       1.0  0.43300  0.55130  0.06500  1.0000 0.393728399
H   H13       1.0  0.46780  0.94830  0.75070  1.0000 0.1278503117
H   H14       1.0  0.53220  0.44830  0.74930  1.0000 0.1278503117
H   H15       1.0  0.53220  0.05170  0.24930  1.0000 0.1278503117
H   H16       1.0  0.46780  0.55170  0.25070  1.0000 0.1278503117
H   H17       1.0  0.33480  0.20730  0.69460  1.0000 0.1278503117
H   H18       1.0  0.66520  0.70730  0.80540  1.0000 0.1278503117
H   H19       1.0  0.66520  0.79270  0.30540  1.0000 0.1278503117
H   H20       1.0  0.33480  0.29270  0.19460  1.0000 0.1278503117
H   H21       1.0  0.14670  0.91380  0.59300  1.0000 0.1198829226
H   H22       1.0  0.85330  0.41380  0.90700  1.0000 0.1198829226
H   H23       1.0  0.85330  0.08620  0.40700  1.0000 0.1198829226
H   H24       1.0  0.14670  0.58620  0.09300  1.0000 0.1198829226
H   H25       1.0  0.97410  0.89970  0.53820  1.0000 0.1198829226
H   H26       1.0  0.02590  0.39970  0.96180  1.0000 0.1198829226
H   H27       1.0  0.02590  0.10030  0.46180  1.0000 0.1198829226
H   H28       1.0  0.97410  0.60030  0.03820  1.0000 0.1198829226
H   H29       1.0  0.19080  0.87920  0.75940  1.0000 0.1107479942
H   H30       1.0  0.80920  0.37920  0.74060  1.0000 0.1107479942
H   H31       1.0  0.80920  0.12080  0.24060  1.0000 0.1107479942
H   H32       1.0  0.19080  0.62080  0.25940  1.0000 0.1107479942
H   H33       1.0  0.26670  0.05340  0.83720  1.0000 0.1107479942
H   H34       1.0  0.73330  0.55340  0.66280  1.0000 0.1107479942
H   H35       1.0  0.73330  0.94660  0.16280  1.0000 0.1107479942
H   H36       1.0  0.26670  0.44660  0.33720  1.0000 0.1107479942
H   H37       1.0  0.36670  0.32810  0.77200  1.0000 0.1198829226
H   H38       1.0  0.63330  0.82810  0.72800  1.0000 0.1198829226
H   H39       1.0  0.63330  0.67190  0.22800  1.0000 0.1198829226
H   H40       1.0  0.36670  0.17190  0.27200  1.0000 0.1198829226
H   H41       1.0  0.29940  0.17460  0.91450  1.0000 0.1278503117
H   H42       1.0  0.70060  0.67460  0.58550  1.0000 0.1278503117
H   H43       1.0  0.70060  0.82540  0.08550  1.0000 0.1278503117
H   H44       1.0  0.29940  0.32540  0.41450  1.0000 0.1278503117
H   H45       1.0  0.92040  0.10550  0.65060  1.0000 0.1278503117
H   H46       1.0  0.07960  0.60550  0.84940  1.0000 0.1278503117
H   H47       1.0  0.07960  0.89450  0.34940  1.0000 0.1278503117
H   H48       1.0  0.92040  0.39450  0.15060  1.0000 0.1278503117
H   H49       1.0  0.09370  0.11790  0.70870  1.0000 0.1107479942
H   H50       1.0  0.90630  0.61790  0.79130  1.0000 0.1107479942
H   H51       1.0  0.90630  0.88210  0.29130  1.0000 0.1107479942
H   H52       1.0  0.09370  0.38210  0.20870  1.0000 0.1107479942
C   C1        1.0  0.29884  0.11841  0.75843  1.0000 -0.1423752482
C   C2        1.0  0.70116  0.61841  0.74157  1.0000 -0.1423752482
C   C3        1.0  0.70116  0.88159  0.24157  1.0000 -0.1423752482
C   C4        1.0  0.29884  0.38159  0.25843  1.0000 -0.1423752482
C   C5        1.0  0.13960  0.01653  0.65746  1.0000 -0.1567618462
C   C6        1.0  0.86040  0.51653  0.84254  1.0000 -0.1567618462
C   C7        1.0  0.86040  0.98347  0.34254  1.0000 -0.1567618462
C   C8        1.0  0.13960  0.48347  0.15746  1.0000 -0.1567618462
C   C9        1.0  0.32160  0.92542  0.74637  1.0000 -0.1466654527
C   C10       1.0  0.67840  0.42542  0.75363  1.0000 -0.1466654527
C   C11       1.0  0.67840  0.07458  0.25363  1.0000 -0.1466654527
C   C12       1.0  0.32160  0.57458  0.24637  1.0000 -0.1466654527
C   C13       1.0  0.40610  0.77527  0.82903  1.0000 -0.0303991034
C   C14       1.0  0.59390  0.27527  0.67097  1.0000 -0.0303991034
C   C15       1.0  0.59390  0.22473  0.17097  1.0000 -0.0303991034
C   C16       1.0  0.40610  0.72473  0.32903  1.0000 -0.0303991034
C   C17       1.0  0.45310  0.69490  0.87291  1.0000 0.6000266311
C   C18       1.0  0.54690  0.19490  0.62709  1.0000 0.6000266311
C   C19       1.0  0.54690  0.30510  0.12709  1.0000 0.6000266311
C   C20       1.0  0.45310  0.80510  0.37291  1.0000 0.6000266311
C   C21       1.0  0.46810  0.83480  0.80600  1.0000 -0.0986842253
C   C22       1.0  0.53190  0.33480  0.69400  1.0000 -0.0986842253
C   C23       1.0  0.53190  0.16520  0.19400  1.0000 -0.0986842253
C   C24       1.0  0.46810  0.66520  0.30600  1.0000 -0.0986842253
C   C25       1.0  0.30250  0.79350  0.81120  1.0000 -0.0986842253
C   C26       1.0  0.69750  0.29350  0.68880  1.0000 -0.0986842253
C   C27       1.0  0.69750  0.20650  0.18880  1.0000 -0.0986842253
C   C28       1.0  0.30250  0.70650  0.31120  1.0000 -0.0986842253
C   C29       1.0  0.92900  0.00150  0.58936  1.0000 -0.0188005853
C   C30       1.0  0.07100  0.50150  0.91064  1.0000 -0.0188005853
C   C31       1.0  0.07100  0.99850  0.41064  1.0000 -0.0188005853
C   C32       1.0  0.92900  0.49850  0.08936  1.0000 -0.0188005853
C   C33       1.0  0.42560  0.90890  0.76550  1.0000 -0.0865712377
C   C34       1.0  0.57440  0.40890  0.73450  1.0000 -0.0865712377
C   C35       1.0  0.57440  0.09110  0.23450  1.0000 -0.0865712377
C   C36       1.0  0.42560  0.59110  0.26550  1.0000 -0.0865712377
C   C37       1.0  0.81460  0.99240  0.55306  1.0000 0.5836380359
C   C38       1.0  0.18540  0.49240  0.94694  1.0000 0.5836380359
C   C39       1.0  0.18540  0.00760  0.44694  1.0000 0.5836380359
C   C40       1.0  0.81460  0.50760  0.05306  1.0000 0.5836380359
C   C41       1.0  0.32780  0.20000  0.73901  1.0000 -0.0820656481
C   C42       1.0  0.67220  0.70000  0.76099  1.0000 -0.0820656481
C   C43       1.0  0.67220  0.80000  0.26099  1.0000 -0.0820656481
C   C44       1.0  0.32780  0.30000  0.23901  1.0000 -0.0820656481
C   C45       1.0  0.10140  0.95220  0.60550  1.0000 -0.0865712377
C   C46       1.0  0.89860  0.45220  0.89450  1.0000 -0.0865712377
C   C47       1.0  0.89860  0.04780  0.39450  1.0000 -0.0865712377
C   C48       1.0  0.10140  0.54780  0.10550  1.0000 -0.0865712377
C   C49       1.0  0.99810  0.94400  0.57235  1.0000 -0.0986842253
C   C50       1.0  0.00190  0.44400  0.92765  1.0000 -0.0986842253
C   C51       1.0  0.00190  0.05600  0.42765  1.0000 -0.0986842253
C   C52       1.0  0.99810  0.55600  0.07235  1.0000 -0.0986842253
C   C53       1.0  0.26070  0.86780  0.77060  1.0000 -0.0986842253
C   C54       1.0  0.73930  0.36780  0.72940  1.0000 -0.0986842253
C   C55       1.0  0.73930  0.13220  0.22940  1.0000 -0.0986842253
C   C56       1.0  0.26070  0.63220  0.27060  1.0000 -0.0986842253
C   C57       1.0  0.28740  0.10870  0.82388  1.0000 -0.0986842253
C   C58       1.0  0.71260  0.60870  0.67612  1.0000 -0.0986842253
C   C59       1.0  0.71260  0.89130  0.17612  1.0000 -0.0986842253
C   C60       1.0  0.28740  0.39130  0.32388  1.0000 -0.0986842253
C   C61       1.0  0.34690  0.27260  0.78563  1.0000 -0.0986842253
C   C62       1.0  0.65310  0.77260  0.71437  1.0000 -0.0986842253
C   C63       1.0  0.65310  0.72740  0.21437  1.0000 -0.0986842253
C   C64       1.0  0.34690  0.22740  0.28563  1.0000 -0.0986842253
C   C65       1.0  0.30690  0.18160  0.87016  1.0000 -0.0986842253
C   C66       1.0  0.69310  0.68160  0.62984  1.0000 -0.0986842253
C   C67       1.0  0.69310  0.81840  0.12984  1.0000 -0.0986842253
C   C68       1.0  0.30690  0.31840  0.37016  1.0000 -0.0986842253
C   C69       1.0  0.96590  0.06600  0.63940  1.0000 -0.0986842253
C   C70       1.0  0.03410  0.56600  0.86060  1.0000 -0.0986842253
C   C71       1.0  0.03410  0.93400  0.36060  1.0000 -0.0986842253
C   C72       1.0  0.96590  0.43400  0.13940  1.0000 -0.0986842253
C   C73       1.0  0.07020  0.07400  0.67420  1.0000 -0.0986842253
C   C74       1.0  0.92980  0.57400  0.82580  1.0000 -0.0986842253
C   C75       1.0  0.92980  0.92600  0.32580  1.0000 -0.0986842253
C   C76       1.0  0.07020  0.42600  0.17420  1.0000 -0.0986842253
C   C77       1.0  0.33710  0.26330  0.85120  1.0000 -0.0188005853
C   C78       1.0  0.66290  0.76330  0.64880  1.0000 -0.0188005853
C   C79       1.0  0.66290  0.73670  0.14880  1.0000 -0.0188005853
C   C80       1.0  0.33710  0.23670  0.35120  1.0000 -0.0188005853
C   C81       1.0  0.35950  0.34270  0.90105  1.0000 0.5836380359
C   C82       1.0  0.64050  0.84270  0.59895  1.0000 0.5836380359
C   C83       1.0  0.64050  0.65730  0.09895  1.0000 0.5836380359
C   C84       1.0  0.35950  0.15730  0.40105  1.0000 0.5836380359
O   O1        1.0  0.32999  0.04079  0.64290  1.0000 -0.6573986176
O   O2        1.0  0.67001  0.54079  0.85710  1.0000 -0.6573986176
O   O3        1.0  0.67001  0.95921  0.35710  1.0000 -0.6573986176
O   O4        1.0  0.32999  0.45921  0.14290  1.0000 -0.6573986176
O   O5        1.0  0.54818  0.68585  0.88699  1.0000 -0.5510684612
O   O6        1.0  0.45182  0.18585  0.61301  1.0000 -0.5510684612
O   O7        1.0  0.45182  0.31415  0.11301  1.0000 -0.5510684612
O   O8        1.0  0.54818  0.81415  0.38699  1.0000 -0.5510684612
O   O9        1.0  0.78928  0.93235  0.50630  1.0000 -0.5600941244
O   O10       1.0  0.21072  0.43235  0.99370  1.0000 -0.5600941244
O   O11       1.0  0.21072  0.06765  0.49370  1.0000 -0.5600941244
O   O12       1.0  0.78928  0.56765  0.00630  1.0000 -0.5600941244
O   O13       1.0  0.36358  0.41914  0.87464  1.0000 -0.5407142602
O   O14       1.0  0.63642  0.91914  0.62536  1.0000 -0.5407142602
O   O15       1.0  0.63642  0.58086  0.12536  1.0000 -0.5407142602
O   O16       1.0  0.36358  0.08086  0.37464  1.0000 -0.5407142602
O   O17       1.0  0.39282  0.64328  0.89126  1.0000 -0.5407142602
O   O18       1.0  0.60718  0.14328  0.60874  1.0000 -0.5407142602
O   O19       1.0  0.60718  0.35672  0.10874  1.0000 -0.5407142602
O   O20       1.0  0.39282  0.85672  0.39126  1.0000 -0.5407142602
O   O21       1.0  0.75641  0.04418  0.57177  1.0000 -0.5407142602
O   O22       1.0  0.24359  0.54418  0.92823  1.0000 -0.5407142602
O   O23       1.0  0.24359  0.95582  0.42823  1.0000 -0.5407142602
O   O24       1.0  0.75641  0.45582  0.07177  1.0000 -0.5407142602
O   O25       1.0  0.37160  0.32782  0.96403  1.0000 -0.5600941244
O   O26       1.0  0.62840  0.82782  0.53597  1.0000 -0.5600941244
O   O27       1.0  0.62840  0.67218  0.03597  1.0000 -0.5600941244
O   O28       1.0  0.37160  0.17218  0.46403  1.0000 -0.5600941244
O   O29       1.0  0.43996  0.99475  0.54142  1.0000 -0.8560425851
O   O30       1.0  0.56004  0.49475  0.95858  1.0000 -0.8560425851
O   O31       1.0  0.56004  0.00525  0.45858  1.0000 -0.8560425851
O   O32       1.0  0.43996  0.50525  0.04142  1.0000 -0.8560425851
