# DDEC6 charges by PACMAN v1.1 (https://github.com/mtap-research/PACMAN-charge/)
data_2013[Zn][dia]3[ASR]9
_chemical_formula_sum              "Zn16 H192 C152 N16 O56"
_cell_length_a       20.2881
_cell_length_b       20.2881
_cell_length_c       20.2881
_cell_angle_alpha    96.0031
_cell_angle_beta     96.0031
_cell_angle_gamma    142.264

_symmetry_space_group_name_H-M    "P 1"
_symmetry_Int_Tables_number       1

loop_
  _symmetry_equiv_pos_as_xyz
  'x, y, z'

loop_
  _atom_site_type_symbol
  _atom_site_label
  _atom_site_symmetry_multiplicity
  _atom_site_fract_x
  _atom_site_fract_y
  _atom_site_fract_z
  _atom_site_occupancy
  _atom_site_charge
Zn  Zn1       1.0  0.22284  0.58601  0.41287  1.0000 0.8311878042
Zn  Zn2       1.0  0.17314  0.80997  0.58713  1.0000 0.8311878042
Zn  Zn3       1.0  0.05997  0.97284  0.13683  1.0000 0.8311878042
Zn  Zn4       1.0  0.83601  0.92314  0.86317  1.0000 0.8311878042
Zn  Zn5       1.0  0.02716  0.16399  0.08713  1.0000 0.8311878042
Zn  Zn6       1.0  0.07686  0.94003  0.91287  1.0000 0.8311878042
Zn  Zn7       1.0  0.19003  0.77716  0.36317  1.0000 0.8311878042
Zn  Zn8       1.0  0.41399  0.82686  0.63683  1.0000 0.8311878042
Zn  Zn9       1.0  0.09403  0.37311  0.44756  1.0000 0.8311878042
Zn  Zn10      1.0  0.92555  0.64647  0.55244  1.0000 0.8311878042
Zn  Zn11      1.0  0.89647  0.84403  0.22092  1.0000 0.8311878042
Zn  Zn12      1.0  0.62311  0.67555  0.77908  1.0000 0.8311878042
Zn  Zn13      1.0  0.15597  0.37689  0.05244  1.0000 0.8311878042
Zn  Zn14      1.0  0.32445  0.10353  0.94756  1.0000 0.8311878042
Zn  Zn15      1.0  0.35353  0.90597  0.27908  1.0000 0.8311878042
Zn  Zn16      1.0  0.62689  0.07445  0.72092  1.0000 0.8311878042
H   H1        1.0  0.62970  0.65080  0.40370  1.0000 0.1370181835
H   H2        1.0  0.24710  0.22600  0.59630  1.0000 0.1370181835
H   H3        1.0  0.47600  0.37970  0.47890  1.0000 0.1370181835
H   H4        1.0  0.90080  0.99710  0.52110  1.0000 0.1370181835
H   H5        1.0  0.62030  0.09920  0.09630  1.0000 0.1370181835
H   H6        1.0  0.00290  0.52400  0.90370  1.0000 0.1370181835
H   H7        1.0  0.77400  0.37030  0.02110  1.0000 0.1370181835
H   H8        1.0  0.34920  0.75290  0.97890  1.0000 0.1370181835
H   H9        1.0  0.56620  0.54320  0.42440  1.0000 0.1293231556
H   H10       1.0  0.11880  0.14180  0.57560  1.0000 0.1293231556
H   H11       1.0  0.39180  0.31620  0.52300  1.0000 0.1293231556
H   H12       1.0  0.79320  0.86880  0.47700  1.0000 0.1293231556
H   H13       1.0  0.68380  0.20680  0.07560  1.0000 0.1293231556
H   H14       1.0  0.13120  0.60820  0.92440  1.0000 0.1293231556
H   H15       1.0  0.85820  0.43380  0.97700  1.0000 0.1293231556
H   H16       1.0  0.45680  0.88120  0.02300  1.0000 0.1293231556
H   H17       1.0  0.52740  0.53090  0.34770  1.0000 0.1478177132
H   H18       1.0  0.18320  0.17970  0.65230  1.0000 0.1478177132
H   H19       1.0  0.42970  0.27740  0.49650  1.0000 0.1478177132
H   H20       1.0  0.78090  0.93320  0.50350  1.0000 0.1478177132
H   H21       1.0  0.72260  0.21910  0.15230  1.0000 0.1478177132
H   H22       1.0  0.06680  0.57030  0.84770  1.0000 0.1478177132
H   H23       1.0  0.82030  0.47260  0.00350  1.0000 0.1478177132
H   H24       1.0  0.46910  0.81680  0.99650  1.0000 0.1478177132
H   H25       1.0  0.37280  0.41080  0.43340  1.0000 0.1293231556
H   H26       1.0  0.97740  0.93940  0.56660  1.0000 0.1293231556
H   H27       1.0  0.18940  0.12280  0.46200  1.0000 0.1293231556
H   H28       1.0  0.66080  0.72740  0.53800  1.0000 0.1293231556
H   H29       1.0  0.87720  0.33920  0.06660  1.0000 0.1293231556
H   H30       1.0  0.27260  0.81060  0.93340  1.0000 0.1293231556
H   H31       1.0  0.06060  0.62720  0.03800  1.0000 0.1293231556
H   H32       1.0  0.58920  0.02260  0.96200  1.0000 0.1293231556
H   H33       1.0  0.56430  0.70960  0.40570  1.0000 0.1370181835
H   H34       1.0  0.30390  0.15860  0.59430  1.0000 0.1370181835
H   H35       1.0  0.40860  0.31430  0.35470  1.0000 0.1370181835
H   H36       1.0  0.95960  0.05390  0.64530  1.0000 0.1370181835
H   H37       1.0  0.68570  0.04040  0.09430  1.0000 0.1370181835
H   H38       1.0  0.94610  0.59140  0.90570  1.0000 0.1370181835
H   H39       1.0  0.84140  0.43570  0.14530  1.0000 0.1370181835
H   H40       1.0  0.29040  0.69610  0.85470  1.0000 0.1370181835
H   H41       1.0  0.53340  0.79300  0.43560  1.0000 0.1188341649
H   H42       1.0  0.35740  0.09780  0.56440  1.0000 0.1188341649
H   H43       1.0  0.34780  0.28340  0.24040  1.0000 0.1188341649
H   H44       1.0  0.04300  0.10740  0.75960  1.0000 0.1188341649
H   H45       1.0  0.71660  0.95700  0.06440  1.0000 0.1188341649
H   H46       1.0  0.89260  0.65220  0.93560  1.0000 0.1188341649
H   H47       1.0  0.90220  0.46660  0.25960  1.0000 0.1188341649
H   H48       1.0  0.20700  0.64260  0.74040  1.0000 0.1188341649
H   H49       1.0  0.46520  0.75280  0.48860  1.0000 0.1293231556
H   H50       1.0  0.26420  0.97660  0.51140  1.0000 0.1293231556
H   H51       1.0  0.22660  0.21520  0.21240  1.0000 0.1293231556
H   H52       1.0  0.00280  0.01420  0.78760  1.0000 0.1293231556
H   H53       1.0  0.78480  0.99720  0.01140  1.0000 0.1293231556
H   H54       1.0  0.98580  0.77340  0.98860  1.0000 0.1293231556
H   H55       1.0  0.02340  0.53480  0.28760  1.0000 0.1293231556
H   H56       1.0  0.24720  0.73580  0.71240  1.0000 0.1293231556
H   H57       1.0  0.44950  0.74450  0.31500  1.0000 0.112459532
H   H58       1.0  0.42950  0.13450  0.68500  1.0000 0.1188341649
H   H59       1.0  0.38450  0.19950  0.20500  1.0000 0.1188341649
H   H60       1.0  0.99450  0.17950  0.79500  1.0000 0.112459532
H   H61       1.0  0.80050  0.00550  0.18500  1.0000 0.1188341649
H   H62       1.0  0.82050  0.61550  0.81500  1.0000 0.112459532
H   H63       1.0  0.86550  0.55050  0.29500  1.0000 0.1188341649
H   H64       1.0  0.25550  0.57050  0.70500  1.0000 0.1188341649
H   H65       1.0  0.35540  0.61780  0.31280  1.0000 0.112459532
H   H66       1.0  0.30500  0.04260  0.68720  1.0000 0.112459532
H   H67       1.0  0.29260  0.10540  0.23760  1.0000 0.112459532
H   H68       1.0  0.86780  0.05500  0.76240  1.0000 0.112459532
H   H69       1.0  0.89460  0.13220  0.18720  1.0000 0.112459532
H   H70       1.0  0.94500  0.70740  0.81280  1.0000 0.112459532
H   H71       1.0  0.95740  0.64460  0.26240  1.0000 0.112459532
H   H72       1.0  0.38220  0.69500  0.73760  1.0000 0.112459532
H   H73       1.0  0.21710  0.58880  0.27130  1.0000 0.1188341649
H   H74       1.0  0.31750  0.94580  0.72870  1.0000 0.1188341649
H   H75       1.0  0.19580  0.96710  0.12830  1.0000 0.1188341649
H   H76       1.0  0.83880  0.06750  0.87170  1.0000 0.1188341649
H   H77       1.0  0.03290  0.16120  0.22870  1.0000 0.1188341649
H   H78       1.0  0.93250  0.80420  0.77130  1.0000 0.1188341649
H   H79       1.0  0.05420  0.78290  0.37170  1.0000 0.1188341649
H   H80       1.0  0.41120  0.68250  0.62830  1.0000 0.1188341649
H   H81       1.0  0.31500  0.71270  0.26650  1.0000 0.1188341649
H   H82       1.0  0.44620  0.04850  0.73350  1.0000 0.1188341649
H   H83       1.0  0.29850  0.06500  0.10230  1.0000 0.1188341649
H   H84       1.0  0.96270  0.19620  0.89770  1.0000 0.1188341649
H   H85       1.0  0.93500  0.03730  0.23350  1.0000 0.1188341649
H   H86       1.0  0.80380  0.70150  0.76650  1.0000 0.1188341649
H   H87       1.0  0.95150  0.68500  0.39770  1.0000 0.1188341649
H   H88       1.0  0.28730  0.55380  0.60230  1.0000 0.1188341649
H   H89       1.0  0.28480  0.56020  0.19440  1.0000 0.112459532
H   H90       1.0  0.36580  0.09040  0.80560  1.0000 0.112459532
H   H91       1.0  0.34040  0.03480  0.22460  1.0000 0.112459532
H   H92       1.0  0.81020  0.11580  0.77540  1.0000 0.112459532
H   H93       1.0  0.96520  0.18980  0.30560  1.0000 0.112459532
H   H94       1.0  0.88420  0.65960  0.69440  1.0000 0.112459532
H   H95       1.0  0.90960  0.71520  0.27540  1.0000 0.112459532
H   H96       1.0  0.43980  0.63420  0.72460  1.0000 0.112459532
H   H97       1.0  0.34390  0.66850  0.17740  1.0000 0.112459532
H   H98       1.0  0.49110  0.16650  0.82260  1.0000 0.112459532
H   H99       1.0  0.41650  0.09390  0.17540  1.0000 0.112459532
H   H100      1.0  0.91850  0.24110  0.82460  1.0000 0.112459532
H   H101      1.0  0.90610  0.08150  0.32260  1.0000 0.112459532
H   H102      1.0  0.75890  0.58350  0.67740  1.0000 0.112459532
H   H103      1.0  0.83350  0.65610  0.32460  1.0000 0.112459532
H   H104      1.0  0.33150  0.50890  0.67540  1.0000 0.112459532
H   H105      1.0  0.22880  0.38250  0.51970  1.0000 0.1188341649
H   H106      1.0  0.86280  0.70910  0.48030  1.0000 0.1188341649
H   H107      1.0  0.95910  0.97880  0.34630  1.0000 0.1188341649
H   H108      1.0  0.63250  0.61280  0.65370  1.0000 0.1188341649
H   H109      1.0  0.02120  0.36750  0.98030  1.0000 0.1188341649
H   H110      1.0  0.38720  0.04090  0.01970  1.0000 0.1188341649
H   H111      1.0  0.29090  0.77120  0.15370  1.0000 0.1188341649
H   H112      1.0  0.61750  0.13720  0.84630  1.0000 0.1188341649
H   H113      1.0  0.22320  0.31010  0.47430  1.0000 0.1188341649
H   H114      1.0  0.83580  0.74890  0.52570  1.0000 0.1188341649
H   H115      1.0  0.99890  0.97320  0.41310  1.0000 0.1188341649
H   H116      1.0  0.56010  0.58580  0.58690  1.0000 0.1188341649
H   H117      1.0  0.02680  0.43990  0.02570  1.0000 0.1188341649
H   H118      1.0  0.41420  0.00110  0.97430  1.0000 0.1188341649
H   H119      1.0  0.25110  0.77680  0.08690  1.0000 0.1188341649
H   H120      1.0  0.68990  0.16420  0.91310  1.0000 0.1188341649
H   H121      1.0  0.47190  0.86240  0.38410  1.0000 0.1607237864
H   H122      1.0  0.47830  0.08780  0.61590  1.0000 0.1607237864
H   H123      1.0  0.33780  0.22190  0.10950  1.0000 0.1607237864
H   H124      1.0  0.11240  0.22830  0.89050  1.0000 0.1607237864
H   H125      1.0  0.77810  0.88760  0.11590  1.0000 0.1607237864
H   H126      1.0  0.77170  0.66220  0.88410  1.0000 0.1607237864
H   H127      1.0  0.91220  0.52810  0.39050  1.0000 0.1607237864
H   H128      1.0  0.13760  0.52170  0.60950  1.0000 0.1607237864
H   H129      1.0  0.46600  0.85510  0.45990  1.0000 0.1607237864
H   H130      1.0  0.39520  0.00610  0.54010  1.0000 0.1607237864
H   H131      1.0  0.25610  0.21600  0.11090  1.0000 0.1607237864
H   H132      1.0  0.10510  0.14520  0.88910  1.0000 0.1607237864
H   H133      1.0  0.78400  0.89490  0.04010  1.0000 0.1607237864
H   H134      1.0  0.85480  0.74390  0.95990  1.0000 0.1607237864
H   H135      1.0  0.99390  0.53400  0.38910  1.0000 0.1607237864
H   H136      1.0  0.14490  0.60480  0.61090  1.0000 0.1607237864
H   H137      1.0  0.94610  0.12820  0.43690  1.0000 0.1478177132
H   H138      1.0  0.69130  0.50920  0.56310  1.0000 0.1478177132
H   H139      1.0  0.75920  0.69610  0.31790  1.0000 0.1478177132
H   H140      1.0  0.37820  0.44130  0.68210  1.0000 0.1478177132
H   H141      1.0  0.30390  0.62180  0.06310  1.0000 0.1478177132
H   H142      1.0  0.55870  0.24080  0.93690  1.0000 0.1478177132
H   H143      1.0  0.49080  0.05390  0.18210  1.0000 0.1478177132
H   H144      1.0  0.87180  0.30870  0.81790  1.0000 0.1478177132
H   H145      1.0  0.04260  0.16350  0.48190  1.0000 0.1370181835
H   H146      1.0  0.68160  0.56070  0.51810  1.0000 0.1370181835
H   H147      1.0  0.81070  0.79260  0.37910  1.0000 0.1370181835
H   H148      1.0  0.41350  0.43160  0.62090  1.0000 0.1370181835
H   H149      1.0  0.20740  0.58650  0.01810  1.0000 0.1370181835
H   H150      1.0  0.56840  0.18930  0.98190  1.0000 0.1370181835
H   H151      1.0  0.43930  0.95740  0.12090  1.0000 0.1370181835
H   H152      1.0  0.83650  0.31840  0.87910  1.0000 0.1370181835
H   H153      1.0  0.83210  0.25850  0.28300  1.0000 0.1755926209
H   H154      1.0  0.97550  0.54910  0.71700  1.0000 0.1755926209
H   H155      1.0  0.79910  0.58210  0.07360  1.0000 0.1755926209
H   H156      1.0  0.50850  0.72550  0.92640  1.0000 0.1755926209
H   H157      1.0  0.41790  0.49150  0.21700  1.0000 0.1755926209
H   H158      1.0  0.27450  0.20090  0.78300  1.0000 0.1755926209
H   H159      1.0  0.45090  0.16790  0.42640  1.0000 0.1755926209
H   H160      1.0  0.74150  0.02450  0.57360  1.0000 0.1755926209
H   H161      1.0  0.91080  0.33100  0.23720  1.0000 0.1607237864
H   H162      1.0  0.09380  0.67360  0.76280  1.0000 0.1607237864
H   H163      1.0  0.92360  0.66080  0.07980  1.0000 0.1607237864
H   H164      1.0  0.58100  0.84380  0.92020  1.0000 0.1607237864
H   H165      1.0  0.33920  0.41900  0.26280  1.0000 0.1607237864
H   H166      1.0  0.15620  0.07640  0.73720  1.0000 0.1607237864
H   H167      1.0  0.32640  0.08920  0.42020  1.0000 0.1607237864
H   H168      1.0  0.66900  0.90620  0.57980  1.0000 0.1607237864
H   H169      1.0  0.86560  0.22390  0.24030  1.0000 0.1674942421
H   H170      1.0  0.98360  0.62530  0.75970  1.0000 0.1674942421
H   H171      1.0  0.87530  0.61560  0.14170  1.0000 0.1674942421
H   H172      1.0  0.47390  0.73360  0.85830  1.0000 0.1674942421
H   H173      1.0  0.38440  0.52610  0.25970  1.0000 0.1674942421
H   H174      1.0  0.26640  0.12470  0.74030  1.0000 0.1674942421
H   H175      1.0  0.37470  0.13440  0.35830  1.0000 0.1674942421
H   H176      1.0  0.77610  0.01640  0.64170  1.0000 0.1674942421
H   H177      1.0  0.11290  0.47740  0.15830  1.0000 0.1188341649
H   H178      1.0  0.31910  0.95460  0.84170  1.0000 0.1188341649
H   H179      1.0  0.20460  0.86290  0.13550  1.0000 0.1188341649
H   H180      1.0  0.72740  0.06910  0.86450  1.0000 0.1188341649
H   H181      1.0  0.13710  0.27260  0.34170  1.0000 0.1188341649
H   H182      1.0  0.93090  0.79540  0.65830  1.0000 0.1188341649
H   H183      1.0  0.04540  0.88710  0.36450  1.0000 0.1188341649
H   H184      1.0  0.52260  0.68090  0.63550  1.0000 0.1188341649
H   H185      1.0  0.17550  0.58250  0.13480  1.0000 0.112459532
H   H186      1.0  0.44770  0.04070  0.86520  1.0000 0.112459532
H   H187      1.0  0.29070  0.92550  0.09300  1.0000 0.112459532
H   H188      1.0  0.83250  0.19770  0.90700  1.0000 0.112459532
H   H189      1.0  0.07450  0.16750  0.36520  1.0000 0.112459532
H   H190      1.0  0.80230  0.70930  0.63480  1.0000 0.112459532
H   H191      1.0  0.95930  0.82450  0.40700  1.0000 0.112459532
H   H192      1.0  0.41750  0.55230  0.59300  1.0000 0.112459532
C   C1        1.0  0.55740  0.57200  0.39580  1.0000 -0.4877098007
C   C2        1.0  0.17620  0.16160  0.60420  1.0000 -0.4877098007
C   C3        1.0  0.41160  0.30740  0.48540  1.0000 -0.4877098007
C   C4        1.0  0.82200  0.92620  0.51460  1.0000 -0.4877098007
C   C5        1.0  0.69260  0.17800  0.10420  1.0000 -0.4877098007
C   C6        1.0  0.07380  0.58840  0.89580  1.0000 -0.4877098007
C   C7        1.0  0.83840  0.44260  0.01460  1.0000 -0.4877098007
C   C8        1.0  0.42800  0.82380  0.98540  1.0000 -0.4877098007
C   C9        1.0  0.47810  0.55790  0.41400  1.0000 0.1607237864
C   C10       1.0  0.14390  0.06410  0.58600  1.0000 0.1607237864
C   C11       1.0  0.31410  0.22810  0.42020  1.0000 0.1607237864
C   C12       1.0  0.80790  0.89390  0.57980  1.0000 0.1607237864
C   C13       1.0  0.77190  0.19210  0.08600  1.0000 0.1607237864
C   C14       1.0  0.10610  0.68590  0.91400  1.0000 0.1607237864
C   C15       1.0  0.93590  0.52190  0.07980  1.0000 0.1607237864
C   C16       1.0  0.44210  0.85610  0.92020  1.0000 0.1607237864
C   C17       1.0  0.38510  0.46540  0.43150  1.0000 -0.2221861044
C   C18       1.0  0.03390  0.95360  0.56850  1.0000 -0.2221861044
C   C19       1.0  0.20360  0.13510  0.41970  1.0000 -0.2221861044
C   C20       1.0  0.71540  0.78390  0.58030  1.0000 -0.2221861044
C   C21       1.0  0.86490  0.28460  0.06850  1.0000 -0.2221861044
C   C22       1.0  0.21610  0.79640  0.93150  1.0000 -0.2221861044
C   C23       1.0  0.04640  0.61490  0.08030  1.0000 -0.2221861044
C   C24       1.0  0.53460  0.96610  0.91970  1.0000 -0.2221861044
C   C25       1.0  0.30810  0.44930  0.44660  1.0000 -0.0340575814
C   C26       1.0  0.00270  0.86150  0.55340  1.0000 -0.0340575814
C   C27       1.0  0.11150  0.05810  0.35880  1.0000 -0.0340575814
C   C28       1.0  0.69930  0.75270  0.64120  1.0000 -0.0350031061
C   C29       1.0  0.94190  0.30070  0.05340  1.0000 -0.0340575814
C   C30       1.0  0.24730  0.88850  0.94660  1.0000 -0.0350031061
C   C31       1.0  0.13850  0.69190  0.14120  1.0000 -0.0340575814
C   C32       1.0  0.55070  0.99730  0.85880  1.0000 -0.0350031061
C   C33       1.0  0.32560  0.53120  0.44280  1.0000 0.1977191596
C   C34       1.0  0.08840  0.88280  0.55720  1.0000 0.1977191596
C   C35       1.0  0.13280  0.07560  0.29440  1.0000 0.1977191596
C   C36       1.0  0.78120  0.83840  0.70560  1.0000 0.1977191596
C   C37       1.0  0.92440  0.21880  0.05720  1.0000 0.1977191596
C   C38       1.0  0.16160  0.86720  0.94280  1.0000 0.1977191596
C   C39       1.0  0.11720  0.67440  0.20560  1.0000 0.1977191596
C   C40       1.0  0.46880  0.91160  0.79440  1.0000 0.1977191596
C   C41       1.0  0.42410  0.63040  0.43130  1.0000 -0.0340575814
C   C42       1.0  0.19910  0.99280  0.56870  1.0000 -0.0340575814
C   C43       1.0  0.24280  0.17410  0.29370  1.0000 -0.0340575814
C   C44       1.0  0.88040  0.94910  0.70630  1.0000 -0.0340575814
C   C45       1.0  0.82590  0.11960  0.06870  1.0000 -0.0340575814
C   C46       1.0  0.05090  0.75720  0.93130  1.0000 -0.0350031061
C   C47       1.0  0.00720  0.57590  0.20630  1.0000 -0.0340575814
C   C48       1.0  0.36960  0.80090  0.79370  1.0000 -0.0350031061
C   C49       1.0  0.50020  0.64430  0.41530  1.0000 -0.2272489844
C   C50       1.0  0.22900  0.08490  0.58470  1.0000 -0.2272489844
C   C51       1.0  0.33490  0.25020  0.35590  1.0000 -0.2272489844
C   C52       1.0  0.89430  0.97900  0.64410  1.0000 -0.2272489844
C   C53       1.0  0.74980  0.10570  0.08470  1.0000 -0.2272489844
C   C54       1.0  0.02100  0.66510  0.91530  1.0000 -0.2272489844
C   C55       1.0  0.91510  0.49980  0.14410  1.0000 -0.2272489844
C   C56       1.0  0.35570  0.77100  0.85590  1.0000 -0.2272489844
C   C57       1.0  0.45890  0.73030  0.44120  1.0000 -0.1584878815
C   C58       1.0  0.28910  0.01770  0.55880  1.0000 -0.1584878815
C   C59       1.0  0.26770  0.20890  0.22860  1.0000 -0.1584878815
C   C60       1.0  0.98030  0.03910  0.77140  1.0000 -0.1584878815
C   C61       1.0  0.79110  0.01970  0.05880  1.0000 -0.1584878815
C   C62       1.0  0.96090  0.73230  0.94120  1.0000 -0.1584878815
C   C63       1.0  0.98230  0.54110  0.27140  1.0000 -0.1584878815
C   C64       1.0  0.26970  0.71090  0.72860  1.0000 -0.1584878815
C   C65       1.0  0.37480  0.68020  0.32000  1.0000 -0.1053970708
C   C66       1.0  0.36020  0.05480  0.68000  1.0000 -0.1053970708
C   C67       1.0  0.30480  0.12480  0.19460  1.0000 -0.1053970708
C   C68       1.0  0.93020  0.11020  0.80540  1.0000 -0.1053970708
C   C69       1.0  0.87520  0.06980  0.18000  1.0000 -0.1053970708
C   C70       1.0  0.88980  0.69520  0.82000  1.0000 -0.1053970708
C   C71       1.0  0.94520  0.62520  0.30540  1.0000 -0.1053970708
C   C72       1.0  0.31980  0.63980  0.69460  1.0000 -0.1053970708
C   C73       1.0  0.29060  0.64750  0.26390  1.0000 -0.1884001093
C   C74       1.0  0.38360  0.02670  0.73610  1.0000 -0.1884001093
C   C75       1.0  0.27670  0.04060  0.14310  1.0000 -0.1884001093
C   C76       1.0  0.89750  0.13360  0.85690  1.0000 -0.1884001093
C   C77       1.0  0.95940  0.10250  0.23610  1.0000 -0.1884001093
C   C78       1.0  0.86640  0.72330  0.76390  1.0000 -0.1884001093
C   C79       1.0  0.97330  0.70940  0.35690  1.0000 -0.1884001093
C   C80       1.0  0.35250  0.61640  0.64310  1.0000 -0.1884001093
C   C81       1.0  0.28080  0.60450  0.19190  1.0000 -0.1761490209
C   C82       1.0  0.41260  0.08890  0.80810  1.0000 -0.1761490209
C   C83       1.0  0.33890  0.03080  0.17630  1.0000 -0.1761490209
C   C84       1.0  0.85450  0.16260  0.82370  1.0000 -0.1761490209
C   C85       1.0  0.96920  0.14550  0.30810  1.0000 -0.1761490209
C   C86       1.0  0.83740  0.66110  0.69190  1.0000 -0.1761490209
C   C87       1.0  0.91110  0.71920  0.32370  1.0000 -0.1761490209
C   C88       1.0  0.39550  0.58740  0.67630  1.0000 -0.1761490209
C   C89       1.0  0.21640  0.35230  0.47250  1.0000 -0.1884001093
C   C90       1.0  0.87980  0.74390  0.52750  1.0000 -0.1884001093
C   C91       1.0  0.99390  0.96640  0.36410  1.0000 -0.1884001093
C   C92       1.0  0.60230  0.62980  0.63590  1.0000 -0.1884001093
C   C93       1.0  0.03360  0.39770  0.02750  1.0000 -0.1884001093
C   C94       1.0  0.37020  0.00610  0.97250  1.0000 -0.1884001093
C   C95       1.0  0.25610  0.78360  0.13590  1.0000 -0.1884001093
C   C96       1.0  0.64770  0.12020  0.86410  1.0000 -0.1884001093
C   C97       1.0  0.42210  0.81380  0.41090  1.0000 -0.2859926736
C   C98       1.0  0.40290  0.01120  0.58910  1.0000 -0.2859926736
C   C99       1.0  0.26120  0.17210  0.10830  1.0000 -0.2859926736
C   C100      1.0  0.06380  0.15290  0.89170  1.0000 -0.2859926736
C   C101      1.0  0.82790  0.93620  0.08910  1.0000 -0.2859926736
C   C102      1.0  0.84710  0.73880  0.91090  1.0000 -0.2859926736
C   C103      1.0  0.98880  0.57790  0.39170  1.0000 -0.2859926736
C   C104      1.0  0.18620  0.59710  0.60830  1.0000 -0.2859926736
C   C105      1.0  0.32840  0.78770  0.39750  1.0000 0.6122522252
C   C106      1.0  0.39020  0.93090  0.60250  1.0000 0.6122522252
C   C107      1.0  0.18090  0.07840  0.04070  1.0000 0.6122522252
C   C108      1.0  0.03770  0.14020  0.95930  1.0000 0.6122522252
C   C109      1.0  0.92160  0.96230  0.10250  1.0000 0.6122522252
C   C110      1.0  0.85980  0.81910  0.89750  1.0000 0.6122522252
C   C111      1.0  0.06910  0.67160  0.45930  1.0000 0.6122522252
C   C112      1.0  0.21230  0.60980  0.54070  1.0000 0.6122522252
C   C113      1.0  0.02310  0.19190  0.46800  1.0000 -0.2959402119
C   C114      1.0  0.72390  0.55510  0.53200  1.0000 -0.2959402119
C   C115      1.0  0.80510  0.77310  0.33120  1.0000 -0.2959402119
C   C116      1.0  0.44190  0.47390  0.66880  1.0000 -0.2959402119
C   C117      1.0  0.22690  0.55810  0.03200  1.0000 -0.2959402119
C   C118      1.0  0.52610  0.19490  0.96800  1.0000 -0.2959402119
C   C119      1.0  0.44490  0.97690  0.16880  1.0000 -0.2959402119
C   C120      1.0  0.80810  0.27610  0.83120  1.0000 -0.2959402119
C   C121      1.0  0.02890  0.24320  0.53110  1.0000 0.5939997332
C   C122      1.0  0.71210  0.49780  0.46890  1.0000 0.5939997332
C   C123      1.0  0.74780  0.77890  0.28570  1.0000 0.5939997332
C   C124      1.0  0.49320  0.46210  0.71430  1.0000 0.5939997332
C   C125      1.0  0.22110  0.50680  0.96890  1.0000 0.5939997332
C   C126      1.0  0.53790  0.25220  0.03110  1.0000 0.5939997332
C   C127      1.0  0.50220  0.97110  0.21430  1.0000 0.5939997332
C   C128      1.0  0.75680  0.28790  0.78570  1.0000 0.5939997332
C   C129      1.0  0.99310  0.35820  0.32710  1.0000 0.6874147551
C   C130      1.0  0.03110  0.66600  0.67290  1.0000 0.6874147551
C   C131      1.0  0.91600  0.74310  0.13490  1.0000 0.6874147551
C   C132      1.0  0.60820  0.78110  0.86510  1.0000 0.6874147551
C   C133      1.0  0.25690  0.39180  0.17290  1.0000 0.6874147551
C   C134      1.0  0.21890  0.08400  0.82710  1.0000 0.6874147551
C   C135      1.0  0.33400  0.00690  0.36510  1.0000 0.6874147551
C   C136      1.0  0.64180  0.96890  0.63490  1.0000 0.6874147551
C   C137      1.0  0.89120  0.28640  0.26640  1.0000 -0.6055626376
C   C138      1.0  0.02000  0.62480  0.73360  1.0000 -0.6055626376
C   C139      1.0  0.87480  0.64120  0.10480  1.0000 -0.6055626376
C   C140      1.0  0.53640  0.77000  0.89520  1.0000 -0.6055626376
C   C141      1.0  0.35880  0.46360  0.23360  1.0000 -0.6055626376
C   C142      1.0  0.23000  0.12520  0.76640  1.0000 -0.6055626376
C   C143      1.0  0.37520  0.10880  0.39520  1.0000 -0.6055626376
C   C144      1.0  0.71360  0.98000  0.60480  1.0000 -0.6055626376
C   C145      1.0  0.17470  0.53500  0.14030  1.0000 -0.1241783965
C   C146      1.0  0.39470  0.03440  0.85970  1.0000 -0.1241783965
C   C147      1.0  0.28440  0.92470  0.13970  1.0000 -0.1241783965
C   C148      1.0  0.78500  0.14470  0.86030  1.0000 -0.1241783965
C   C149      1.0  0.07530  0.21500  0.35970  1.0000 -0.1241783965
C   C150      1.0  0.85530  0.71560  0.64030  1.0000 -0.1241783965
C   C151      1.0  0.96560  0.82530  0.36030  1.0000 -0.1241783965
C   C152      1.0  0.46500  0.60530  0.63970  1.0000 -0.1241783965
N   N1        1.0  0.37999  0.70978  0.39237  1.0000 -0.0693329503
N   N2        1.0  0.31741  0.98762  0.60763  1.0000 -0.0693329503
N   N3        1.0  0.23762  0.12999  0.17021  1.0000 -0.0693329503
N   N4        1.0  0.95978  0.06741  0.82979  1.0000 -0.0693329503
N   N5        1.0  0.87001  0.04022  0.10763  1.0000 -0.0693329503
N   N6        1.0  0.93259  0.76238  0.89237  1.0000 -0.0693329503
N   N7        1.0  0.01238  0.62001  0.32979  1.0000 -0.0693329503
N   N8        1.0  0.29022  0.68259  0.67021  1.0000 -0.0693329503
N   N9        1.0  0.09920  0.27250  0.43050  1.0000 -0.0693329503
N   N10       1.0  0.84200  0.66870  0.56950  1.0000 -0.0693329503
N   N11       1.0  0.91870  0.84920  0.32670  1.0000 -0.0693329503
N   N12       1.0  0.52250  0.59200  0.67330  1.0000 -0.0693329503
N   N13       1.0  0.15080  0.47750  0.06950  1.0000 -0.0693329503
N   N14       1.0  0.40800  0.08130  0.93050  1.0000 -0.0693329503
N   N15       1.0  0.33130  0.90080  0.17330  1.0000 -0.0693329503
N   N16       1.0  0.72750  0.15800  0.82670  1.0000 -0.0693329503
O   O1        1.0  0.25033  0.51643  0.45356  1.0000 -0.5904119341
O   O2        1.0  0.06287  0.79677  0.54644  1.0000 -0.5904119341
O   O3        1.0  0.04677  0.00033  0.23390  1.0000 -0.5904119341
O   O4        1.0  0.76643  0.81287  0.76610  1.0000 -0.5904119341
O   O5        1.0  0.99967  0.23357  0.04644  1.0000 -0.5904119341
O   O6        1.0  0.18713  0.95323  0.95356  1.0000 -0.5904119341
O   O7        1.0  0.20323  0.74967  0.26610  1.0000 -0.5904119341
O   O8        1.0  0.48357  0.93713  0.73390  1.0000 -0.5904119341
O   O9        1.0  0.23022  0.69010  0.39352  1.0000 -0.5210872395
O   O10       1.0  0.29658  0.83670  0.60648  1.0000 -0.5210872395
O   O11       1.0  0.08670  0.98022  0.04012  1.0000 -0.5210872395
O   O12       1.0  0.94010  0.04658  0.95988  1.0000 -0.5210872395
O   O13       1.0  0.01978  0.05990  0.10648  1.0000 -0.5210872395
O   O14       1.0  0.95342  0.91330  0.89352  1.0000 -0.5210872395
O   O15       1.0  0.16330  0.76978  0.45988  1.0000 -0.5210872395
O   O16       1.0  0.30990  0.70342  0.54012  1.0000 -0.5210872395
O   O17       1.0  0.35031  0.86380  0.39231  1.0000 -0.5115814311
O   O18       1.0  0.47149  0.95800  0.60769  1.0000 -0.5115814311
O   O19       1.0  0.20800  0.10031  0.98651  1.0000 -0.5115814311
O   O20       1.0  0.11380  0.22149  0.01349  1.0000 -0.5115814311
O   O21       1.0  0.89969  0.88620  0.10769  1.0000 -0.5115814311
O   O22       1.0  0.77851  0.79200  0.89231  1.0000 -0.5115814311
O   O23       1.0  0.04200  0.64969  0.51349  1.0000 -0.5115814311
O   O24       1.0  0.13620  0.52851  0.48651  1.0000 -0.5115814311
O   O25       1.0  0.00860  0.20560  0.58060  1.0000 -0.5388083262
O   O26       1.0  0.62500  0.42800  0.41940  1.0000 -0.5388083262
O   O27       1.0  0.67800  0.75860  0.30300  1.0000 -0.5388083262
O   O28       1.0  0.45560  0.37500  0.69700  1.0000 -0.5388083262
O   O29       1.0  0.24140  0.54440  0.91940  1.0000 -0.5388083262
O   O30       1.0  0.62500  0.32200  0.08060  1.0000 -0.5388083262
O   O31       1.0  0.57200  0.99140  0.19700  1.0000 -0.5388083262
O   O32       1.0  0.79440  0.37500  0.80300  1.0000 -0.5388083262
O   O33       1.0  0.05560  0.32610  0.52970  1.0000 -0.5613561375
O   O34       1.0  0.79640  0.52590  0.47030  1.0000 -0.5613561375
O   O35       1.0  0.77590  0.80560  0.22950  1.0000 -0.5613561375
O   O36       1.0  0.57610  0.54640  0.77050  1.0000 -0.5613561375
O   O37       1.0  0.19440  0.42390  0.97030  1.0000 -0.5613561375
O   O38       1.0  0.45360  0.22410  0.02970  1.0000 -0.5613561375
O   O39       1.0  0.47410  0.94440  0.27050  1.0000 -0.5613561375
O   O40       1.0  0.67390  0.20360  0.72950  1.0000 -0.5613561375
O   O41       1.0  0.97480  0.30950  0.37250  1.0000 -0.5713393568
O   O42       1.0  0.93700  0.60230  0.62750  1.0000 -0.5713393568
O   O43       1.0  0.85230  0.72480  0.16530  1.0000 -0.5713393568
O   O44       1.0  0.55950  0.68700  0.83470  1.0000 -0.5713393568
O   O45       1.0  0.27520  0.44050  0.12750  1.0000 -0.5713393568
O   O46       1.0  0.31300  0.14770  0.87250  1.0000 -0.5713393568
O   O47       1.0  0.39770  0.02520  0.33470  1.0000 -0.5713393568
O   O48       1.0  0.69050  0.06300  0.66530  1.0000 -0.5713393568
O   O49       1.0  0.08480  0.45450  0.33070  1.0000 -0.5460802866
O   O50       1.0  0.12380  0.75410  0.66930  1.0000 -0.5460802866
O   O51       1.0  0.00410  0.83480  0.13030  1.0000 -0.5460802866
O   O52       1.0  0.70450  0.87380  0.86970  1.0000 -0.5460802866
O   O53       1.0  0.16520  0.29550  0.16930  1.0000 -0.5460802866
O   O54       1.0  0.12620  0.99590  0.83070  1.0000 -0.5460802866
O   O55       1.0  0.24590  0.91520  0.36970  1.0000 -0.5460802866
O   O56       1.0  0.54550  0.87620  0.63030  1.0000 -0.5460802866
