# DDEC6 charges by PACMAN v1.1 (https://github.com/mtap-research/PACMAN-charge/)
data_2013[Er][pcu]3[ASR]1
_chemical_formula_sum              "Er2 H12 C24 O12"
_cell_length_a       8.5139
_cell_length_b       10.2165
_cell_length_c       11.0721
_cell_angle_alpha    64.208
_cell_angle_beta     71.563
_cell_angle_gamma    80.752

_symmetry_space_group_name_H-M    "P 1"
_symmetry_Int_Tables_number       1

loop_
  _symmetry_equiv_pos_as_xyz
  'x, y, z'

loop_
  _atom_site_type_symbol
  _atom_site_label
  _atom_site_symmetry_multiplicity
  _atom_site_fract_x
  _atom_site_fract_y
  _atom_site_fract_z
  _atom_site_occupancy
  _atom_site_charge
Er  Er1       1.0  0.13348  0.93623  0.16231  1.0000 2.0070693136
Er  Er2       1.0  0.86652  0.06377  0.83769  1.0000 2.0070693136
H   H1        1.0  0.00580  0.52640  0.78040  1.0000 0.1268966958
H   H2        1.0  0.99420  0.47360  0.21960  1.0000 0.1268966958
H   H3        1.0  0.94740  0.27590  0.18790  1.0000 0.1268966958
H   H4        1.0  0.05260  0.72410  0.81210  1.0000 0.1268966958
H   H5        1.0  0.53720  0.85160  0.38400  1.0000 0.11338588
H   H6        1.0  0.46280  0.14840  0.61600  1.0000 0.11338588
H   H7        1.0  0.72320  0.11500  0.48540  1.0000 0.1268966958
H   H8        1.0  0.27680  0.88500  0.51460  1.0000 0.1268966958
H   H9        1.0  0.22330  0.54700  0.58400  1.0000 0.1196660638
H   H10       1.0  0.77670  0.45300  0.41600  1.0000 0.1196660638
H   H11       1.0  0.63860  0.63240  0.26880  1.0000 0.1268966958
H   H12       1.0  0.36140  0.36760  0.73120  1.0000 0.1268966958
C   C1        1.0  0.94400  0.25360  0.95730  1.0000 0.6373004556
C   C2        1.0  0.05600  0.74640  0.04270  1.0000 0.6373004556
C   C3        1.0  0.97230  0.38080  0.98060  1.0000 -0.0234736645
C   C4        1.0  0.02770  0.61920  0.01940  1.0000 -0.0234736645
C   C5        1.0  0.00360  0.51570  0.86880  1.0000 -0.1018584738
C   C6        1.0  0.99640  0.48430  0.13120  1.0000 -0.1018584738
C   C7        1.0  0.96860  0.36580  0.11240  1.0000 -0.1062167599
C   C8        1.0  0.03140  0.63420  0.88760  1.0000 -0.1062167599
C   C9        1.0  0.82630  0.95340  0.33870  1.0000 0.5699884833
C   C10       1.0  0.17370  0.04660  0.66130  1.0000 0.5699884833
C   C11       1.0  0.65730  0.97880  0.42220  1.0000 -0.004898928
C   C12       1.0  0.34270  0.02120  0.57780  1.0000 -0.004898928
C   C13       1.0  0.52190  0.91110  0.43100  1.0000 -0.1018584738
C   C14       1.0  0.47810  0.08890  0.56900  1.0000 -0.1018584738
C   C15       1.0  0.63370  0.06870  0.49150  1.0000 -0.1062167599
C   C16       1.0  0.36630  0.93130  0.50850  1.0000 -0.1062167599
C   C17       1.0  0.32270  0.72760  0.32130  1.0000 0.5699884833
C   C18       1.0  0.67730  0.27240  0.67870  1.0000 0.5699884833
C   C19       1.0  0.41520  0.60820  0.41270  1.0000 -0.0147890349
C   C20       1.0  0.58480  0.39180  0.58730  1.0000 -0.0147890349
C   C21       1.0  0.33530  0.52820  0.54990  1.0000 -0.1062167599
C   C22       1.0  0.66470  0.47180  0.45010  1.0000 -0.1018584738
C   C23       1.0  0.58260  0.57960  0.36160  1.0000 -0.1018584738
C   C24       1.0  0.41740  0.42040  0.63840  1.0000 -0.1018584738
O   O1        1.0  0.98420  0.12730  0.03300  1.0000 -0.7253418027
O   O2        1.0  0.01580  0.87270  0.96700  1.0000 -0.7253418027
O   O3        1.0  0.87840  0.27660  0.86350  1.0000 -0.6035052895
O   O4        1.0  0.12160  0.72340  0.13650  1.0000 -0.6035052895
O   O5        1.0  0.94860  0.01070  0.33650  1.0000 -0.6286131798
O   O6        1.0  0.05140  0.98930  0.66350  1.0000 -0.6286131798
O   O7        1.0  0.84510  0.87740  0.26990  1.0000 -0.6205696225
O   O8        1.0  0.15490  0.12260  0.73010  1.0000 -0.6205696225
O   O9        1.0  0.17340  0.75390  0.37300  1.0000 -0.6286131798
O   O10       1.0  0.82660  0.24610  0.62700  1.0000 -0.6286131798
O   O11       1.0  0.39500  0.80350  0.19400  1.0000 -0.6531342029
O   O12       1.0  0.60500  0.19650  0.80600  1.0000 -0.6531342029
