# DDEC6 charges by PACMAN v1.1 (https://github.com/mtap-research/PACMAN-charge/)
data_2013[ZnCo][dia]3[ASR]1
_chemical_formula_sum              "Zn2 Co2 H32 C44 N4 O8"
_cell_length_a       6.8096
_cell_length_b       12.27
_cell_length_c       14.134
_cell_angle_alpha    84.323
_cell_angle_beta     78.295
_cell_angle_gamma    79.696

_symmetry_space_group_name_H-M    "P 1"
_symmetry_Int_Tables_number       1

loop_
  _symmetry_equiv_pos_as_xyz
  'x, y, z'

loop_
  _atom_site_type_symbol
  _atom_site_label
  _atom_site_symmetry_multiplicity
  _atom_site_fract_x
  _atom_site_fract_y
  _atom_site_fract_z
  _atom_site_occupancy
  _atom_site_charge
Zn  Zn1       1.0  0.37077  0.26716  0.68898  1.0000 0.7403824581
Zn  Zn2       1.0  0.62923  0.73284  0.31102  1.0000 0.7403824581
Co  Co1       1.0  0.50000  0.00000  0.00000  1.0000 0.3109879298
Co  Co2       1.0  0.00000  0.50000  0.00000  1.0000 0.3109879298
H   H1        1.0  0.71778  0.93810  0.81644  1.0000 0.1395014552
H   H2        1.0  0.28222  0.06190  0.18356  1.0000 0.1395014552
H   H3        1.0  0.84235  0.82965  0.97887  1.0000 0.1395014552
H   H4        1.0  0.15765  0.17035  0.02113  1.0000 0.1395014552
H   H5        1.0  0.81089  0.97964  0.10899  1.0000 0.1471379502
H   H6        1.0  0.18911  0.02036  0.89101  1.0000 0.1471379502
H   H7        1.0  0.67019  0.18321  0.02951  1.0000 0.1345044179
H   H8        1.0  0.32981  0.81679  0.97049  1.0000 0.1345044179
H   H9        1.0  0.80161  0.31395  0.02271  1.0000 0.1395014552
H   H10       1.0  0.19839  0.68605  0.97729  1.0000 0.1395014552
H   H11       1.0  0.59918  0.50675  0.10198  1.0000 0.1395014552
H   H12       1.0  0.40082  0.49325  0.89802  1.0000 0.1395014552
H   H13       1.0  0.68290  0.67577  0.97385  1.0000 0.1395014552
H   H14       1.0  0.31710  0.32423  0.02615  1.0000 0.1395014552
H   H15       1.0  0.94488  0.59080  0.81389  1.0000 0.1345044179
H   H16       1.0  0.05512  0.40920  0.18611  1.0000 0.1345044179
H   H17       1.0  0.48693  0.14711  0.49606  1.0000 0.0699234987
H   H18       1.0  0.51307  0.85289  0.50394  1.0000 0.0699234987
H   H19       1.0  0.33127  0.02955  0.41231  1.0000 0.1116651945
H   H20       1.0  0.66873  0.97045  0.58769  1.0000 0.1116651945
H   H21       1.0  0.80790  0.06482  0.65053  1.0000 0.115851271
H   H22       1.0  0.19210  0.93518  0.34947  1.0000 0.115851271
H   H23       1.0  0.97985  0.18458  0.72327  1.0000 0.0992444024
H   H24       1.0  0.02015  0.81542  0.27673  1.0000 0.0992444024
H   H25       1.0  0.69309  0.24642  0.49991  1.0000 0.0699234987
H   H26       1.0  0.30691  0.75358  0.50009  1.0000 0.0699234987
H   H27       1.0  0.97821  0.33893  0.41940  1.0000 0.1116651945
H   H28       1.0  0.02179  0.66107  0.58060  1.0000 0.1116651945
H   H29       1.0  0.80999  0.56809  0.65036  1.0000 0.1116651945
H   H30       1.0  0.19001  0.43191  0.34964  1.0000 0.1116651945
H   H31       1.0  0.52468  0.46820  0.71996  1.0000 0.0929872794
H   H32       1.0  0.47532  0.53180  0.28004  1.0000 0.0929872794
C   C1        1.0  0.57942  0.18313  0.83544  1.0000 0.5703014983
C   C2        1.0  0.42058  0.81687  0.16456  1.0000 0.5703014983
C   C3        1.0  0.67676  0.09239  0.89799  1.0000 -0.0516662523
C   C4        1.0  0.32324  0.90761  0.10201  1.0000 -0.0516662523
C   C5        1.0  0.72985  0.97624  0.88163  1.0000 -0.1492611813
C   C6        1.0  0.27015  0.02376  0.11837  1.0000 -0.1492611813
C   C7        1.0  0.79355  0.91852  0.96706  1.0000 -0.1137609454
C   C8        1.0  0.20645  0.08148  0.03294  1.0000 -0.1137609454
C   C9        1.0  0.77621  0.99802  0.03685  1.0000 -0.0943284528
C   C10       1.0  0.22379  0.00198  0.96315  1.0000 -0.0943284528
C   C11       1.0  0.70301  0.10457  0.99509  1.0000 -0.1492611813
C   C12       1.0  0.29699  0.89543  0.00491  1.0000 -0.1492611813
C   C13       1.0  0.05718  0.34235  0.83143  1.0000 0.5703014983
C   C14       1.0  0.94282  0.65765  0.16857  1.0000 0.5703014983
C   C15       1.0  0.91178  0.42469  0.89361  1.0000 -0.0516662523
C   C16       1.0  0.08822  0.57531  0.10639  1.0000 -0.0516662523
C   C17       1.0  0.80176  0.39801  0.98947  1.0000 -0.1492611813
C   C18       1.0  0.19824  0.60199  0.01053  1.0000 -0.1492611813
C   C19       1.0  0.69474  0.49843  0.03077  1.0000 -0.1027371483
C   C20       1.0  0.30526  0.50157  0.96923  1.0000 -0.1027371483
C   C21       1.0  0.73963  0.58849  0.96220  1.0000 -0.1169581534
C   C22       1.0  0.26037  0.41151  0.03780  1.0000 -0.1169581534
C   C23       1.0  0.87565  0.54322  0.87792  1.0000 -0.1607746305
C   C24       1.0  0.12435  0.45678  0.12208  1.0000 -0.1607746305
C   C25       1.0  0.33282  0.12997  0.52712  1.0000 0.0699234987
C   C26       1.0  0.66718  0.87003  0.47288  1.0000 0.0699234987
C   C27       1.0  0.24537  0.06223  0.48060  1.0000 -0.1879936503
C   C28       1.0  0.75463  0.93777  0.51940  1.0000 -0.1879936503
C   C29       1.0  0.95755  0.08043  0.61228  1.0000 -0.1733032586
C   C30       1.0  0.04245  0.91957  0.38772  1.0000 -0.1733032586
C   C31       1.0  0.05280  0.14909  0.65386  1.0000 0.0992444024
C   C32       1.0  0.94720  0.85091  0.34614  1.0000 0.0992444024
C   C33       1.0  0.05004  0.03465  0.52275  1.0000 0.0699234987
C   C34       1.0  0.94996  0.96535  0.47725  1.0000 0.0699234987
C   C35       1.0  0.71799  0.32189  0.52872  1.0000 0.0808338923
C   C36       1.0  0.28201  0.67811  0.47128  1.0000 0.0808338923
C   C37       1.0  0.87982  0.37482  0.48381  1.0000 -0.1733032586
C   C38       1.0  0.12018  0.62518  0.51619  1.0000 -0.1733032586
C   C39       1.0  0.78567  0.50101  0.61082  1.0000 -0.1607746305
C   C40       1.0  0.21433  0.49899  0.38918  1.0000 -0.1607746305
C   C41       1.0  0.62485  0.44526  0.65106  1.0000 0.0992444024
C   C42       1.0  0.37515  0.55474  0.34894  1.0000 0.0992444024
C   C43       1.0  0.91757  0.46964  0.52288  1.0000 0.0929872794
C   C44       1.0  0.08243  0.53036  0.47712  1.0000 0.0929872794
N   N1        1.0  0.24123  0.17536  0.61337  1.0000 -0.2684820788
N   N2        1.0  0.75877  0.82464  0.38663  1.0000 -0.2684820788
N   N3        1.0  0.58469  0.35653  0.61057  1.0000 -0.2684820788
N   N4        1.0  0.41531  0.64347  0.38943  1.0000 -0.2684820788
O   O1        1.0  0.53968  0.14972  0.75704  1.0000 -0.5777211832
O   O2        1.0  0.46032  0.85028  0.24296  1.0000 -0.5777211832
O   O3        1.0  0.53988  0.28054  0.86079  1.0000 -0.5366266267
O   O4        1.0  0.46012  0.71946  0.13921  1.0000 -0.5366266267
O   O5        1.0  0.16146  0.38403  0.75226  1.0000 -0.5777211832
O   O6        1.0  0.83854  0.61597  0.24774  1.0000 -0.5777211832
O   O7        1.0  0.07284  0.24109  0.85759  1.0000 -0.5366266267
O   O8        1.0  0.92716  0.75891  0.14241  1.0000 -0.5366266267
