# DDEC6 charges by PACMAN v1.1 (https://github.com/mtap-research/PACMAN-charge/)
data_2013[Zn][uni]3[ASR]2
_chemical_formula_sum              "Zn6 H66 C54 N12 O12"
_cell_length_a       17.5911
_cell_length_b       17.5911
_cell_length_c       10.1716
_cell_angle_alpha    90
_cell_angle_beta     90
_cell_angle_gamma    120

_symmetry_space_group_name_H-M    "P 1"
_symmetry_Int_Tables_number       1

loop_
  _symmetry_equiv_pos_as_xyz
  'x, y, z'

loop_
  _atom_site_type_symbol
  _atom_site_label
  _atom_site_symmetry_multiplicity
  _atom_site_fract_x
  _atom_site_fract_y
  _atom_site_fract_z
  _atom_site_occupancy
  _atom_site_charge
Zn  Zn1       1.0  0.45667  0.92464  0.13091  1.0000 0.6721547454
Zn  Zn2       1.0  0.53203  0.45667  0.29758  1.0000 0.6721547454
Zn  Zn3       1.0  0.07536  0.53203  0.46424  1.0000 0.6721547454
Zn  Zn4       1.0  0.54333  0.07536  0.63091  1.0000 0.6721547454
Zn  Zn5       1.0  0.46797  0.54333  0.79758  1.0000 0.6791853755
Zn  Zn6       1.0  0.92464  0.46797  0.96424  1.0000 0.6721547454
H   H1        1.0  0.52280  0.30170  0.41480  1.0000 0.0995536198
H   H2        1.0  0.22110  0.52280  0.58147  1.0000 0.0995536198
H   H3        1.0  0.69830  0.22110  0.74813  1.0000 0.0995536198
H   H4        1.0  0.47720  0.69830  0.91480  1.0000 0.0995536198
H   H5        1.0  0.77890  0.47720  0.08147  1.0000 0.0995536198
H   H6        1.0  0.30170  0.77890  0.24813  1.0000 0.0995536198
H   H7        1.0  0.47710  0.15530  0.36830  1.0000 0.1301485896
H   H8        1.0  0.32180  0.47710  0.53497  1.0000 0.1301485896
H   H9        1.0  0.84470  0.32180  0.70163  1.0000 0.1301485896
H   H10       1.0  0.52290  0.84470  0.86830  1.0000 0.1301485896
H   H11       1.0  0.67820  0.52290  0.03497  1.0000 0.1301485896
H   H12       1.0  0.15530  0.67820  0.20163  1.0000 0.1301485896
H   H13       1.0  0.38990  0.18470  0.02010  1.0000 0.1301485896
H   H14       1.0  0.20520  0.38990  0.18677  1.0000 0.1301485896
H   H15       1.0  0.81530  0.20520  0.35343  1.0000 0.1301485896
H   H16       1.0  0.61010  0.81530  0.52010  1.0000 0.1301485896
H   H17       1.0  0.79480  0.61010  0.68677  1.0000 0.1301485896
H   H18       1.0  0.18470  0.79480  0.85343  1.0000 0.1301485896
H   H19       1.0  0.43750  0.32760  0.07230  1.0000 0.0995536198
H   H20       1.0  0.10990  0.43750  0.23897  1.0000 0.0995536198
H   H21       1.0  0.67240  0.10990  0.40563  1.0000 0.0995536198
H   H22       1.0  0.56250  0.67240  0.57230  1.0000 0.0995536198
H   H23       1.0  0.89010  0.56250  0.73897  1.0000 0.0995536198
H   H24       1.0  0.32760  0.89010  0.90563  1.0000 0.0995536198
H   H25       1.0  0.36620  0.01920  0.20860  1.0000 0.1301485896
H   H26       1.0  0.34700  0.36620  0.37527  1.0000 0.1301485896
H   H27       1.0  0.98080  0.34700  0.54193  1.0000 0.1301485896
H   H28       1.0  0.63380  0.98080  0.70860  1.0000 0.1301485896
H   H29       1.0  0.65300  0.63380  0.87527  1.0000 0.1301485896
H   H30       1.0  0.01920  0.65300  0.04193  1.0000 0.1301485896
H   H31       1.0  0.38520  0.04810  0.06050  1.0000 0.1090455427
H   H32       1.0  0.33710  0.38520  0.22717  1.0000 0.1090455427
H   H33       1.0  0.95190  0.33710  0.39383  1.0000 0.1090455427
H   H34       1.0  0.61480  0.95190  0.56050  1.0000 0.1090455427
H   H35       1.0  0.66290  0.61480  0.72717  1.0000 0.1090455427
H   H36       1.0  0.04810  0.66290  0.89383  1.0000 0.1090455427
H   H37       1.0  0.54810  0.16150  0.03460  1.0000 0.0995536198
H   H38       1.0  0.38660  0.54810  0.20127  1.0000 0.0995536198
H   H39       1.0  0.83850  0.38660  0.36793  1.0000 0.0995536198
H   H40       1.0  0.45190  0.83850  0.53460  1.0000 0.0995536198
H   H41       1.0  0.61340  0.45190  0.70127  1.0000 0.0995536198
H   H42       1.0  0.16150  0.61340  0.86793  1.0000 0.0995536198
H   H43       1.0  0.65080  0.15880  0.19720  1.0000 0.115579168
H   H44       1.0  0.49200  0.65080  0.36387  1.0000 0.115579168
H   H45       1.0  0.84120  0.49200  0.53053  1.0000 0.115579168
H   H46       1.0  0.34920  0.84120  0.69720  1.0000 0.115579168
H   H47       1.0  0.50800  0.34920  0.86387  1.0000 0.115579168
H   H48       1.0  0.15880  0.50800  0.03053  1.0000 0.115579168
H   H49       1.0  0.68820  0.19750  0.05790  1.0000 0.1301485896
H   H50       1.0  0.49070  0.68820  0.22457  1.0000 0.1301485896
H   H51       1.0  0.80250  0.49070  0.39123  1.0000 0.1301485896
H   H52       1.0  0.31180  0.80250  0.55790  1.0000 0.1301485896
H   H53       1.0  0.50930  0.31180  0.72457  1.0000 0.1301485896
H   H54       1.0  0.19750  0.50930  0.89123  1.0000 0.1301485896
H   H55       1.0  0.66470  0.10140  0.09270  1.0000 0.1301485896
H   H56       1.0  0.56330  0.66470  0.25937  1.0000 0.1301485896
H   H57       1.0  0.89860  0.56330  0.42603  1.0000 0.1301485896
H   H58       1.0  0.33530  0.89860  0.59270  1.0000 0.1301485896
H   H59       1.0  0.43670  0.33530  0.75937  1.0000 0.1301485896
H   H60       1.0  0.10140  0.43670  0.92603  1.0000 0.1301485896
H   H61       1.0  0.51450  0.07290  0.23450  1.0000 0.244474098
H   H62       1.0  0.44160  0.51450  0.40117  1.0000 0.244474098
H   H63       1.0  0.92710  0.44160  0.56783  1.0000 0.244474098
H   H64       1.0  0.48550  0.92710  0.73450  1.0000 0.244474098
H   H65       1.0  0.55840  0.48550  0.90117  1.0000 0.244474098
H   H66       1.0  0.07290  0.55840  0.06783  1.0000 0.244474098
C   C1        1.0  0.49630  0.27810  0.33440  1.0000 0.0753898695
C   C2        1.0  0.21820  0.49630  0.50107  1.0000 0.0753898695
C   C3        1.0  0.72190  0.21820  0.66773  1.0000 0.0753898695
C   C4        1.0  0.50370  0.72190  0.83440  1.0000 0.0753898695
C   C5        1.0  0.78180  0.50370  0.00107  1.0000 0.0753898695
C   C6        1.0  0.27810  0.78180  0.16773  1.0000 0.0753898695
C   C7        1.0  0.46910  0.18940  0.30610  1.0000 -0.2258589218
C   C8        1.0  0.27970  0.46910  0.47277  1.0000 -0.2258589218
C   C9        1.0  0.81060  0.27970  0.63943  1.0000 -0.2258589218
C   C10       1.0  0.53090  0.81060  0.80610  1.0000 -0.2258589218
C   C11       1.0  0.72030  0.53090  0.97277  1.0000 -0.2258589218
C   C12       1.0  0.18940  0.72030  0.13943  1.0000 -0.2258589218
C   C13       1.0  0.43040  0.15290  0.18620  1.0000 0.1301485896
C   C14       1.0  0.27750  0.43040  0.35287  1.0000 0.1301485896
C   C15       1.0  0.84710  0.27750  0.51953  1.0000 0.1301485896
C   C16       1.0  0.56960  0.84710  0.68620  1.0000 0.1301485896
C   C17       1.0  0.72250  0.56960  0.85287  1.0000 0.1301485896
C   C18       1.0  0.15290  0.72250  0.01953  1.0000 0.1301485896
C   C19       1.0  0.41770  0.20690  0.10020  1.0000 -0.2172322274
C   C20       1.0  0.21080  0.41770  0.26687  1.0000 -0.2172322274
C   C21       1.0  0.79310  0.21080  0.43353  1.0000 -0.2172322274
C   C22       1.0  0.58230  0.79310  0.60020  1.0000 -0.2172322274
C   C23       1.0  0.78920  0.58230  0.76687  1.0000 -0.2172322274
C   C24       1.0  0.20690  0.78920  0.93353  1.0000 -0.2172322274
C   C25       1.0  0.44570  0.29260  0.13270  1.0000 0.0129159204
C   C26       1.0  0.15310  0.44570  0.29937  1.0000 0.0129159204
C   C27       1.0  0.70740  0.15310  0.46603  1.0000 0.0129159204
C   C28       1.0  0.55430  0.70740  0.63270  1.0000 0.0129159204
C   C29       1.0  0.84690  0.55430  0.79937  1.0000 0.0129159204
C   C30       1.0  0.29260  0.84690  0.96603  1.0000 0.0129159204
C   C31       1.0  0.40960  0.06150  0.14850  1.0000 -0.1800620184
C   C32       1.0  0.34810  0.40960  0.31517  1.0000 -0.1800620184
C   C33       1.0  0.93850  0.34810  0.48183  1.0000 -0.1800620184
C   C34       1.0  0.59040  0.93850  0.64850  1.0000 -0.1800620184
C   C35       1.0  0.65190  0.59040  0.81517  1.0000 -0.1800620184
C   C36       1.0  0.06150  0.65190  0.98183  1.0000 -0.1800620184
C   C37       1.0  0.55630  0.11170  0.05520  1.0000 -0.01096382
C   C38       1.0  0.44460  0.55630  0.22187  1.0000 -0.01096382
C   C39       1.0  0.88830  0.44460  0.38853  1.0000 -0.01096382
C   C40       1.0  0.44370  0.88830  0.55520  1.0000 -0.01096382
C   C41       1.0  0.55540  0.44370  0.72187  1.0000 -0.01096382
C   C42       1.0  0.11170  0.55540  0.88853  1.0000 -0.01096382
C   C43       1.0  0.54000  0.05590  0.93060  1.0000 0.544548576
C   C44       1.0  0.48410  0.54000  0.09727  1.0000 0.544548576
C   C45       1.0  0.94410  0.48410  0.26393  1.0000 0.544548576
C   C46       1.0  0.46000  0.94410  0.43060  1.0000 0.544548576
C   C47       1.0  0.51590  0.46000  0.59727  1.0000 0.544548576
C   C48       1.0  0.05590  0.51590  0.76393  1.0000 0.544548576
C   C49       1.0  0.64830  0.14540  0.10530  1.0000 -0.4506156941
C   C50       1.0  0.50290  0.64830  0.27197  1.0000 -0.4506156941
C   C51       1.0  0.85460  0.50290  0.43863  1.0000 -0.4506156941
C   C52       1.0  0.35170  0.85460  0.60530  1.0000 -0.4506156941
C   C53       1.0  0.49710  0.35170  0.77197  1.0000 -0.4506156941
C   C54       1.0  0.14540  0.49710  0.93863  1.0000 -0.4506156941
N   N1        1.0  0.49020  0.05500  0.15330  1.0000 -0.3582847665
N   N2        1.0  0.43520  0.49020  0.31997  1.0000 -0.3582847665
N   N3        1.0  0.94500  0.43520  0.48663  1.0000 -0.3582847665
N   N4        1.0  0.50980  0.94500  0.65330  1.0000 -0.3582847665
N   N5        1.0  0.56480  0.50980  0.81997  1.0000 -0.3582847665
N   N6        1.0  0.05500  0.56480  0.98663  1.0000 -0.3582847665
N   N7        1.0  0.48480  0.32850  0.24830  1.0000 -0.2523795962
N   N8        1.0  0.15630  0.48480  0.41497  1.0000 -0.2523795962
N   N9        1.0  0.67150  0.15630  0.58163  1.0000 -0.2523795962
N   N10       1.0  0.51520  0.67150  0.74830  1.0000 -0.2523795962
N   N11       1.0  0.84370  0.51520  0.91497  1.0000 -0.2523795962
N   N12       1.0  0.32850  0.84370  0.08163  1.0000 -0.2523795962
O   O1        1.0  0.57660  0.10200  0.82730  1.0000 -0.5865987391
O   O2        1.0  0.47460  0.57660  0.99397  1.0000 -0.5865987391
O   O3        1.0  0.89800  0.47460  0.16063  1.0000 -0.5865987391
O   O4        1.0  0.42340  0.89800  0.32730  1.0000 -0.5865987391
O   O5        1.0  0.52540  0.42340  0.49397  1.0000 -0.5865987391
O   O6        1.0  0.10200  0.52540  0.66063  1.0000 -0.5865987391
O   O7        1.0  0.49680  0.97460  0.93670  1.0000 -0.5728363047
O   O8        1.0  0.52220  0.49680  0.10337  1.0000 -0.5728363047
O   O9        1.0  0.02540  0.52220  0.27003  1.0000 -0.5728363047
O   O10       1.0  0.50320  0.02540  0.43670  1.0000 -0.5728363047
O   O11       1.0  0.47780  0.50320  0.60337  1.0000 -0.5728363047
O   O12       1.0  0.97460  0.47780  0.77003  1.0000 -0.5728363047
