# DDEC6 charges by PACMAN v1.1 (https://github.com/mtap-research/PACMAN-charge/)
data_2013[Cu][pts]3[ASR]2
_chemical_formula_sum              "Cu2 C24 N8 F8"
_cell_length_a       7.3888
_cell_length_b       7.3888
_cell_length_c       22.1438
_cell_angle_alpha    90
_cell_angle_beta     90
_cell_angle_gamma    90

_symmetry_space_group_name_H-M    "P 1"
_symmetry_Int_Tables_number       1

loop_
  _symmetry_equiv_pos_as_xyz
  'x, y, z'

loop_
  _atom_site_type_symbol
  _atom_site_label
  _atom_site_symmetry_multiplicity
  _atom_site_fract_x
  _atom_site_fract_y
  _atom_site_fract_z
  _atom_site_occupancy
  _atom_site_charge
Cu  Cu1       1.0  0.00000  0.00000  0.75000  1.0000 0.6602390997
Cu  Cu2       1.0  0.00000  0.00000  0.25000  1.0000 0.6650494926
C   C1        1.0  0.65976  0.00000  0.83364  1.0000 0.329569015
C   C2        1.0  0.34024  0.00000  0.16636  1.0000 0.329569015
C   C3        1.0  0.34024  0.00000  0.83364  1.0000 0.329569015
C   C4        1.0  0.65976  0.00000  0.16636  1.0000 0.329569015
C   C5        1.0  0.00000  0.65976  0.33364  1.0000 0.329569015
C   C6        1.0  0.00000  0.34024  0.66636  1.0000 0.329569015
C   C7        1.0  0.00000  0.34024  0.33364  1.0000 0.329569015
C   C8        1.0  0.00000  0.65976  0.66636  1.0000 0.329569015
C   C9        1.0  0.50000  0.00000  0.86812  1.0000 -0.1260075725
C   C10       1.0  0.50000  0.00000  0.13188  1.0000 -0.1244102947
C   C11       1.0  0.00000  0.50000  0.36812  1.0000 -0.1244102947
C   C12       1.0  0.00000  0.50000  0.63188  1.0000 -0.1260075725
C   C13       1.0  0.50000  0.00000  0.93383  1.0000 -0.0833496217
C   C14       1.0  0.50000  0.00000  0.06617  1.0000 -0.0833496217
C   C15       1.0  0.00000  0.50000  0.43383  1.0000 -0.0833496217
C   C16       1.0  0.00000  0.50000  0.56617  1.0000 -0.0833496217
C   C17       1.0  0.66130  0.00000  0.96894  1.0000 0.1210266605
C   C18       1.0  0.33870  0.00000  0.03106  1.0000 0.1210266605
C   C19       1.0  0.33870  0.00000  0.96894  1.0000 0.1210266605
C   C20       1.0  0.66130  0.00000  0.03106  1.0000 0.1210266605
C   C21       1.0  0.00000  0.66130  0.46894  1.0000 0.1210266605
C   C22       1.0  0.00000  0.33870  0.53106  1.0000 0.1210266605
C   C23       1.0  0.00000  0.33870  0.46894  1.0000 0.1210266605
C   C24       1.0  0.00000  0.66130  0.53106  1.0000 0.1210266605
N   N1        1.0  0.78859  0.00000  0.80177  1.0000 -0.4236849591
N   N2        1.0  0.21141  0.00000  0.19823  1.0000 -0.4236849591
N   N3        1.0  0.21141  0.00000  0.80177  1.0000 -0.4236849591
N   N4        1.0  0.78859  0.00000  0.19823  1.0000 -0.4236849591
N   N5        1.0  0.00000  0.78859  0.30177  1.0000 -0.4236849591
N   N6        1.0  0.00000  0.21141  0.69823  1.0000 -0.4236849591
N   N7        1.0  0.00000  0.21141  0.30177  1.0000 -0.4236849591
N   N8        1.0  0.00000  0.78859  0.69823  1.0000 -0.4236849591
F   F1        1.0  0.82437  0.00000  0.94008  1.0000 -0.0882925128
F   F2        1.0  0.17563  0.00000  0.05992  1.0000 -0.0882925128
F   F3        1.0  0.17563  0.00000  0.94008  1.0000 -0.0882925128
F   F4        1.0  0.82437  0.00000  0.05992  1.0000 -0.0882925128
F   F5        1.0  0.00000  0.82437  0.44008  1.0000 -0.0882925128
F   F6        1.0  0.00000  0.17563  0.55992  1.0000 -0.0882925128
F   F7        1.0  0.00000  0.17563  0.44008  1.0000 -0.0882925128
F   F8        1.0  0.00000  0.82437  0.55992  1.0000 -0.0882925128
