# DDEC6 charges by PACMAN v1.1 (https://github.com/mtap-research/PACMAN-charge/)
data_2013[Ni][hms]3[ASR]2
_chemical_formula_sum              "Ni6 H78 C102 N12 O36"
_cell_length_a       16.586
_cell_length_b       16.586
_cell_length_c       18.124
_cell_angle_alpha    90
_cell_angle_beta     90
_cell_angle_gamma    120

_symmetry_space_group_name_H-M    "P 1"
_symmetry_Int_Tables_number       1

loop_
  _symmetry_equiv_pos_as_xyz
  'x, y, z'

loop_
  _atom_site_type_symbol
  _atom_site_label
  _atom_site_symmetry_multiplicity
  _atom_site_fract_x
  _atom_site_fract_y
  _atom_site_fract_z
  _atom_site_occupancy
  _atom_site_charge
Ni  Ni1       1.0  0.01081  0.66739  0.69762  1.0000 0.842735802
Ni  Ni2       1.0  0.33261  0.34342  0.69762  1.0000 0.842735802
Ni  Ni3       1.0  0.65658  0.98919  0.69762  1.0000 0.842735802
Ni  Ni4       1.0  0.01046  0.66654  0.31414  1.0000 0.842735802
Ni  Ni5       1.0  0.33346  0.34392  0.31414  1.0000 0.842735802
Ni  Ni6       1.0  0.65608  0.98954  0.31414  1.0000 0.842735802
H   H1        1.0  0.83510  0.38064  0.70616  1.0000 0.128930516
H   H2        1.0  0.61936  0.45446  0.70616  1.0000 0.128930516
H   H3        1.0  0.54554  0.16490  0.70616  1.0000 0.128930516
H   H4        1.0  0.83155  0.87885  0.70190  1.0000 0.128930516
H   H5        1.0  0.12115  0.95270  0.70190  1.0000 0.128930516
H   H6        1.0  0.04730  0.16845  0.70190  1.0000 0.128930516
H   H7        1.0  0.33277  0.81726  0.70443  1.0000 0.128930516
H   H8        1.0  0.18274  0.51551  0.70443  1.0000 0.128930516
H   H9        1.0  0.48449  0.66723  0.70443  1.0000 0.128930516
H   H10       1.0  0.61925  0.45445  0.31068  1.0000 0.128930516
H   H11       1.0  0.54555  0.16481  0.31068  1.0000 0.128930516
H   H12       1.0  0.83519  0.38075  0.31068  1.0000 0.128930516
H   H13       1.0  0.12051  0.95188  0.31377  1.0000 0.128930516
H   H14       1.0  0.04812  0.16864  0.31377  1.0000 0.128930516
H   H15       1.0  0.83136  0.87949  0.31377  1.0000 0.128930516
H   H16       1.0  0.18235  0.51588  0.30641  1.0000 0.128930516
H   H17       1.0  0.48412  0.66647  0.30641  1.0000 0.128930516
H   H18       1.0  0.33353  0.81765  0.30641  1.0000 0.128930516
H   H19       1.0  0.93210  0.73134  0.56973  1.0000 0.1109475213
H   H20       1.0  0.26866  0.20076  0.56973  1.0000 0.1109475213
H   H21       1.0  0.79924  0.06790  0.56973  1.0000 0.1109475213
H   H22       1.0  0.86825  0.60814  0.57216  1.0000 0.1109475213
H   H23       1.0  0.39186  0.26011  0.57216  1.0000 0.1109475213
H   H24       1.0  0.73989  0.13175  0.57216  1.0000 0.1109475213
H   H25       1.0  0.86910  0.60018  0.44206  1.0000 0.1109475213
H   H26       1.0  0.39982  0.26892  0.44206  1.0000 0.1109475213
H   H27       1.0  0.73108  0.13090  0.44206  1.0000 0.1109475213
H   H28       1.0  0.92408  0.72297  0.43826  1.0000 0.1109475213
H   H29       1.0  0.27703  0.20111  0.43826  1.0000 0.1109475213
H   H30       1.0  0.79889  0.07592  0.43826  1.0000 0.1109475213
H   H31       1.0  0.94930  0.52041  0.57160  1.0000 0.1109475213
H   H32       1.0  0.47959  0.42889  0.57160  1.0000 0.1109475213
H   H33       1.0  0.57111  0.05070  0.57160  1.0000 0.1109475213
H   H34       1.0  0.07236  0.57911  0.57137  1.0000 0.1003988856
H   H35       1.0  0.42089  0.49325  0.57137  1.0000 0.1003988856
H   H36       1.0  0.50675  0.92764  0.57137  1.0000 0.1003988856
H   H37       1.0  0.07501  0.58144  0.44100  1.0000 0.1003988856
H   H38       1.0  0.41856  0.49356  0.44100  1.0000 0.1003988856
H   H39       1.0  0.50644  0.92499  0.44100  1.0000 0.1003988856
H   H40       1.0  0.95196  0.52125  0.43838  1.0000 0.1109475213
H   H41       1.0  0.47875  0.43070  0.43838  1.0000 0.1109475213
H   H42       1.0  0.56930  0.04804  0.43838  1.0000 0.1109475213
H   H43       1.0  0.16013  0.74731  0.57004  1.0000 0.1003988856
H   H44       1.0  0.25269  0.41282  0.57004  1.0000 0.1003988856
H   H45       1.0  0.58718  0.83987  0.57004  1.0000 0.1003988856
H   H46       1.0  0.10228  0.81262  0.57299  1.0000 0.1109475213
H   H47       1.0  0.18738  0.28966  0.57299  1.0000 0.1109475213
H   H48       1.0  0.71034  0.89772  0.57299  1.0000 0.1109475213
H   H49       1.0  0.15984  0.74910  0.44089  1.0000 0.1003988856
H   H50       1.0  0.25090  0.41074  0.44089  1.0000 0.1003988856
H   H51       1.0  0.58926  0.84016  0.44089  1.0000 0.1003988856
H   H52       1.0  0.10016  0.81282  0.43956  1.0000 0.1109475213
H   H53       1.0  0.18718  0.28733  0.43956  1.0000 0.1109475213
H   H54       1.0  0.71267  0.89984  0.43956  1.0000 0.1109475213
H   H55       1.0  0.91879  0.52561  0.81141  1.0000 0.1109475213
H   H56       1.0  0.47439  0.39317  0.81141  1.0000 0.1109475213
H   H57       1.0  0.60683  0.08121  0.81141  1.0000 0.1109475213
H   H58       1.0  0.91236  0.51573  0.94848  1.0000 0.1182603184
H   H59       1.0  0.48427  0.39663  0.94848  1.0000 0.1182603184
H   H60       1.0  0.60337  0.08764  0.94848  1.0000 0.1182603184
H   H61       1.0  0.09833  0.81628  0.95179  1.0000 0.1182603184
H   H62       1.0  0.18372  0.28204  0.95179  1.0000 0.1182603184
H   H63       1.0  0.71796  0.90167  0.95179  1.0000 0.1182603184
H   H64       1.0  0.09594  0.81171  0.81426  1.0000 0.1182603184
H   H65       1.0  0.18829  0.28422  0.81426  1.0000 0.1182603184
H   H66       1.0  0.71578  0.90406  0.81426  1.0000 0.1182603184
H   H67       1.0  0.10338  0.80703  0.19743  1.0000 0.1182603184
H   H68       1.0  0.19297  0.29635  0.19743  1.0000 0.1182603184
H   H69       1.0  0.70365  0.89662  0.19743  1.0000 0.1182603184
H   H70       1.0  0.10682  0.81437  0.06082  1.0000 0.1182603184
H   H71       1.0  0.18563  0.29244  0.06082  1.0000 0.1182603184
H   H72       1.0  0.70756  0.89318  0.06082  1.0000 0.1182603184
H   H73       1.0  0.89806  0.51961  0.06005  1.0000 0.1182603184
H   H74       1.0  0.48039  0.37844  0.06005  1.0000 0.1182603184
H   H75       1.0  0.62156  0.10194  0.06005  1.0000 0.1182603184
H   H76       1.0  0.90675  0.52529  0.19768  1.0000 0.1109475213
H   H77       1.0  0.47471  0.38146  0.19768  1.0000 0.1109475213
H   H78       1.0  0.61854  0.09325  0.19768  1.0000 0.1109475213
C   C1        1.0  0.80132  0.53132  0.70439  1.0000 0.5517929344
C   C2        1.0  0.46868  0.27000  0.70439  1.0000 0.5517929344
C   C3        1.0  0.73000  0.19868  0.70439  1.0000 0.5517929344
C   C4        1.0  0.73400  0.42766  0.70607  1.0000 -0.0331895966
C   C5        1.0  0.57234  0.30635  0.70607  1.0000 -0.0331895966
C   C6        1.0  0.69365  0.26600  0.70607  1.0000 -0.0331895966
C   C7        1.0  0.76151  0.36105  0.70624  1.0000 -0.0892853634
C   C8        1.0  0.63895  0.40046  0.70624  1.0000 -0.0892853634
C   C9        1.0  0.59954  0.23849  0.70624  1.0000 -0.0892853634
C   C10       1.0  0.93730  0.80209  0.70038  1.0000 0.5517929344
C   C11       1.0  0.19791  0.13521  0.70038  1.0000 0.5517929344
C   C12       1.0  0.86479  0.06270  0.70038  1.0000 0.5517929344
C   C13       1.0  0.97309  0.90570  0.70210  1.0000 -0.0331895966
C   C14       1.0  0.09430  0.06739  0.70210  1.0000 -0.0331895966
C   C15       1.0  0.93261  0.02691  0.70210  1.0000 -0.0331895966
C   C16       1.0  0.90518  0.93271  0.70216  1.0000 -0.0892853634
C   C17       1.0  0.06729  0.97247  0.70216  1.0000 -0.0892853634
C   C18       1.0  0.02753  0.09482  0.70216  1.0000 -0.0892853634
C   C19       1.0  0.15813  0.66657  0.70447  1.0000 0.5264833121
C   C20       1.0  0.33343  0.49156  0.70447  1.0000 0.5264833121
C   C21       1.0  0.50844  0.84187  0.70447  1.0000 0.5264833121
C   C22       1.0  0.24844  0.66639  0.70459  1.0000 -0.0331895966
C   C23       1.0  0.33361  0.58206  0.70459  1.0000 -0.0331895966
C   C24       1.0  0.41794  0.75156  0.70459  1.0000 -0.0331895966
C   C25       1.0  0.33309  0.75124  0.70442  1.0000 -0.0834402555
C   C26       1.0  0.24876  0.58185  0.70442  1.0000 -0.0834402555
C   C27       1.0  0.41815  0.66691  0.70442  1.0000 -0.0834402555
C   C28       1.0  0.80157  0.53131  0.31195  1.0000 0.5517929344
C   C29       1.0  0.46869  0.27026  0.31195  1.0000 0.5517929344
C   C30       1.0  0.72974  0.19843  0.31195  1.0000 0.5517929344
C   C31       1.0  0.73395  0.42760  0.31057  1.0000 -0.0331895966
C   C32       1.0  0.57240  0.30635  0.31057  1.0000 -0.0331895966
C   C33       1.0  0.69365  0.26605  0.31057  1.0000 -0.0331895966
C   C34       1.0  0.63904  0.40052  0.31035  1.0000 -0.0892853634
C   C35       1.0  0.59948  0.23852  0.31035  1.0000 -0.0892853634
C   C36       1.0  0.76148  0.36096  0.31035  1.0000 -0.0892853634
C   C37       1.0  0.93646  0.80183  0.31253  1.0000 0.5576026985
C   C38       1.0  0.19817  0.13463  0.31253  1.0000 0.5576026985
C   C39       1.0  0.86537  0.06354  0.31253  1.0000 0.5576026985
C   C40       1.0  0.97273  0.90565  0.31376  1.0000 -0.0331895966
C   C41       1.0  0.09435  0.06708  0.31376  1.0000 -0.0331895966
C   C42       1.0  0.93292  0.02727  0.31376  1.0000 -0.0331895966
C   C43       1.0  0.06699  0.97210  0.31385  1.0000 -0.0892853634
C   C44       1.0  0.02790  0.09489  0.31385  1.0000 -0.0892853634
C   C45       1.0  0.90511  0.93301  0.31385  1.0000 -0.0892853634
C   C46       1.0  0.15825  0.66681  0.30710  1.0000 0.5264833121
C   C47       1.0  0.33319  0.49144  0.30710  1.0000 0.5264833121
C   C48       1.0  0.50856  0.84175  0.30710  1.0000 0.5264833121
C   C49       1.0  0.24855  0.66678  0.30624  1.0000 -0.0331895966
C   C50       1.0  0.33322  0.58178  0.30624  1.0000 -0.0331895966
C   C51       1.0  0.41822  0.75145  0.30624  1.0000 -0.0331895966
C   C52       1.0  0.24859  0.58200  0.30635  1.0000 -0.0834402555
C   C53       1.0  0.41800  0.66659  0.30635  1.0000 -0.0834402555
C   C54       1.0  0.33341  0.75141  0.30635  1.0000 -0.0834402555
C   C55       1.0  0.93045  0.66831  0.54872  1.0000 -0.0892853634
C   C56       1.0  0.33169  0.26213  0.54872  1.0000 -0.0892853634
C   C57       1.0  0.73787  0.06955  0.54872  1.0000 -0.0892853634
C   C58       1.0  0.92889  0.66481  0.46267  1.0000 -0.0892853634
C   C59       1.0  0.33519  0.26408  0.46267  1.0000 -0.0892853634
C   C60       1.0  0.73592  0.07111  0.46267  1.0000 -0.0892853634
C   C61       1.0  0.01176  0.58131  0.54895  1.0000 -0.0892853634
C   C62       1.0  0.41869  0.43045  0.54895  1.0000 -0.0892853634
C   C63       1.0  0.56955  0.98824  0.54895  1.0000 -0.0892853634
C   C64       1.0  0.01322  0.58200  0.46248  1.0000 -0.0892853634
C   C65       1.0  0.41800  0.43122  0.46248  1.0000 -0.0892853634
C   C66       1.0  0.56878  0.98678  0.46248  1.0000 -0.0892853634
C   C67       1.0  0.09914  0.74995  0.54910  1.0000 -0.0834402555
C   C68       1.0  0.25005  0.34919  0.54910  1.0000 -0.0834402555
C   C69       1.0  0.65081  0.90086  0.54910  1.0000 -0.0834402555
C   C70       1.0  0.09857  0.75055  0.46275  1.0000 -0.0834402555
C   C71       1.0  0.24945  0.34802  0.46275  1.0000 -0.0834402555
C   C72       1.0  0.65198  0.90143  0.46275  1.0000 -0.0834402555
C   C73       1.0  0.95714  0.58758  0.84583  1.0000 0.1109475213
C   C74       1.0  0.41242  0.36956  0.84583  1.0000 0.1109475213
C   C75       1.0  0.63044  0.04286  0.84583  1.0000 0.1109475213
C   C76       1.0  0.95397  0.58379  0.92257  1.0000 -0.1671709606
C   C77       1.0  0.41621  0.37017  0.92257  1.0000 -0.1671709606
C   C78       1.0  0.62983  0.04603  0.92257  1.0000 -0.1671709606
C   C79       1.0  0.00434  0.66635  0.96425  1.0000 0.1003988856
C   C80       1.0  0.33365  0.33798  0.96425  1.0000 0.1003988856
C   C81       1.0  0.66202  0.99566  0.96425  1.0000 0.1003988856
C   C82       1.0  0.05678  0.74956  0.92381  1.0000 -0.1671709606
C   C83       1.0  0.25044  0.30722  0.92381  1.0000 -0.1671709606
C   C84       1.0  0.69278  0.94322  0.92381  1.0000 -0.1671709606
C   C85       1.0  0.05653  0.74817  0.84699  1.0000 0.1109475213
C   C86       1.0  0.25183  0.30836  0.84699  1.0000 0.1109475213
C   C87       1.0  0.69164  0.94347  0.84699  1.0000 0.1109475213
C   C88       1.0  0.05963  0.74510  0.16428  1.0000 0.1109475213
C   C89       1.0  0.25490  0.31453  0.16428  1.0000 0.1109475213
C   C90       1.0  0.68547  0.94037  0.16428  1.0000 0.1109475213
C   C91       1.0  0.06065  0.74794  0.08750  1.0000 -0.1671709606
C   C92       1.0  0.25206  0.31272  0.08750  1.0000 -0.1671709606
C   C93       1.0  0.68728  0.93935  0.08750  1.0000 -0.1671709606
C   C94       1.0  0.00350  0.66651  0.04628  1.0000 0.1003988856
C   C95       1.0  0.33349  0.33699  0.04628  1.0000 0.1003988856
C   C96       1.0  0.66301  0.99650  0.04628  1.0000 0.1003988856
C   C97       1.0  0.94604  0.58519  0.08734  1.0000 -0.1671709606
C   C98       1.0  0.41481  0.36085  0.08734  1.0000 -0.1671709606
C   C99       1.0  0.63915  0.05396  0.08734  1.0000 -0.1671709606
C   C100      1.0  0.94942  0.58727  0.16419  1.0000 0.1109475213
C   C101      1.0  0.41273  0.36215  0.16419  1.0000 0.1109475213
C   C102      1.0  0.63785  0.05058  0.16419  1.0000 0.1109475213
N   N1        1.0  0.01395  0.66667  0.57815  1.0000 -0.0892853634
N   N2        1.0  0.33329  0.34723  0.57815  1.0000 -0.0892853634
N   N3        1.0  0.65277  0.98605  0.57815  1.0000 -0.0892853634
N   N4        1.0  0.01416  0.66667  0.43340  1.0000 -0.0892853634
N   N5        1.0  0.33327  0.34744  0.43340  1.0000 -0.0892853634
N   N6        1.0  0.65256  0.98584  0.43340  1.0000 -0.0892853634
N   N7        1.0  0.00709  0.66825  0.80780  1.0000 -0.1928216668
N   N8        1.0  0.33175  0.33884  0.80780  1.0000 -0.1928216668
N   N9        1.0  0.66116  0.99291  0.80780  1.0000 -0.1928216668
N   N10       1.0  0.00534  0.66593  0.20303  1.0000 -0.1983364822
N   N11       1.0  0.33407  0.33941  0.20303  1.0000 -0.1983364822
N   N12       1.0  0.66059  0.99466  0.20303  1.0000 -0.1983364822
O   O1        1.0  0.88925  0.55384  0.69405  1.0000 -0.5686107776
O   O2        1.0  0.44616  0.33541  0.69405  1.0000 -0.5686107776
O   O3        1.0  0.66459  0.11075  0.69405  1.0000 -0.5686107776
O   O4        1.0  0.76744  0.58213  0.71191  1.0000 -0.4553807826
O   O5        1.0  0.41787  0.18531  0.71191  1.0000 -0.4553807826
O   O6        1.0  0.81469  0.23256  0.71191  1.0000 -0.4553807826
O   O7        1.0  0.85221  0.75023  0.70210  1.0000 -0.4515095007
O   O8        1.0  0.24977  0.10198  0.70210  1.0000 -0.4515095007
O   O9        1.0  0.89802  0.14779  0.70210  1.0000 -0.4515095007
O   O10       1.0  0.00419  0.78081  0.69515  1.0000 -0.5686107776
O   O11       1.0  0.21919  0.22338  0.69515  1.0000 -0.5686107776
O   O12       1.0  0.77662  0.99581  0.69515  1.0000 -0.5686107776
O   O13       1.0  0.15772  0.74403  0.70275  1.0000 -0.5092841835
O   O14       1.0  0.25597  0.41368  0.70275  1.0000 -0.5092841835
O   O15       1.0  0.58632  0.84228  0.70275  1.0000 -0.5092841835
O   O16       1.0  0.07958  0.58974  0.70401  1.0000 -0.5008541794
O   O17       1.0  0.41026  0.48985  0.70401  1.0000 -0.5008541794
O   O18       1.0  0.51015  0.92042  0.70401  1.0000 -0.5008541794
O   O19       1.0  0.88982  0.55326  0.31855  1.0000 -0.5686107776
O   O20       1.0  0.44674  0.33655  0.31855  1.0000 -0.5686107776
O   O21       1.0  0.66345  0.11018  0.31855  1.0000 -0.5686107776
O   O22       1.0  0.76782  0.58256  0.30814  1.0000 -0.4515095007
O   O23       1.0  0.41744  0.18526  0.30814  1.0000 -0.4515095007
O   O24       1.0  0.81474  0.23218  0.30814  1.0000 -0.4515095007
O   O25       1.0  0.85136  0.75087  0.30890  1.0000 -0.4515095007
O   O26       1.0  0.24913  0.10049  0.30890  1.0000 -0.4515095007
O   O27       1.0  0.89951  0.14864  0.30890  1.0000 -0.4515095007
O   O28       1.0  0.00276  0.77965  0.31675  1.0000 -0.5686107776
O   O29       1.0  0.22035  0.22312  0.31675  1.0000 -0.5686107776
O   O30       1.0  0.77688  0.99724  0.31675  1.0000 -0.5686107776
O   O31       1.0  0.15692  0.74383  0.30832  1.0000 -0.5092841835
O   O32       1.0  0.25617  0.41309  0.30832  1.0000 -0.5092841835
O   O33       1.0  0.58691  0.84308  0.30832  1.0000 -0.5092841835
O   O34       1.0  0.08014  0.58966  0.30884  1.0000 -0.5008541794
O   O35       1.0  0.41034  0.49048  0.30884  1.0000 -0.5008541794
O   O36       1.0  0.50952  0.91986  0.30884  1.0000 -0.5008541794
