# DDEC6 charges by PACMAN v1.1 (https://github.com/mtap-research/PACMAN-charge/)
data_2013[Co][pcu]3[ASR]3
_chemical_formula_sum              "Co5 H38 C48 N6 O14"
_cell_length_a       10.975
_cell_length_b       12.139
_cell_length_c       13.728
_cell_angle_alpha    67.25
_cell_angle_beta     80.94
_cell_angle_gamma    70.26

_symmetry_space_group_name_H-M    "P 1"
_symmetry_Int_Tables_number       1

loop_
  _symmetry_equiv_pos_as_xyz
  'x, y, z'

loop_
  _atom_site_type_symbol
  _atom_site_label
  _atom_site_symmetry_multiplicity
  _atom_site_fract_x
  _atom_site_fract_y
  _atom_site_fract_z
  _atom_site_occupancy
  _atom_site_charge
Co  Co1       1.0  0.00000  0.50000  0.00000  1.0000 1.0376622961
Co  Co2       1.0  0.95700  0.59418  0.18500  1.0000 0.8979568169
Co  Co3       1.0  0.04300  0.40582  0.81500  1.0000 0.8979568169
Co  Co4       1.0  0.86798  0.32855  0.18751  1.0000 0.8493966446
Co  Co5       1.0  0.13202  0.67145  0.81249  1.0000 0.8493966446
H   H1        1.0  0.79250  0.53540  0.14260  1.0000 0.3604076789
H   H2        1.0  0.20750  0.46460  0.85740  1.0000 0.3604076789
H   H3        1.0  0.13450  0.28320  0.48470  1.0000 0.1195713406
H   H4        1.0  0.86550  0.71680  0.51530  1.0000 0.1195713406
H   H5        1.0  0.05300  0.09980  0.47980  1.0000 0.1127033518
H   H6        1.0  0.94700  0.90020  0.52020  1.0000 0.1127033518
H   H7        1.0  0.21040  0.17280  0.64990  1.0000 0.1127033518
H   H8        1.0  0.78960  0.82720  0.35010  1.0000 0.1127033518
H   H9        1.0  0.27140  0.03200  0.81940  1.0000 0.1195713406
H   H10       1.0  0.72860  0.96800  0.18060  1.0000 0.1195713406
H   H11       1.0  0.23250  0.84700  0.88590  1.0000 0.101165697
H   H12       1.0  0.76750  0.15300  0.11410  1.0000 0.101165697
H   H13       1.0  0.08470  0.91440  0.62180  1.0000 0.101165697
H   H14       1.0  0.91530  0.08560  0.37820  1.0000 0.101165697
H   H15       1.0  0.39580  0.57140  0.07740  1.0000 0.1195713406
H   H16       1.0  0.60420  0.42860  0.92260  1.0000 0.1195713406
H   H17       1.0  0.26630  0.43980  0.24410  1.0000 0.1195713406
H   H18       1.0  0.73370  0.56020  0.75590  1.0000 0.1195713406
H   H19       1.0  0.36870  0.40570  0.41670  1.0000 0.1195713406
H   H20       1.0  0.63130  0.59430  0.58330  1.0000 0.1195713406
H   H21       1.0  0.55630  0.35430  0.50020  1.0000 0.1195713406
H   H22       1.0  0.44370  0.64570  0.49980  1.0000 0.1195713406
H   H23       1.0  0.75220  0.32270  0.41330  1.0000 0.101165697
H   H24       1.0  0.24780  0.67730  0.58670  1.0000 0.101165697
H   H25       1.0  0.57990  0.42000  0.15310  1.0000 0.1127033518
H   H26       1.0  0.42010  0.58000  0.84690  1.0000 0.1127033518
H   H27       1.0  0.84850  0.92300  0.80730  1.0000 0.1314223693
H   H28       1.0  0.15150  0.07700  0.19270  1.0000 0.1314223693
H   H29       1.0  0.86420  0.99750  0.96690  1.0000 0.1127033518
H   H30       1.0  0.13580  0.00250  0.03310  1.0000 0.1127033518
H   H31       1.0  0.76250  0.14310  0.70050  1.0000 0.1195713406
H   H32       1.0  0.23750  0.85690  0.29950  1.0000 0.1195713406
H   H33       1.0  0.78460  0.33040  0.58340  1.0000 0.1127033518
H   H34       1.0  0.21540  0.66960  0.41660  1.0000 0.1127033518
H   H35       1.0  0.90010  0.42940  0.62540  1.0000 0.101165697
H   H36       1.0  0.09990  0.57060  0.37460  1.0000 0.101165697
H   H37       1.0  0.94680  0.17560  0.90990  1.0000 0.101165697
H   H38       1.0  0.05320  0.82440  0.09010  1.0000 0.101165697
C   C1        1.0  0.02890  0.32760  0.35350  1.0000 0.6133794472
C   C2        1.0  0.97110  0.67240  0.64650  1.0000 0.6133794472
C   C3        1.0  0.09110  0.24830  0.45730  1.0000 -0.2426278307
C   C4        1.0  0.90890  0.75170  0.54270  1.0000 -0.2426278307
C   C5        1.0  0.08950  0.13560  0.51190  1.0000 -0.1106903667
C   C6        1.0  0.91050  0.86440  0.48810  1.0000 -0.1106903667
C   C7        1.0  0.13740  0.05670  0.61760  1.0000 0.0576928355
C   C8        1.0  0.86260  0.94330  0.38240  1.0000 0.0576928355
C   C9        1.0  0.19580  0.09520  0.67670  1.0000 -0.0969200372
C   C10       1.0  0.80420  0.90480  0.32330  1.0000 -0.0969200372
C   C11       1.0  0.23060  0.01090  0.77770  1.0000 -0.159867385
C   C12       1.0  0.76940  0.98910  0.22230  1.0000 -0.159867385
C   C13       1.0  0.20730  0.89950  0.81750  1.0000 0.0576928355
C   C14       1.0  0.79270  0.10050  0.18250  1.0000 0.0576928355
C   C15       1.0  0.12000  0.94040  0.66330  1.0000 -0.0071884572
C   C16       1.0  0.88000  0.05960  0.33670  1.0000 -0.0071884572
C   C17       1.0  0.21790  0.56850  0.04440  1.0000 0.6197339282
C   C18       1.0  0.78210  0.43150  0.95560  1.0000 0.6197339282
C   C19       1.0  0.32860  0.53790  0.10950  1.0000 -0.2505495115
C   C20       1.0  0.67140  0.46210  0.89050  1.0000 -0.2505495115
C   C21       1.0  0.33750  0.46590  0.21040  1.0000 -0.0969200372
C   C22       1.0  0.66250  0.53410  0.78960  1.0000 -0.0969200372
C   C23       1.0  0.45230  0.42410  0.27320  1.0000 0.0664512817
C   C24       1.0  0.54770  0.57590  0.72680  1.0000 0.0664512817
C   C25       1.0  0.44730  0.39960  0.37900  1.0000 -0.1106903667
C   C26       1.0  0.55270  0.60040  0.62100  1.0000 -0.1106903667
C   C27       1.0  0.55980  0.36600  0.42890  1.0000 -0.159867385
C   C28       1.0  0.44020  0.63400  0.57110  1.0000 -0.159867385
C   C29       1.0  0.67740  0.34930  0.37610  1.0000 0.0406406266
C   C30       1.0  0.32260  0.65070  0.62390  1.0000 0.0406406266
C   C31       1.0  0.57550  0.40600  0.22500  1.0000 0.0205049761
C   C32       1.0  0.42450  0.59400  0.77500  1.0000 0.0205049761
C   C33       1.0  0.90240  0.77780  0.95170  1.0000 0.6197339282
C   C34       1.0  0.09760  0.22220  0.04830  1.0000 0.6197339282
C   C35       1.0  0.86840  0.90920  0.87530  1.0000 -0.226895222
C   C36       1.0  0.13160  0.09080  0.12470  1.0000 -0.226895222
C   C37       1.0  0.86440  0.00790  0.89620  1.0000 -0.1287920974
C   C38       1.0  0.13560  0.99210  0.10380  1.0000 -0.1287920974
C   C39       1.0  0.86020  0.13150  0.81840  1.0000 0.0664512817
C   C40       1.0  0.13980  0.86850  0.18160  1.0000 0.0664512817
C   C41       1.0  0.80760  0.18400  0.71940  1.0000 -0.1106903667
C   C42       1.0  0.19240  0.81600  0.28060  1.0000 -0.1106903667
C   C43       1.0  0.82150  0.29520  0.64930  1.0000 -0.1495295777
C   C44       1.0  0.17850  0.70480  0.35070  1.0000 -0.1495295777
C   C45       1.0  0.88890  0.35520  0.67510  1.0000 0.0406406266
C   C46       1.0  0.11110  0.64480  0.32490  1.0000 0.0406406266
C   C47       1.0  0.91960  0.20340  0.84120  1.0000 0.0406406266
C   C48       1.0  0.08040  0.79660  0.15880  1.0000 0.0406406266
N   N1        1.0  0.14960  0.86000  0.76340  1.0000 -0.2553456142
N   N2        1.0  0.85040  0.14000  0.23660  1.0000 -0.2505495115
N   N3        1.0  0.68780  0.37060  0.27100  1.0000 -0.2505495115
N   N4        1.0  0.31220  0.62940  0.72900  1.0000 -0.2505495115
N   N5        1.0  0.94060  0.30880  0.77240  1.0000 -0.2667616918
N   N6        1.0  0.05940  0.69120  0.22760  1.0000 -0.2667616918
O   O1        1.0  0.97260  0.27640  0.31720  1.0000 -0.5632171943
O   O2        1.0  0.02740  0.72360  0.68280  1.0000 -0.5632171943
O   O3        1.0  0.03480  0.43550  0.31090  1.0000 -0.5632171943
O   O4        1.0  0.96520  0.56450  0.68910  1.0000 -0.5632171943
O   O5        1.0  0.22680  0.63540  0.94840  1.0000 -0.5797190681
O   O6        1.0  0.77320  0.36460  0.05160  1.0000 -0.5797190681
O   O7        1.0  0.12550  0.52600  0.08760  1.0000 -0.5683401986
O   O8        1.0  0.87450  0.47400  0.91240  1.0000 -0.5683401986
O   O9        1.0  0.88860  0.76160  0.04920  1.0000 -0.588921757
O   O10       1.0  0.11140  0.23840  0.95080  1.0000 -0.588921757
O   O11       1.0  0.94470  0.69440  0.91150  1.0000 -0.5683401986
O   O12       1.0  0.05530  0.30560  0.08850  1.0000 -0.5683401986
O   O13       1.0  0.87180  0.51030  0.12450  1.0000 -0.854678662
O   O14       1.0  0.12820  0.48970  0.87550  1.0000 -0.854678662
