# DDEC6 charges by PACMAN v1.1 (https://github.com/mtap-research/PACMAN-charge/)
data_2013[Zn][dia]3[ASR]14
_chemical_formula_sum              "Zn4 H80 C72 N8 O16"
_cell_length_a       10.5081
_cell_length_b       12.296
_cell_length_c       16.6714
_cell_angle_alpha    90
_cell_angle_beta     90
_cell_angle_gamma    90

_symmetry_space_group_name_H-M    "P 1"
_symmetry_Int_Tables_number       1

loop_
  _symmetry_equiv_pos_as_xyz
  'x, y, z'

loop_
  _atom_site_type_symbol
  _atom_site_label
  _atom_site_symmetry_multiplicity
  _atom_site_fract_x
  _atom_site_fract_y
  _atom_site_fract_z
  _atom_site_occupancy
  _atom_site_charge
Zn  Zn1       1.0  0.40095  0.25000  0.75000  1.0000 0.7384057548
Zn  Zn2       1.0  0.59905  0.75000  0.25000  1.0000 0.7384057548
Zn  Zn3       1.0  0.09905  0.25000  0.25000  1.0000 0.7384057548
Zn  Zn4       1.0  0.90095  0.75000  0.75000  1.0000 0.7384057548
H   H1        1.0  0.56780  0.97290  0.63250  1.0000 0.1197472643
H   H2        1.0  0.56780  0.52710  0.86750  1.0000 0.1197472643
H   H3        1.0  0.43220  0.02710  0.36750  1.0000 0.1197472643
H   H4        1.0  0.43220  0.47290  0.13250  1.0000 0.1197472643
H   H5        1.0  0.68340  0.04310  0.60490  1.0000 0.1197472643
H   H6        1.0  0.68340  0.45690  0.89510  1.0000 0.1197472643
H   H7        1.0  0.31660  0.95690  0.39510  1.0000 0.1197472643
H   H8        1.0  0.31660  0.54310  0.10490  1.0000 0.1197472643
H   H9        1.0  0.60650  0.93390  0.50480  1.0000 0.0870754924
H   H10       1.0  0.60650  0.56610  0.99520  1.0000 0.0870754924
H   H11       1.0  0.39350  0.06610  0.49520  1.0000 0.0870754924
H   H12       1.0  0.39350  0.43390  0.00480  1.0000 0.0870754924
H   H13       1.0  0.60990  0.05640  0.48060  1.0000 0.104068039
H   H14       1.0  0.60990  0.44360  0.01940  1.0000 0.104068039
H   H15       1.0  0.39010  0.94360  0.51940  1.0000 0.104068039
H   H16       1.0  0.39010  0.55640  0.98060  1.0000 0.104068039
H   H17       1.0  0.23900  0.21010  0.60450  1.0000 0.1118735727
H   H18       1.0  0.23900  0.28990  0.89550  1.0000 0.1118735727
H   H19       1.0  0.76100  0.78990  0.39550  1.0000 0.1118735727
H   H20       1.0  0.76100  0.71010  0.10450  1.0000 0.1118735727
H   H21       1.0  0.07710  0.28920  0.53360  1.0000 0.1474204716
H   H22       1.0  0.07710  0.21080  0.96640  1.0000 0.1474204716
H   H23       1.0  0.92290  0.71080  0.46640  1.0000 0.1474204716
H   H24       1.0  0.92290  0.78920  0.03360  1.0000 0.1474204716
H   H25       1.0  0.12640  0.55890  0.66300  1.0000 0.1555131283
H   H26       1.0  0.12640  0.94110  0.83700  1.0000 0.1555131283
H   H27       1.0  0.87360  0.44110  0.33700  1.0000 0.1555131283
H   H28       1.0  0.87360  0.05890  0.16300  1.0000 0.1555131283
H   H29       1.0  0.28080  0.46970  0.73490  1.0000 0.1197472643
H   H30       1.0  0.28080  0.03030  0.76510  1.0000 0.1197472643
H   H31       1.0  0.71920  0.53030  0.26510  1.0000 0.1197472643
H   H32       1.0  0.71920  0.96970  0.23490  1.0000 0.1197472643
H   H33       1.0  0.90410  0.44570  0.54500  1.0000 0.1197472643
H   H34       1.0  0.90410  0.05430  0.95500  1.0000 0.1197472643
H   H35       1.0  0.09590  0.55430  0.45500  1.0000 0.1197472643
H   H36       1.0  0.09590  0.94570  0.04500  1.0000 0.1197472643
H   H37       1.0  0.96000  0.55970  0.56860  1.0000 0.1197472643
H   H38       1.0  0.96000  0.94030  0.93140  1.0000 0.1197472643
H   H39       1.0  0.04000  0.44030  0.43140  1.0000 0.1197472643
H   H40       1.0  0.04000  0.05970  0.06860  1.0000 0.1197472643
H   H41       1.0  0.93220  0.97290  0.36750  1.0000 0.1197472643
H   H42       1.0  0.93220  0.52710  0.13250  1.0000 0.1197472643
H   H43       1.0  0.06780  0.02710  0.63250  1.0000 0.1197472643
H   H44       1.0  0.06780  0.47290  0.86750  1.0000 0.1197472643
H   H45       1.0  0.81660  0.04310  0.39510  1.0000 0.1197472643
H   H46       1.0  0.81660  0.45690  0.10490  1.0000 0.1197472643
H   H47       1.0  0.18340  0.95690  0.60490  1.0000 0.1197472643
H   H48       1.0  0.18340  0.54310  0.89510  1.0000 0.1197472643
H   H49       1.0  0.89350  0.93390  0.49520  1.0000 0.0870754924
H   H50       1.0  0.89350  0.56610  0.00480  1.0000 0.0870754924
H   H51       1.0  0.10650  0.06610  0.50480  1.0000 0.0870754924
H   H52       1.0  0.10650  0.43390  0.99520  1.0000 0.0870754924
H   H53       1.0  0.89010  0.05640  0.51940  1.0000 0.104068039
H   H54       1.0  0.89010  0.44360  0.98060  1.0000 0.104068039
H   H55       1.0  0.10990  0.94360  0.48060  1.0000 0.104068039
H   H56       1.0  0.10990  0.55640  0.01940  1.0000 0.104068039
H   H57       1.0  0.26100  0.21010  0.39550  1.0000 0.1118735727
H   H58       1.0  0.26100  0.28990  0.10450  1.0000 0.1118735727
H   H59       1.0  0.73900  0.78990  0.60450  1.0000 0.1118735727
H   H60       1.0  0.73900  0.71010  0.89550  1.0000 0.1118735727
H   H61       1.0  0.42290  0.28920  0.46640  1.0000 0.1474204716
H   H62       1.0  0.42290  0.21080  0.03360  1.0000 0.1474204716
H   H63       1.0  0.57710  0.71080  0.53360  1.0000 0.1474204716
H   H64       1.0  0.57710  0.78920  0.96640  1.0000 0.1474204716
H   H65       1.0  0.37360  0.55890  0.33700  1.0000 0.1555131283
H   H66       1.0  0.37360  0.94110  0.16300  1.0000 0.1555131283
H   H67       1.0  0.62640  0.44110  0.66300  1.0000 0.1555131283
H   H68       1.0  0.62640  0.05890  0.83700  1.0000 0.1555131283
H   H69       1.0  0.21920  0.46970  0.26510  1.0000 0.1197472643
H   H70       1.0  0.21920  0.03030  0.23490  1.0000 0.1197472643
H   H71       1.0  0.78080  0.53030  0.73490  1.0000 0.1197472643
H   H72       1.0  0.78080  0.96970  0.76510  1.0000 0.1197472643
H   H73       1.0  0.59590  0.44570  0.45500  1.0000 0.1197472643
H   H74       1.0  0.59590  0.05430  0.04500  1.0000 0.1197472643
H   H75       1.0  0.40410  0.55430  0.54500  1.0000 0.1197472643
H   H76       1.0  0.40410  0.94570  0.95500  1.0000 0.1197472643
H   H77       1.0  0.54000  0.55970  0.43140  1.0000 0.1197472643
H   H78       1.0  0.54000  0.94030  0.06860  1.0000 0.1197472643
H   H79       1.0  0.46000  0.44030  0.56860  1.0000 0.1197472643
H   H80       1.0  0.46000  0.05970  0.93140  1.0000 0.1197472643
C   C1        1.0  0.53000  0.13310  0.63290  1.0000 0.6100094822
C   C2        1.0  0.53000  0.36690  0.86710  1.0000 0.6100094822
C   C3        1.0  0.47000  0.86690  0.36710  1.0000 0.6100094822
C   C4        1.0  0.47000  0.63310  0.13290  1.0000 0.6100094822
C   C5        1.0  0.59220  0.03410  0.59920  1.0000 -0.342797378
C   C6        1.0  0.59220  0.46590  0.90080  1.0000 -0.342797378
C   C7        1.0  0.40780  0.96590  0.40080  1.0000 -0.342797378
C   C8        1.0  0.40780  0.53410  0.09920  1.0000 -0.342797378
C   C9        1.0  0.56650  0.00380  0.51430  1.0000 -0.1352671627
C   C10       1.0  0.56650  0.49620  0.98570  1.0000 -0.1352671627
C   C11       1.0  0.43350  0.99620  0.48570  1.0000 -0.1352671627
C   C12       1.0  0.43350  0.50380  0.01430  1.0000 -0.1352671627
C   C13       1.0  0.21410  0.28050  0.61740  1.0000 0.0638803747
C   C14       1.0  0.21410  0.21950  0.88260  1.0000 0.0638803747
C   C15       1.0  0.78590  0.71950  0.38260  1.0000 0.0638803747
C   C16       1.0  0.78590  0.78050  0.11740  1.0000 0.0638803747
C   C17       1.0  0.11830  0.32800  0.57390  1.0000 -0.1908950955
C   C18       1.0  0.11830  0.17200  0.92610  1.0000 -0.1908950955
C   C19       1.0  0.88170  0.67200  0.42610  1.0000 -0.1908950955
C   C20       1.0  0.88170  0.82800  0.07390  1.0000 -0.1908950955
C   C21       1.0  0.08310  0.43570  0.59060  1.0000 0.1686487999
C   C22       1.0  0.08310  0.06430  0.90940  1.0000 0.1686487999
C   C23       1.0  0.91690  0.56430  0.40940  1.0000 0.1686487999
C   C24       1.0  0.91690  0.93570  0.09060  1.0000 0.1686487999
C   C25       1.0  0.14610  0.48710  0.65060  1.0000 -0.1908950955
C   C26       1.0  0.14610  0.01290  0.84940  1.0000 -0.1908950955
C   C27       1.0  0.85390  0.51290  0.34940  1.0000 -0.1908950955
C   C28       1.0  0.85390  0.98710  0.15060  1.0000 -0.1908950955
C   C29       1.0  0.23980  0.43310  0.69350  1.0000 0.0752823409
C   C30       1.0  0.23980  0.06690  0.80650  1.0000 0.0752823409
C   C31       1.0  0.76020  0.56690  0.30650  1.0000 0.0752823409
C   C32       1.0  0.76020  0.93310  0.19350  1.0000 0.0752823409
C   C33       1.0  0.98010  0.49040  0.54380  1.0000 -0.2396125122
C   C34       1.0  0.98010  0.00960  0.95620  1.0000 -0.2396125122
C   C35       1.0  0.01990  0.50960  0.45620  1.0000 -0.2396125122
C   C36       1.0  0.01990  0.99040  0.04380  1.0000 -0.2396125122
C   C37       1.0  0.97000  0.13310  0.36710  1.0000 0.6100094822
C   C38       1.0  0.97000  0.36690  0.13290  1.0000 0.6100094822
C   C39       1.0  0.03000  0.86690  0.63290  1.0000 0.6100094822
C   C40       1.0  0.03000  0.63310  0.86710  1.0000 0.6100094822
C   C41       1.0  0.90780  0.03410  0.40080  1.0000 -0.342797378
C   C42       1.0  0.90780  0.46590  0.09920  1.0000 -0.342797378
C   C43       1.0  0.09220  0.96590  0.59920  1.0000 -0.342797378
C   C44       1.0  0.09220  0.53410  0.90080  1.0000 -0.342797378
C   C45       1.0  0.93350  0.00380  0.48570  1.0000 -0.1352671627
C   C46       1.0  0.93350  0.49620  0.01430  1.0000 -0.1352671627
C   C47       1.0  0.06650  0.99620  0.51430  1.0000 -0.1352671627
C   C48       1.0  0.06650  0.50380  0.98570  1.0000 -0.1352671627
C   C49       1.0  0.28590  0.28050  0.38260  1.0000 0.0638803747
C   C50       1.0  0.28590  0.21950  0.11740  1.0000 0.0638803747
C   C51       1.0  0.71410  0.71950  0.61740  1.0000 0.0638803747
C   C52       1.0  0.71410  0.78050  0.88260  1.0000 0.0638803747
C   C53       1.0  0.38170  0.32800  0.42610  1.0000 -0.1908950955
C   C54       1.0  0.38170  0.17200  0.07390  1.0000 -0.1908950955
C   C55       1.0  0.61830  0.67200  0.57390  1.0000 -0.1908950955
C   C56       1.0  0.61830  0.82800  0.92610  1.0000 -0.1908950955
C   C57       1.0  0.41690  0.43570  0.40940  1.0000 0.1686487999
C   C58       1.0  0.41690  0.06430  0.09060  1.0000 0.1686487999
C   C59       1.0  0.58310  0.56430  0.59060  1.0000 0.1686487999
C   C60       1.0  0.58310  0.93570  0.90940  1.0000 0.1686487999
C   C61       1.0  0.35390  0.48710  0.34940  1.0000 -0.1908950955
C   C62       1.0  0.35390  0.01290  0.15060  1.0000 -0.1908950955
C   C63       1.0  0.64610  0.51290  0.65060  1.0000 -0.1908950955
C   C64       1.0  0.64610  0.98710  0.84940  1.0000 -0.1908950955
C   C65       1.0  0.26020  0.43310  0.30650  1.0000 0.0752823409
C   C66       1.0  0.26020  0.06690  0.19350  1.0000 0.0752823409
C   C67       1.0  0.73980  0.56690  0.69350  1.0000 0.0752823409
C   C68       1.0  0.73980  0.93310  0.80650  1.0000 0.0752823409
C   C69       1.0  0.51990  0.49040  0.45620  1.0000 -0.2396125122
C   C70       1.0  0.51990  0.00960  0.04380  1.0000 -0.2396125122
C   C71       1.0  0.48010  0.50960  0.54380  1.0000 -0.2396125122
C   C72       1.0  0.48010  0.99040  0.95620  1.0000 -0.2396125122
N   N1        1.0  0.27320  0.33130  0.67779  1.0000 -0.2396125122
N   N2        1.0  0.27320  0.16870  0.82221  1.0000 -0.2396125122
N   N3        1.0  0.72680  0.66870  0.32221  1.0000 -0.2396125122
N   N4        1.0  0.72680  0.83130  0.17779  1.0000 -0.2396125122
N   N5        1.0  0.22680  0.33130  0.32221  1.0000 -0.2396125122
N   N6        1.0  0.22680  0.16870  0.17779  1.0000 -0.2396125122
N   N7        1.0  0.77320  0.66870  0.67779  1.0000 -0.2396125122
N   N8        1.0  0.77320  0.83130  0.82221  1.0000 -0.2396125122
O   O1        1.0  0.47670  0.12710  0.69955  1.0000 -0.5645621139
O   O2        1.0  0.47670  0.37290  0.80045  1.0000 -0.5645621139
O   O3        1.0  0.52330  0.87290  0.30045  1.0000 -0.5645621139
O   O4        1.0  0.52330  0.62710  0.19955  1.0000 -0.5645621139
O   O5        1.0  0.54390  0.22180  0.59720  1.0000 -0.588069031
O   O6        1.0  0.54390  0.27820  0.90280  1.0000 -0.588069031
O   O7        1.0  0.45610  0.77820  0.40280  1.0000 -0.588069031
O   O8        1.0  0.45610  0.72180  0.09720  1.0000 -0.588069031
O   O9        1.0  0.02330  0.12710  0.30045  1.0000 -0.5645621139
O   O10       1.0  0.02330  0.37290  0.19955  1.0000 -0.5645621139
O   O11       1.0  0.97670  0.87290  0.69955  1.0000 -0.5645621139
O   O12       1.0  0.97670  0.62710  0.80045  1.0000 -0.5645621139
O   O13       1.0  0.95610  0.22180  0.40280  1.0000 -0.588069031
O   O14       1.0  0.95610  0.27820  0.09720  1.0000 -0.588069031
O   O15       1.0  0.04390  0.77820  0.59720  1.0000 -0.588069031
O   O16       1.0  0.04390  0.72180  0.90280  1.0000 -0.588069031
