# DDEC6 charges by PACMAN v1.1 (https://github.com/mtap-research/PACMAN-charge/)
data_2013[Ni][nan]3[ASR]6
_chemical_formula_sum              "Ni3 H54 C78 N24 O12"
_cell_length_a       15.673
_cell_length_b       15.673
_cell_length_c       18.532
_cell_angle_alpha    90
_cell_angle_beta     90
_cell_angle_gamma    120

_symmetry_space_group_name_H-M    "P 1"
_symmetry_Int_Tables_number       1

loop_
  _symmetry_equiv_pos_as_xyz
  'x, y, z'

loop_
  _atom_site_type_symbol
  _atom_site_label
  _atom_site_symmetry_multiplicity
  _atom_site_fract_x
  _atom_site_fract_y
  _atom_site_fract_z
  _atom_site_occupancy
  _atom_site_charge
Ni  Ni1       1.0  0.82237  0.82237  0.50000  1.0000 0.6337505033
Ni  Ni2       1.0  0.17763  0.00000  0.16667  1.0000 0.6337505033
Ni  Ni3       1.0  0.00000  0.17763  0.83333  1.0000 0.6337505033
H   H1        1.0  0.93900  0.46670  0.45070  1.0000 0.2663229928
H   H2        1.0  0.53330  0.47230  0.11737  1.0000 0.2663229928
H   H3        1.0  0.52770  0.06100  0.78403  1.0000 0.2663229928
H   H4        1.0  0.46670  0.93900  0.54930  1.0000 0.2663229928
H   H5        1.0  0.06100  0.52770  0.21597  1.0000 0.2663229928
H   H6        1.0  0.47230  0.53330  0.88263  1.0000 0.2663229928
H   H7        1.0  0.95610  0.43090  0.38660  1.0000 0.2663229928
H   H8        1.0  0.56910  0.52520  0.05327  1.0000 0.2663229928
H   H9        1.0  0.47480  0.04390  0.71993  1.0000 0.2663229928
H   H10       1.0  0.43090  0.95610  0.61340  1.0000 0.2663229928
H   H11       1.0  0.04390  0.47480  0.28007  1.0000 0.2663229928
H   H12       1.0  0.52520  0.56910  0.94673  1.0000 0.2663229928
H   H13       1.0  0.29130  0.93350  0.25520  1.0000 0.1092310317
H   H14       1.0  0.06650  0.35780  0.92187  1.0000 0.1092310317
H   H15       1.0  0.64220  0.70870  0.58853  1.0000 0.1092310317
H   H16       1.0  0.93350  0.29130  0.74480  1.0000 0.1092310317
H   H17       1.0  0.70870  0.64220  0.41147  1.0000 0.1092310317
H   H18       1.0  0.35780  0.06650  0.07813  1.0000 0.1092310317
H   H19       1.0  0.43920  0.93480  0.26540  1.0000 0.1313186996
H   H20       1.0  0.06520  0.50440  0.93207  1.0000 0.1313186996
H   H21       1.0  0.49560  0.56080  0.59873  1.0000 0.1313186996
H   H22       1.0  0.93480  0.43920  0.73460  1.0000 0.1313186996
H   H23       1.0  0.56080  0.49560  0.40127  1.0000 0.1313186996
H   H24       1.0  0.50440  0.06520  0.06793  1.0000 0.1313186996
H   H25       1.0  0.65470  0.85420  0.44810  1.0000 0.1018780918
H   H26       1.0  0.14580  0.80050  0.11477  1.0000 0.1018780918
H   H27       1.0  0.19950  0.34530  0.78143  1.0000 0.1018780918
H   H28       1.0  0.85420  0.65470  0.55190  1.0000 0.1018780918
H   H29       1.0  0.34530  0.19950  0.21857  1.0000 0.1018780918
H   H30       1.0  0.80050  0.14580  0.88523  1.0000 0.1018780918
H   H31       1.0  0.60460  0.90170  0.34790  1.0000 0.1313186996
H   H32       1.0  0.09830  0.70290  0.01457  1.0000 0.1313186996
H   H33       1.0  0.29710  0.39540  0.68123  1.0000 0.1313186996
H   H34       1.0  0.90170  0.60460  0.65210  1.0000 0.1313186996
H   H35       1.0  0.39540  0.29710  0.31877  1.0000 0.1313186996
H   H36       1.0  0.70290  0.09830  0.98543  1.0000 0.1313186996
H   H37       1.0  0.85210  0.95790  0.25180  1.0000 0.1480873476
H   H38       1.0  0.04210  0.89420  0.91847  1.0000 0.1480873476
H   H39       1.0  0.10580  0.14790  0.58513  1.0000 0.1480873476
H   H40       1.0  0.95790  0.85210  0.74820  1.0000 0.1480873476
H   H41       1.0  0.14790  0.10580  0.41487  1.0000 0.1480873476
H   H42       1.0  0.89420  0.04210  0.08153  1.0000 0.1480873476
H   H43       1.0  0.88520  0.88780  0.34670  1.0000 0.1154001132
H   H44       1.0  0.11220  0.99740  0.01337  1.0000 0.1154001132
H   H45       1.0  0.00260  0.11480  0.68003  1.0000 0.1154001132
H   H46       1.0  0.88780  0.88520  0.65330  1.0000 0.1154001132
H   H47       1.0  0.11480  0.00260  0.31997  1.0000 0.1154001132
H   H48       1.0  0.99740  0.11220  0.98663  1.0000 0.1154001132
H   H49       1.0  0.93860  0.62620  0.45320  1.0000 0.1092310317
H   H50       1.0  0.37380  0.31240  0.11987  1.0000 0.1092310317
H   H51       1.0  0.68760  0.06140  0.78653  1.0000 0.1092310317
H   H52       1.0  0.62620  0.93860  0.54680  1.0000 0.1092310317
H   H53       1.0  0.06140  0.68760  0.21347  1.0000 0.1092310317
H   H54       1.0  0.31240  0.37380  0.88013  1.0000 0.1092310317
C   C1        1.0  0.33630  0.96290  0.21780  1.0000 0.0871961068
C   C2        1.0  0.03710  0.37340  0.88447  1.0000 0.0871961068
C   C3        1.0  0.62660  0.66370  0.55113  1.0000 0.0871961068
C   C4        1.0  0.96290  0.33630  0.78220  1.0000 0.0871961068
C   C5        1.0  0.66370  0.62660  0.44887  1.0000 0.0871961068
C   C6        1.0  0.37340  0.03710  0.11553  1.0000 0.0871961068
C   C7        1.0  0.42490  0.96060  0.22490  1.0000 -0.1891024857
C   C8        1.0  0.03940  0.46430  0.89157  1.0000 -0.1891024857
C   C9        1.0  0.53570  0.57510  0.55823  1.0000 -0.1891024857
C   C10       1.0  0.96060  0.42490  0.77510  1.0000 -0.1891024857
C   C11       1.0  0.57510  0.53570  0.44177  1.0000 -0.1891024857
C   C12       1.0  0.46430  0.03940  0.10843  1.0000 -0.1891024857
C   C13       1.0  0.48900  0.00000  0.16667  1.0000 0.0819400425
C   C14       1.0  0.00000  0.48900  0.83333  1.0000 0.0819400425
C   C15       1.0  0.51100  0.51100  0.50000  1.0000 0.0819400425
C   C16       1.0  0.69340  0.87190  0.40670  1.0000 0.0293028325
C   C17       1.0  0.12810  0.82150  0.07337  1.0000 0.0293028325
C   C18       1.0  0.17850  0.30660  0.74003  1.0000 0.0293028325
C   C19       1.0  0.87190  0.69340  0.59330  1.0000 0.0293028325
C   C20       1.0  0.30660  0.17850  0.25997  1.0000 0.0293028325
C   C21       1.0  0.82150  0.12810  0.92663  1.0000 0.0293028325
C   C22       1.0  0.66380  0.90160  0.34700  1.0000 -0.153619642
C   C23       1.0  0.09840  0.76220  0.01367  1.0000 -0.153619642
C   C24       1.0  0.23780  0.33620  0.68033  1.0000 -0.153619642
C   C25       1.0  0.90160  0.66380  0.65300  1.0000 -0.153619642
C   C26       1.0  0.33620  0.23780  0.31967  1.0000 -0.153619642
C   C27       1.0  0.76220  0.09840  0.98633  1.0000 -0.153619642
C   C28       1.0  0.71900  0.93050  0.28720  1.0000 0.0604220629
C   C29       1.0  0.06950  0.78850  0.95387  1.0000 0.0604220629
C   C30       1.0  0.21150  0.28100  0.62053  1.0000 0.0604220629
C   C31       1.0  0.93050  0.71900  0.71280  1.0000 0.0604220629
C   C32       1.0  0.28100  0.21150  0.37947  1.0000 0.0604220629
C   C33       1.0  0.78850  0.06950  0.04613  1.0000 0.0604220629
C   C34       1.0  0.80770  0.93180  0.28990  1.0000 -0.1683802331
C   C35       1.0  0.06820  0.87590  0.95657  1.0000 -0.1683802331
C   C36       1.0  0.12410  0.19230  0.62323  1.0000 -0.1683802331
C   C37       1.0  0.93180  0.80770  0.71010  1.0000 -0.1683802331
C   C38       1.0  0.19230  0.12410  0.37677  1.0000 -0.1683802331
C   C39       1.0  0.87590  0.06820  0.04343  1.0000 -0.1683802331
C   C40       1.0  0.82950  0.89450  0.34870  1.0000 0.1092310317
C   C41       1.0  0.10550  0.93500  0.01537  1.0000 0.1092310317
C   C42       1.0  0.06500  0.17050  0.68203  1.0000 0.1092310317
C   C43       1.0  0.89450  0.82950  0.65130  1.0000 0.1092310317
C   C44       1.0  0.17050  0.06500  0.31797  1.0000 0.1092310317
C   C45       1.0  0.93500  0.10550  0.98463  1.0000 0.1092310317
C   C46       1.0  0.68830  0.96620  0.22360  1.0000 0.3694273582
C   C47       1.0  0.03380  0.72210  0.89027  1.0000 0.3694273582
C   C48       1.0  0.27790  0.31170  0.55693  1.0000 0.3694273582
C   C49       1.0  0.96620  0.68830  0.77640  1.0000 0.3694273582
C   C50       1.0  0.31170  0.27790  0.44307  1.0000 0.3694273582
C   C51       1.0  0.72210  0.03380  0.10973  1.0000 0.3694273582
C   C52       1.0  0.58620  0.00000  0.16667  1.0000 0.3529897184
C   C53       1.0  0.00000  0.58620  0.83333  1.0000 0.3529897184
C   C54       1.0  0.41380  0.41380  0.50000  1.0000 0.3561425359
C   C55       1.0  0.96280  0.78720  0.40910  1.0000 0.5563035856
C   C56       1.0  0.21280  0.17560  0.07577  1.0000 0.5563035856
C   C57       1.0  0.82440  0.03720  0.74243  1.0000 0.5563035856
C   C58       1.0  0.78720  0.96280  0.59090  1.0000 0.5563035856
C   C59       1.0  0.03720  0.82440  0.25757  1.0000 0.5563035856
C   C60       1.0  0.17560  0.21280  0.92423  1.0000 0.5563035856
C   C61       1.0  0.97990  0.71600  0.36860  1.0000 -0.0432825659
C   C62       1.0  0.28400  0.26390  0.03527  1.0000 -0.0432825659
C   C63       1.0  0.73610  0.02010  0.70193  1.0000 -0.0432825659
C   C64       1.0  0.71600  0.97990  0.63140  1.0000 -0.0432825659
C   C65       1.0  0.02010  0.73610  0.29807  1.0000 -0.0432825659
C   C66       1.0  0.26390  0.28400  0.96473  1.0000 -0.0432825659
C   C67       1.0  0.96300  0.63590  0.40640  1.0000 -0.2251545935
C   C68       1.0  0.36410  0.32710  0.07307  1.0000 -0.2216118027
C   C69       1.0  0.67290  0.03700  0.73973  1.0000 -0.2251545935
C   C70       1.0  0.63590  0.96300  0.59360  1.0000 -0.2251545935
C   C71       1.0  0.03700  0.67290  0.26027  1.0000 -0.2251545935
C   C72       1.0  0.32710  0.36410  0.92693  1.0000 -0.2216118027
C   C73       1.0  0.98250  0.56960  0.37420  1.0000 0.2087689763
C   C74       1.0  0.43040  0.41290  0.04087  1.0000 0.2087689763
C   C75       1.0  0.58710  0.01750  0.70753  1.0000 0.2087689763
C   C76       1.0  0.56960  0.98250  0.62580  1.0000 0.2087689763
C   C77       1.0  0.01750  0.58710  0.29247  1.0000 0.2087689763
C   C78       1.0  0.41290  0.43040  0.95913  1.0000 0.2087689763
N   N1        1.0  0.30890  0.00000  0.16667  1.0000 -0.2142317518
N   N2        1.0  0.00000  0.30890  0.83333  1.0000 -0.2216118027
N   N3        1.0  0.69110  0.69110  0.50000  1.0000 -0.2142317518
N   N4        1.0  0.77820  0.86790  0.40680  1.0000 -0.201809056
N   N5        1.0  0.13210  0.91030  0.07347  1.0000 -0.201809056
N   N6        1.0  0.08970  0.22180  0.74013  1.0000 -0.201809056
N   N7        1.0  0.86790  0.77820  0.59320  1.0000 -0.201809056
N   N8        1.0  0.22180  0.08970  0.25987  1.0000 -0.201809056
N   N9        1.0  0.91030  0.13210  0.92653  1.0000 -0.201809056
N   N10       1.0  0.75240  0.00000  0.16667  1.0000 -0.4314797172
N   N11       1.0  1.00000  0.75240  0.83333  1.0000 -0.4314797172
N   N12       1.0  0.24760  0.24760  0.50000  1.0000 -0.4314797172
N   N13       1.0  0.60390  0.96490  0.22510  1.0000 -0.4064969817
N   N14       1.0  0.03510  0.63900  0.89177  1.0000 -0.4064969817
N   N15       1.0  0.36100  0.39610  0.55843  1.0000 -0.4064969817
N   N16       1.0  0.96490  0.60390  0.77490  1.0000 -0.4064969817
N   N17       1.0  0.39610  0.36100  0.44157  1.0000 -0.4064969817
N   N18       1.0  0.63900  0.03510  0.10823  1.0000 -0.4064969817
N   N19       1.0  0.96300  0.48270  0.40600  1.0000 -0.5314345508
N   N20       1.0  0.51730  0.48030  0.07267  1.0000 -0.5314345508
N   N21       1.0  0.51970  0.03700  0.73933  1.0000 -0.5314345508
N   N22       1.0  0.48270  0.96300  0.59400  1.0000 -0.5314345508
N   N23       1.0  0.03700  0.51970  0.26067  1.0000 -0.5314345508
N   N24       1.0  0.48030  0.51730  0.92733  1.0000 -0.5314345508
O   O1        1.0  0.88030  0.75480  0.43680  1.0000 -0.5463428592
O   O2        1.0  0.24520  0.12550  0.10347  1.0000 -0.5463428592
O   O3        1.0  0.87450  0.11970  0.77013  1.0000 -0.5463428592
O   O4        1.0  0.75480  0.88030  0.56320  1.0000 -0.5463428592
O   O5        1.0  0.11970  0.87450  0.22987  1.0000 -0.5463428592
O   O6        1.0  0.12550  0.24520  0.89653  1.0000 -0.544890359
O   O7        1.0  0.03020  0.87480  0.41650  1.0000 -0.5463428592
O   O8        1.0  0.12520  0.15540  0.08317  1.0000 -0.5463428592
O   O9        1.0  0.84460  0.96980  0.74983  1.0000 -0.5463428592
O   O10       1.0  0.87480  0.03020  0.58350  1.0000 -0.5463428592
O   O11       1.0  0.96980  0.84460  0.25017  1.0000 -0.5463428592
O   O12       1.0  0.15540  0.12520  0.91683  1.0000 -0.5463428592
