# DDEC6 charges by PACMAN v1.1 (https://github.com/mtap-research/PACMAN-charge/)
data_2013[Ni][xmz]3[ASR]1
_chemical_formula_sum              "Ni6 H88 C144 N12 O26"
_cell_length_a       18.5288
_cell_length_b       18.5288
_cell_length_c       18.5288
_cell_angle_alpha    103.521
_cell_angle_beta     103.521
_cell_angle_gamma    103.521

_symmetry_space_group_name_H-M    "P 1"
_symmetry_Int_Tables_number       1

loop_
  _symmetry_equiv_pos_as_xyz
  'x, y, z'

loop_
  _atom_site_type_symbol
  _atom_site_label
  _atom_site_symmetry_multiplicity
  _atom_site_fract_x
  _atom_site_fract_y
  _atom_site_fract_z
  _atom_site_occupancy
  _atom_site_charge
Ni  Ni1       1.0  0.81884  0.75000  0.68116  1.0000 0.8828106808
Ni  Ni2       1.0  0.75000  0.68116  0.81884  1.0000 0.8828106808
Ni  Ni3       1.0  0.68116  0.81884  0.75000  1.0000 0.8828106808
Ni  Ni4       1.0  0.18116  0.25000  0.31884  1.0000 0.8828106808
Ni  Ni5       1.0  0.25000  0.31884  0.18116  1.0000 0.8828106808
Ni  Ni6       1.0  0.31884  0.18116  0.25000  1.0000 0.8828106808
H   H1        1.0  0.23390  0.54390  0.26090  1.0000 0.119351885
H   H2        1.0  0.54390  0.26090  0.23390  1.0000 0.119351885
H   H3        1.0  0.26090  0.23390  0.54390  1.0000 0.119351885
H   H4        1.0  0.26610  0.23910  0.95610  1.0000 0.119351885
H   H5        1.0  0.95610  0.26610  0.23910  1.0000 0.119351885
H   H6        1.0  0.23910  0.95610  0.26610  1.0000 0.119351885
H   H7        1.0  0.76610  0.45610  0.73910  1.0000 0.119351885
H   H8        1.0  0.45610  0.73910  0.76610  1.0000 0.119351885
H   H9        1.0  0.73910  0.76610  0.45610  1.0000 0.119351885
H   H10       1.0  0.73390  0.76090  0.04390  1.0000 0.119351885
H   H11       1.0  0.04390  0.73390  0.76090  1.0000 0.119351885
H   H12       1.0  0.76090  0.04390  0.73390  1.0000 0.119351885
H   H13       1.0  0.18940  0.65160  0.29220  1.0000 0.119351885
H   H14       1.0  0.65160  0.29220  0.18940  1.0000 0.119351885
H   H15       1.0  0.29220  0.18940  0.65160  1.0000 0.119351885
H   H16       1.0  0.31060  0.20780  0.84840  1.0000 0.119351885
H   H17       1.0  0.84840  0.31060  0.20780  1.0000 0.119351885
H   H18       1.0  0.20780  0.84840  0.31060  1.0000 0.119351885
H   H19       1.0  0.81060  0.34840  0.70780  1.0000 0.119351885
H   H20       1.0  0.34840  0.70780  0.81060  1.0000 0.119351885
H   H21       1.0  0.70780  0.81060  0.34840  1.0000 0.119351885
H   H22       1.0  0.68940  0.79220  0.15160  1.0000 0.119351885
H   H23       1.0  0.15160  0.68940  0.79220  1.0000 0.119351885
H   H24       1.0  0.79220  0.15160  0.68940  1.0000 0.119351885
H   H25       1.0  0.13840  0.58780  0.47150  1.0000 0.1101225219
H   H26       1.0  0.58780  0.47150  0.13840  1.0000 0.1101225219
H   H27       1.0  0.47150  0.13840  0.58780  1.0000 0.1101225219
H   H28       1.0  0.36160  0.02850  0.91220  1.0000 0.1101225219
H   H29       1.0  0.91220  0.36160  0.02850  1.0000 0.1101225219
H   H30       1.0  0.02850  0.91220  0.36160  1.0000 0.1101225219
H   H31       1.0  0.86160  0.41220  0.52850  1.0000 0.1101225219
H   H32       1.0  0.41220  0.52850  0.86160  1.0000 0.1101225219
H   H33       1.0  0.52850  0.86160  0.41220  1.0000 0.1101225219
H   H34       1.0  0.63840  0.97150  0.08780  1.0000 0.1101225219
H   H35       1.0  0.08780  0.63840  0.97150  1.0000 0.1101225219
H   H36       1.0  0.97150  0.08780  0.63840  1.0000 0.1101225219
H   H37       1.0  0.17540  0.47750  0.43650  1.0000 0.119351885
H   H38       1.0  0.47750  0.43650  0.17540  1.0000 0.119351885
H   H39       1.0  0.43650  0.17540  0.47750  1.0000 0.119351885
H   H40       1.0  0.32460  0.06350  0.02250  1.0000 0.119351885
H   H41       1.0  0.02250  0.32460  0.06350  1.0000 0.119351885
H   H42       1.0  0.06350  0.02250  0.32460  1.0000 0.119351885
H   H43       1.0  0.82460  0.52250  0.56350  1.0000 0.119351885
H   H44       1.0  0.52250  0.56350  0.82460  1.0000 0.119351885
H   H45       1.0  0.56350  0.82460  0.52250  1.0000 0.119351885
H   H46       1.0  0.67540  0.93650  0.97750  1.0000 0.119351885
H   H47       1.0  0.97750  0.67540  0.93650  1.0000 0.119351885
H   H48       1.0  0.93650  0.97750  0.67540  1.0000 0.119351885
H   H49       1.0  0.05870  0.64860  0.46610  1.0000 0.1101225219
H   H50       1.0  0.64860  0.46610  0.05870  1.0000 0.1101225219
H   H51       1.0  0.46610  0.05870  0.64860  1.0000 0.1101225219
H   H52       1.0  0.44130  0.03390  0.85140  1.0000 0.1101225219
H   H53       1.0  0.85140  0.44130  0.03390  1.0000 0.1101225219
H   H54       1.0  0.03390  0.85140  0.44130  1.0000 0.1101225219
H   H55       1.0  0.94130  0.35140  0.53390  1.0000 0.1101225219
H   H56       1.0  0.35140  0.53390  0.94130  1.0000 0.1101225219
H   H57       1.0  0.53390  0.94130  0.35140  1.0000 0.1101225219
H   H58       1.0  0.55870  0.96610  0.14860  1.0000 0.1101225219
H   H59       1.0  0.14860  0.55870  0.96610  1.0000 0.1101225219
H   H60       1.0  0.96610  0.14860  0.55870  1.0000 0.1101225219
H   H61       1.0  0.94230  0.83540  0.48810  1.0000 0.1266810372
H   H62       1.0  0.83540  0.48810  0.94230  1.0000 0.1266810372
H   H63       1.0  0.48810  0.94230  0.83540  1.0000 0.1266810372
H   H64       1.0  0.55770  0.01190  0.66460  1.0000 0.1266810372
H   H65       1.0  0.66460  0.55770  0.01190  1.0000 0.1266810372
H   H66       1.0  0.01190  0.66460  0.55770  1.0000 0.1266810372
H   H67       1.0  0.05770  0.16460  0.51190  1.0000 0.1266810372
H   H68       1.0  0.16460  0.51190  0.05770  1.0000 0.1266810372
H   H69       1.0  0.51190  0.05770  0.16460  1.0000 0.1266810372
H   H70       1.0  0.44230  0.98810  0.33540  1.0000 0.1266810372
H   H71       1.0  0.33540  0.44230  0.98810  1.0000 0.1266810372
H   H72       1.0  0.98810  0.33540  0.44230  1.0000 0.1266810372
H   H73       1.0  0.86480  0.83370  0.56940  1.0000 0.1101225219
H   H74       1.0  0.83370  0.56940  0.86480  1.0000 0.1101225219
H   H75       1.0  0.56940  0.86480  0.83370  1.0000 0.1101225219
H   H76       1.0  0.63520  0.93060  0.66630  1.0000 0.1101225219
H   H77       1.0  0.66630  0.63520  0.93060  1.0000 0.1101225219
H   H78       1.0  0.93060  0.66630  0.63520  1.0000 0.1101225219
H   H79       1.0  0.13520  0.16630  0.43060  1.0000 0.1101225219
H   H80       1.0  0.16630  0.43060  0.13520  1.0000 0.1101225219
H   H81       1.0  0.43060  0.13520  0.16630  1.0000 0.1101225219
H   H82       1.0  0.36480  0.06940  0.33370  1.0000 0.1101225219
H   H83       1.0  0.33370  0.36480  0.06940  1.0000 0.1101225219
H   H84       1.0  0.06940  0.33370  0.36480  1.0000 0.1101225219
H   H85       1.0  0.79267  0.79267  0.79267  1.0000 0.3736766862
H   H86       1.0  0.70733  0.70733  0.70733  1.0000 0.3736766862
H   H87       1.0  0.20733  0.20733  0.20733  1.0000 0.3736766862
H   H88       1.0  0.29267  0.29267  0.29267  1.0000 0.3736766862
C   C1        1.0  0.22500  0.42200  0.31790  1.0000 0.5775958684
C   C2        1.0  0.42200  0.31790  0.22500  1.0000 0.5775958684
C   C3        1.0  0.31790  0.22500  0.42200  1.0000 0.5775958684
C   C4        1.0  0.27500  0.18210  0.07800  1.0000 0.5775958684
C   C5        1.0  0.07800  0.27500  0.18210  1.0000 0.5775958684
C   C6        1.0  0.18210  0.07800  0.27500  1.0000 0.5775958684
C   C7        1.0  0.77500  0.57800  0.68210  1.0000 0.5775958684
C   C8        1.0  0.57800  0.68210  0.77500  1.0000 0.5775958684
C   C9        1.0  0.68210  0.77500  0.57800  1.0000 0.5775958684
C   C10       1.0  0.72500  0.81790  0.92200  1.0000 0.5775958684
C   C11       1.0  0.92200  0.72500  0.81790  1.0000 0.5775958684
C   C12       1.0  0.81790  0.92200  0.72500  1.0000 0.5775958684
C   C13       1.0  0.20480  0.49620  0.34160  1.0000 -0.018531759
C   C14       1.0  0.49620  0.34160  0.20480  1.0000 -0.018531759
C   C15       1.0  0.34160  0.20480  0.49620  1.0000 -0.018531759
C   C16       1.0  0.29520  0.15840  0.00380  1.0000 -0.018531759
C   C17       1.0  0.00380  0.29520  0.15840  1.0000 -0.018531759
C   C18       1.0  0.15840  0.00380  0.29520  1.0000 -0.018531759
C   C19       1.0  0.79520  0.50380  0.65840  1.0000 -0.018531759
C   C20       1.0  0.50380  0.65840  0.79520  1.0000 -0.018531759
C   C21       1.0  0.65840  0.79520  0.50380  1.0000 -0.018531759
C   C22       1.0  0.70480  0.84160  0.99620  1.0000 -0.018531759
C   C23       1.0  0.99620  0.70480  0.84160  1.0000 -0.018531759
C   C24       1.0  0.84160  0.99620  0.70480  1.0000 -0.018531759
C   C25       1.0  0.21130  0.55060  0.30200  1.0000 -0.1078526763
C   C26       1.0  0.55060  0.30200  0.21130  1.0000 -0.1078526763
C   C27       1.0  0.30200  0.21130  0.55060  1.0000 -0.1078526763
C   C28       1.0  0.28870  0.19800  0.94940  1.0000 -0.1078526763
C   C29       1.0  0.94940  0.28870  0.19800  1.0000 -0.1078526763
C   C30       1.0  0.19800  0.94940  0.28870  1.0000 -0.1078526763
C   C31       1.0  0.78870  0.44940  0.69800  1.0000 -0.1078526763
C   C32       1.0  0.44940  0.69800  0.78870  1.0000 -0.1078526763
C   C33       1.0  0.69800  0.78870  0.44940  1.0000 -0.1078526763
C   C34       1.0  0.71130  0.80200  0.05060  1.0000 -0.1078526763
C   C35       1.0  0.05060  0.71130  0.80200  1.0000 -0.1078526763
C   C36       1.0  0.80200  0.05060  0.71130  1.0000 -0.1078526763
C   C37       1.0  0.18520  0.61550  0.32110  1.0000 -0.1272282216
C   C38       1.0  0.61550  0.32110  0.18520  1.0000 -0.1272282216
C   C39       1.0  0.32110  0.18520  0.61550  1.0000 -0.1272282216
C   C40       1.0  0.31480  0.17890  0.88450  1.0000 -0.1272282216
C   C41       1.0  0.88450  0.31480  0.17890  1.0000 -0.1272282216
C   C42       1.0  0.17890  0.88450  0.31480  1.0000 -0.1272282216
C   C43       1.0  0.81480  0.38450  0.67890  1.0000 -0.1272282216
C   C44       1.0  0.38450  0.67890  0.81480  1.0000 -0.1272282216
C   C45       1.0  0.67890  0.81480  0.38450  1.0000 -0.1272282216
C   C46       1.0  0.68520  0.82110  0.11550  1.0000 -0.1272282216
C   C47       1.0  0.11550  0.68520  0.82110  1.0000 -0.1272282216
C   C48       1.0  0.82110  0.11550  0.68520  1.0000 -0.1272282216
C   C49       1.0  0.15350  0.62760  0.38120  1.0000 0.0471886992
C   C50       1.0  0.62760  0.38120  0.15350  1.0000 0.0471886992
C   C51       1.0  0.38120  0.15350  0.62760  1.0000 0.0471886992
C   C52       1.0  0.34650  0.11880  0.87240  1.0000 0.0471886992
C   C53       1.0  0.87240  0.34650  0.11880  1.0000 0.0471886992
C   C54       1.0  0.11880  0.87240  0.34650  1.0000 0.0471886992
C   C55       1.0  0.84650  0.37240  0.61880  1.0000 0.0471886992
C   C56       1.0  0.37240  0.61880  0.84650  1.0000 0.0471886992
C   C57       1.0  0.61880  0.84650  0.37240  1.0000 0.0471886992
C   C58       1.0  0.65350  0.88120  0.12760  1.0000 0.0471886992
C   C59       1.0  0.12760  0.65350  0.88120  1.0000 0.0471886992
C   C60       1.0  0.88120  0.12760  0.65350  1.0000 0.0471886992
C   C61       1.0  0.15440  0.57710  0.42600  1.0000 -0.1517239437
C   C62       1.0  0.57710  0.42600  0.15440  1.0000 -0.1517239437
C   C63       1.0  0.42600  0.15440  0.57710  1.0000 -0.1517239437
C   C64       1.0  0.34560  0.07400  0.92290  1.0000 -0.1517239437
C   C65       1.0  0.92290  0.34560  0.07400  1.0000 -0.1517239437
C   C66       1.0  0.07400  0.92290  0.34560  1.0000 -0.1517239437
C   C67       1.0  0.84560  0.42290  0.57400  1.0000 -0.1517239437
C   C68       1.0  0.42290  0.57400  0.84560  1.0000 -0.1517239437
C   C69       1.0  0.57400  0.84560  0.42290  1.0000 -0.1517239437
C   C70       1.0  0.65440  0.92600  0.07710  1.0000 -0.1517239437
C   C71       1.0  0.07710  0.65440  0.92600  1.0000 -0.1517239437
C   C72       1.0  0.92600  0.07710  0.65440  1.0000 -0.1517239437
C   C73       1.0  0.17770  0.51210  0.40590  1.0000 -0.1078526763
C   C74       1.0  0.51210  0.40590  0.17770  1.0000 -0.1078526763
C   C75       1.0  0.40590  0.17770  0.51210  1.0000 -0.1078526763
C   C76       1.0  0.32230  0.09410  0.98790  1.0000 -0.1078526763
C   C77       1.0  0.98790  0.32230  0.09410  1.0000 -0.1078526763
C   C78       1.0  0.09410  0.98790  0.32230  1.0000 -0.1078526763
C   C79       1.0  0.82230  0.48790  0.59410  1.0000 -0.1078526763
C   C80       1.0  0.48790  0.59410  0.82230  1.0000 -0.1078526763
C   C81       1.0  0.59410  0.82230  0.48790  1.0000 -0.1078526763
C   C82       1.0  0.67770  0.90590  0.01210  1.0000 -0.1078526763
C   C83       1.0  0.01210  0.67770  0.90590  1.0000 -0.1078526763
C   C84       1.0  0.90590  0.01210  0.67770  1.0000 -0.1078526763
C   C85       1.0  0.11870  0.69220  0.39790  1.0000 0.2241987275
C   C86       1.0  0.69220  0.39790  0.11870  1.0000 0.2241987275
C   C87       1.0  0.39790  0.11870  0.69220  1.0000 0.2241987275
C   C88       1.0  0.38130  0.10210  0.80780  1.0000 0.2241987275
C   C89       1.0  0.80780  0.38130  0.10210  1.0000 0.2241987275
C   C90       1.0  0.10210  0.80780  0.38130  1.0000 0.2241987275
C   C91       1.0  0.88130  0.30780  0.60210  1.0000 0.2241987275
C   C92       1.0  0.30780  0.60210  0.88130  1.0000 0.2241987275
C   C93       1.0  0.60210  0.88130  0.30780  1.0000 0.2241987275
C   C94       1.0  0.61870  0.89790  0.19220  1.0000 0.2241987275
C   C95       1.0  0.19220  0.61870  0.89790  1.0000 0.2241987275
C   C96       1.0  0.89790  0.19220  0.61870  1.0000 0.2241987275
C   C97       1.0  0.06990  0.69080  0.44540  1.0000 -0.2460727406
C   C98       1.0  0.69080  0.44540  0.06990  1.0000 -0.2460727406
C   C99       1.0  0.44540  0.06990  0.69080  1.0000 -0.2460727406
C   C100      1.0  0.43010  0.05460  0.80920  1.0000 -0.2460727406
C   C101      1.0  0.80920  0.43010  0.05460  1.0000 -0.2460727406
C   C102      1.0  0.05460  0.80920  0.43010  1.0000 -0.2460727406
C   C103      1.0  0.93010  0.30920  0.55460  1.0000 -0.2460727406
C   C104      1.0  0.30920  0.55460  0.93010  1.0000 -0.2460727406
C   C105      1.0  0.55460  0.93010  0.30920  1.0000 -0.2460727406
C   C106      1.0  0.56990  0.94540  0.19080  1.0000 -0.2460727406
C   C107      1.0  0.19080  0.56990  0.94540  1.0000 -0.2460727406
C   C108      1.0  0.94540  0.19080  0.56990  1.0000 -0.2460727406
C   C109      1.0  0.03815  0.75000  0.46185  1.0000 0.101733759
C   C110      1.0  0.75000  0.46185  0.03815  1.0000 0.101733759
C   C111      1.0  0.46185  0.03815  0.75000  1.0000 0.101733759
C   C112      1.0  0.96185  0.25000  0.53815  1.0000 0.101733759
C   C113      1.0  0.25000  0.53815  0.96185  1.0000 0.101733759
C   C114      1.0  0.53815  0.96185  0.25000  1.0000 0.101733759
C   C115      1.0  0.98675  0.75000  0.51325  1.0000 0.119351885
C   C116      1.0  0.75000  0.51325  0.98675  1.0000 0.119351885
C   C117      1.0  0.51325  0.98675  0.75000  1.0000 0.119351885
C   C118      1.0  0.01325  0.25000  0.48675  1.0000 0.119351885
C   C119      1.0  0.25000  0.48675  0.01325  1.0000 0.119351885
C   C120      1.0  0.48675  0.01325  0.25000  1.0000 0.119351885
C   C121      1.0  0.94130  0.80010  0.51810  1.0000 -0.2003309926
C   C122      1.0  0.80010  0.51810  0.94130  1.0000 -0.2003309926
C   C123      1.0  0.51810  0.94130  0.80010  1.0000 -0.2003309926
C   C124      1.0  0.55870  0.98190  0.69990  1.0000 -0.2003309926
C   C125      1.0  0.69990  0.55870  0.98190  1.0000 -0.2003309926
C   C126      1.0  0.98190  0.69990  0.55870  1.0000 -0.2003309926
C   C127      1.0  0.05870  0.19990  0.48190  1.0000 -0.2003309926
C   C128      1.0  0.19990  0.48190  0.05870  1.0000 -0.2003309926
C   C129      1.0  0.48190  0.05870  0.19990  1.0000 -0.2003309926
C   C130      1.0  0.44130  0.01810  0.30010  1.0000 -0.2003309926
C   C131      1.0  0.30010  0.44130  0.01810  1.0000 -0.2003309926
C   C132      1.0  0.01810  0.30010  0.44130  1.0000 -0.2003309926
C   C133      1.0  0.89500  0.79860  0.56650  1.0000 0.101733759
C   C134      1.0  0.79860  0.56650  0.89500  1.0000 0.101733759
C   C135      1.0  0.56650  0.89500  0.79860  1.0000 0.101733759
C   C136      1.0  0.60500  0.93350  0.70140  1.0000 0.101733759
C   C137      1.0  0.70140  0.60500  0.93350  1.0000 0.101733759
C   C138      1.0  0.93350  0.70140  0.60500  1.0000 0.101733759
C   C139      1.0  0.10500  0.20140  0.43350  1.0000 0.101733759
C   C140      1.0  0.20140  0.43350  0.10500  1.0000 0.101733759
C   C141      1.0  0.43350  0.10500  0.20140  1.0000 0.101733759
C   C142      1.0  0.39500  0.06650  0.29860  1.0000 0.101733759
C   C143      1.0  0.29860  0.39500  0.06650  1.0000 0.101733759
C   C144      1.0  0.06650  0.29860  0.39500  1.0000 0.101733759
N   N1        1.0  0.89045  0.75000  0.60955  1.0000 -0.1854661319
N   N2        1.0  0.75000  0.60955  0.89045  1.0000 -0.1854661319
N   N3        1.0  0.60955  0.89045  0.75000  1.0000 -0.1854661319
N   N4        1.0  0.10955  0.25000  0.39045  1.0000 -0.1854661319
N   N5        1.0  0.25000  0.39045  0.10955  1.0000 -0.1854661319
N   N6        1.0  0.39045  0.10955  0.25000  1.0000 -0.1854661319
N   N7        1.0  0.13445  0.75000  0.36555  1.0000 -0.3402535531
N   N8        1.0  0.75000  0.36555  0.13445  1.0000 -0.3402535531
N   N9        1.0  0.36555  0.13445  0.75000  1.0000 -0.3402535531
N   N10       1.0  0.86555  0.25000  0.63445  1.0000 -0.3402535531
N   N11       1.0  0.25000  0.63445  0.86555  1.0000 -0.3402535531
N   N12       1.0  0.63445  0.86555  0.25000  1.0000 -0.3402535531
O   O1        1.0  0.75000  0.75000  0.75000  1.0000 -0.6967492116
O   O2        1.0  0.25000  0.25000  0.25000  1.0000 -0.6967492116
O   O3        1.0  0.26244  0.41693  0.26903  1.0000 -0.5486650778
O   O4        1.0  0.41693  0.26903  0.26244  1.0000 -0.5486650778
O   O5        1.0  0.26903  0.26244  0.41693  1.0000 -0.5486650778
O   O6        1.0  0.23756  0.23097  0.08307  1.0000 -0.5486650778
O   O7        1.0  0.08307  0.23756  0.23097  1.0000 -0.5486650778
O   O8        1.0  0.23097  0.08307  0.23756  1.0000 -0.5486650778
O   O9        1.0  0.73756  0.58307  0.73097  1.0000 -0.5486650778
O   O10       1.0  0.58307  0.73097  0.73756  1.0000 -0.5486650778
O   O11       1.0  0.73097  0.73756  0.58307  1.0000 -0.5486650778
O   O12       1.0  0.76244  0.76903  0.91693  1.0000 -0.5486650778
O   O13       1.0  0.91693  0.76244  0.76903  1.0000 -0.5486650778
O   O14       1.0  0.76903  0.91693  0.76244  1.0000 -0.5486650778
O   O15       1.0  0.20200  0.36993  0.34737  1.0000 -0.5550855709
O   O16       1.0  0.36993  0.34737  0.20200  1.0000 -0.5550855709
O   O17       1.0  0.34737  0.20200  0.36993  1.0000 -0.5550855709
O   O18       1.0  0.29800  0.15263  0.13007  1.0000 -0.5550855709
O   O19       1.0  0.13007  0.29800  0.15263  1.0000 -0.5550855709
O   O20       1.0  0.15263  0.13007  0.29800  1.0000 -0.5550855709
O   O21       1.0  0.79800  0.63007  0.65263  1.0000 -0.5550855709
O   O22       1.0  0.63007  0.65263  0.79800  1.0000 -0.5550855709
O   O23       1.0  0.65263  0.79800  0.63007  1.0000 -0.5550855709
O   O24       1.0  0.70200  0.84737  0.86993  1.0000 -0.5550855709
O   O25       1.0  0.86993  0.70200  0.84737  1.0000 -0.5550855709
O   O26       1.0  0.84737  0.86993  0.70200  1.0000 -0.5550855709
