# DDEC6 charges by PACMAN v1.1 (https://github.com/mtap-research/PACMAN-charge/)
data_2013[Cd][nan]3[ASR]19
_chemical_formula_sum              "Cd12 H224 C320 N40 O56"
_cell_length_a       24.1977
_cell_length_b       13.953
_cell_length_c       25.1006
_cell_angle_alpha    90
_cell_angle_beta     96.677
_cell_angle_gamma    90

_symmetry_space_group_name_H-M    "P 1"
_symmetry_Int_Tables_number       1

loop_
  _symmetry_equiv_pos_as_xyz
  'x, y, z'

loop_
  _atom_site_type_symbol
  _atom_site_label
  _atom_site_symmetry_multiplicity
  _atom_site_fract_x
  _atom_site_fract_y
  _atom_site_fract_z
  _atom_site_occupancy
  _atom_site_charge
Cd  Cd1       1.0  0.00000  0.27818  0.25000  1.0000 0.7965956534
Cd  Cd2       1.0  0.00000  0.72182  0.75000  1.0000 0.7965956534
Cd  Cd3       1.0  0.50000  0.77818  0.25000  1.0000 0.7965956534
Cd  Cd4       1.0  0.50000  0.22182  0.75000  1.0000 0.7965956534
Cd  Cd5       1.0  0.23104  0.23445  0.92170  1.0000 0.8813439662
Cd  Cd6       1.0  0.76896  0.76555  0.07830  1.0000 0.8813439662
Cd  Cd7       1.0  0.76896  0.23445  0.57830  1.0000 0.8813439662
Cd  Cd8       1.0  0.23104  0.76555  0.42170  1.0000 0.8813439662
Cd  Cd9       1.0  0.73104  0.73445  0.92170  1.0000 0.8813439662
Cd  Cd10      1.0  0.26896  0.26555  0.07830  1.0000 0.8813439662
Cd  Cd11      1.0  0.26896  0.73445  0.57830  1.0000 0.8813439662
Cd  Cd12      1.0  0.73104  0.26555  0.42170  1.0000 0.8813439662
H   H1        1.0  0.06557  0.23914  0.78063  1.0000 0.1017777748
H   H2        1.0  0.93443  0.76086  0.21937  1.0000 0.1017777748
H   H3        1.0  0.93443  0.23914  0.71937  1.0000 0.1017777748
H   H4        1.0  0.06557  0.76086  0.28063  1.0000 0.1017777748
H   H5        1.0  0.56557  0.73914  0.78063  1.0000 0.1017777748
H   H6        1.0  0.43443  0.26086  0.21937  1.0000 0.1017777748
H   H7        1.0  0.43443  0.73914  0.71937  1.0000 0.1017777748
H   H8        1.0  0.56557  0.26086  0.28063  1.0000 0.1017777748
H   H9        1.0  0.02528  0.24617  0.68525  1.0000 0.0846981425
H   H10       1.0  0.97472  0.75383  0.31475  1.0000 0.0846981425
H   H11       1.0  0.97472  0.24617  0.81475  1.0000 0.0846981425
H   H12       1.0  0.02528  0.75383  0.18525  1.0000 0.0846981425
H   H13       1.0  0.52528  0.74617  0.68525  1.0000 0.0846981425
H   H14       1.0  0.47472  0.25383  0.31475  1.0000 0.0846981425
H   H15       1.0  0.47472  0.74617  0.81475  1.0000 0.0846981425
H   H16       1.0  0.52528  0.25383  0.18525  1.0000 0.0846981425
H   H17       1.0  0.19155  0.23689  0.63680  1.0000 0.1017777748
H   H18       1.0  0.80845  0.76311  0.36320  1.0000 0.1017777748
H   H19       1.0  0.80845  0.23689  0.86320  1.0000 0.1017777748
H   H20       1.0  0.19155  0.76311  0.13680  1.0000 0.1017777748
H   H21       1.0  0.69155  0.73689  0.63680  1.0000 0.1017777748
H   H22       1.0  0.30845  0.26311  0.36320  1.0000 0.1017777748
H   H23       1.0  0.30845  0.73689  0.86320  1.0000 0.1017777748
H   H24       1.0  0.69155  0.26311  0.13680  1.0000 0.1017777748
H   H25       1.0  0.23123  0.23058  0.73388  1.0000 0.1125651496
H   H26       1.0  0.76877  0.76942  0.26612  1.0000 0.1125651496
H   H27       1.0  0.76877  0.23058  0.76612  1.0000 0.1125651496
H   H28       1.0  0.23123  0.76942  0.23388  1.0000 0.1125651496
H   H29       1.0  0.73123  0.73058  0.73388  1.0000 0.1125651496
H   H30       1.0  0.26877  0.26942  0.26612  1.0000 0.1125651496
H   H31       1.0  0.26877  0.73058  0.76612  1.0000 0.1125651496
H   H32       1.0  0.73123  0.26942  0.23388  1.0000 0.1125651496
H   H33       1.0  0.92067  0.24263  0.56202  1.0000 0.1217616348
H   H34       1.0  0.07933  0.75737  0.43798  1.0000 0.1217616348
H   H35       1.0  0.07933  0.24263  0.93798  1.0000 0.1217616348
H   H36       1.0  0.92067  0.75737  0.06202  1.0000 0.1217616348
H   H37       1.0  0.42067  0.74263  0.56202  1.0000 0.1217616348
H   H38       1.0  0.57933  0.25737  0.43798  1.0000 0.1217616348
H   H39       1.0  0.57933  0.74263  0.93798  1.0000 0.1217616348
H   H40       1.0  0.42067  0.25737  0.06202  1.0000 0.1217616348
H   H41       1.0  0.91447  0.26674  0.39030  1.0000 0.1125651496
H   H42       1.0  0.08553  0.73326  0.60970  1.0000 0.1125651496
H   H43       1.0  0.08553  0.26674  0.10970  1.0000 0.1125651496
H   H44       1.0  0.91447  0.73326  0.89030  1.0000 0.1125651496
H   H45       1.0  0.41447  0.76674  0.39030  1.0000 0.1125651496
H   H46       1.0  0.58553  0.23326  0.60970  1.0000 0.1125651496
H   H47       1.0  0.58553  0.76674  0.10970  1.0000 0.1125651496
H   H48       1.0  0.41447  0.23326  0.89030  1.0000 0.1125651496
H   H49       1.0  0.07362  0.26218  0.48723  1.0000 0.1275686311
H   H50       1.0  0.92638  0.73782  0.51277  1.0000 0.1275686311
H   H51       1.0  0.92638  0.26218  0.01277  1.0000 0.1275686311
H   H52       1.0  0.07362  0.73782  0.98723  1.0000 0.1275686311
H   H53       1.0  0.57362  0.76218  0.48723  1.0000 0.1275686311
H   H54       1.0  0.42638  0.23782  0.51277  1.0000 0.1275686311
H   H55       1.0  0.42638  0.76218  0.01277  1.0000 0.1275686311
H   H56       1.0  0.57362  0.23782  0.98723  1.0000 0.1275686311
H   H57       1.0  0.30769  0.04698  0.92462  1.0000 0.0906468706
H   H58       1.0  0.69231  0.95302  0.07538  1.0000 0.0906468706
H   H59       1.0  0.69231  0.04698  0.57538  1.0000 0.0906468706
H   H60       1.0  0.30769  0.95302  0.42462  1.0000 0.0906468706
H   H61       1.0  0.80769  0.54698  0.92462  1.0000 0.0906468706
H   H62       1.0  0.19231  0.45302  0.07538  1.0000 0.0906468706
H   H63       1.0  0.19231  0.54698  0.57538  1.0000 0.0906468706
H   H64       1.0  0.80769  0.45302  0.42462  1.0000 0.0906468706
H   H65       1.0  0.29956  0.86809  0.92584  1.0000 0.1217616348
H   H66       1.0  0.70044  0.13191  0.07416  1.0000 0.1217616348
H   H67       1.0  0.70044  0.86809  0.57416  1.0000 0.1217616348
H   H68       1.0  0.29956  0.13191  0.42584  1.0000 0.1217616348
H   H69       1.0  0.79956  0.36809  0.92584  1.0000 0.1217616348
H   H70       1.0  0.20044  0.63191  0.07416  1.0000 0.1217616348
H   H71       1.0  0.20044  0.36809  0.57416  1.0000 0.1217616348
H   H72       1.0  0.79956  0.63191  0.42584  1.0000 0.1217616348
H   H73       1.0  0.12164  0.90291  0.93023  1.0000 0.1275686311
H   H74       1.0  0.87836  0.09709  0.06977  1.0000 0.1275686311
H   H75       1.0  0.87836  0.90291  0.56977  1.0000 0.1275686311
H   H76       1.0  0.12164  0.09709  0.43023  1.0000 0.1275686311
H   H77       1.0  0.62164  0.40291  0.93023  1.0000 0.1275686311
H   H78       1.0  0.37836  0.59709  0.06977  1.0000 0.1275686311
H   H79       1.0  0.37836  0.40291  0.56977  1.0000 0.1275686311
H   H80       1.0  0.62164  0.59709  0.43023  1.0000 0.1275686311
H   H81       1.0  0.13827  0.08298  0.93223  1.0000 0.0906468706
H   H82       1.0  0.86173  0.91702  0.06777  1.0000 0.0906468706
H   H83       1.0  0.86173  0.08298  0.56777  1.0000 0.0906468706
H   H84       1.0  0.13827  0.91702  0.43223  1.0000 0.0906468706
H   H85       1.0  0.63827  0.58298  0.93223  1.0000 0.0906468706
H   H86       1.0  0.36173  0.41702  0.06777  1.0000 0.0906468706
H   H87       1.0  0.36173  0.58298  0.56777  1.0000 0.0906468706
H   H88       1.0  0.63827  0.41702  0.43223  1.0000 0.0906468706
H   H89       1.0  0.15705  0.74406  0.91981  1.0000 0.1275686311
H   H90       1.0  0.84295  0.25594  0.08019  1.0000 0.1275686311
H   H91       1.0  0.84295  0.74406  0.58019  1.0000 0.1275686311
H   H92       1.0  0.15705  0.25594  0.41981  1.0000 0.1275686311
H   H93       1.0  0.65705  0.24406  0.91981  1.0000 0.1275686311
H   H94       1.0  0.34295  0.75594  0.08019  1.0000 0.1275686311
H   H95       1.0  0.34295  0.24406  0.58019  1.0000 0.1275686311
H   H96       1.0  0.65705  0.75594  0.41981  1.0000 0.1275686311
H   H97       1.0  0.28600  0.72781  0.94239  1.0000 0.1017777748
H   H98       1.0  0.71400  0.27219  0.05761  1.0000 0.1017777748
H   H99       1.0  0.71400  0.72781  0.55761  1.0000 0.1017777748
H   H100      1.0  0.28600  0.27219  0.44239  1.0000 0.1017777748
H   H101      1.0  0.78600  0.22781  0.94239  1.0000 0.1017777748
H   H102      1.0  0.21400  0.77219  0.05761  1.0000 0.1017777748
H   H103      1.0  0.21400  0.22781  0.55761  1.0000 0.1017777748
H   H104      1.0  0.78600  0.77219  0.44239  1.0000 0.1017777748
H   H105      1.0  0.14347  0.41343  0.92742  1.0000 0.0906468706
H   H106      1.0  0.85653  0.58657  0.07258  1.0000 0.0906468706
H   H107      1.0  0.85653  0.41343  0.57258  1.0000 0.0906468706
H   H108      1.0  0.14347  0.58657  0.42742  1.0000 0.0906468706
H   H109      1.0  0.64347  0.91343  0.92742  1.0000 0.0906468706
H   H110      1.0  0.35653  0.08657  0.07258  1.0000 0.0906468706
H   H111      1.0  0.35653  0.91343  0.57258  1.0000 0.0906468706
H   H112      1.0  0.64347  0.08657  0.42742  1.0000 0.0906468706
H   H113      1.0  0.14587  0.59317  0.93330  1.0000 0.1275686311
H   H114      1.0  0.85413  0.40683  0.06670  1.0000 0.1275686311
H   H115      1.0  0.85413  0.59317  0.56670  1.0000 0.1275686311
H   H116      1.0  0.14587  0.40683  0.43330  1.0000 0.1275686311
H   H117      1.0  0.64587  0.09317  0.93330  1.0000 0.1275686311
H   H118      1.0  0.35413  0.90683  0.06670  1.0000 0.1275686311
H   H119      1.0  0.35413  0.09317  0.56670  1.0000 0.1275686311
H   H120      1.0  0.64587  0.90683  0.43330  1.0000 0.1275686311
H   H121      1.0  0.32422  0.57843  0.92682  1.0000 0.1217616348
H   H122      1.0  0.67578  0.42157  0.07318  1.0000 0.1217616348
H   H123      1.0  0.67578  0.57843  0.57318  1.0000 0.1217616348
H   H124      1.0  0.32422  0.42157  0.42682  1.0000 0.1217616348
H   H125      1.0  0.82422  0.07843  0.92682  1.0000 0.1217616348
H   H126      1.0  0.17578  0.92157  0.07318  1.0000 0.1217616348
H   H127      1.0  0.17578  0.07843  0.57318  1.0000 0.1217616348
H   H128      1.0  0.82422  0.92157  0.42682  1.0000 0.1217616348
H   H129      1.0  0.31390  0.39856  0.91729  1.0000 0.0906468706
H   H130      1.0  0.68610  0.60144  0.08271  1.0000 0.0906468706
H   H131      1.0  0.68610  0.39856  0.58271  1.0000 0.0906468706
H   H132      1.0  0.31390  0.60144  0.41729  1.0000 0.0906468706
H   H133      1.0  0.81390  0.89856  0.91729  1.0000 0.0906468706
H   H134      1.0  0.18610  0.10144  0.08271  1.0000 0.0906468706
H   H135      1.0  0.18610  0.89856  0.58271  1.0000 0.0906468706
H   H136      1.0  0.81390  0.10144  0.41729  1.0000 0.0906468706
H   H137      1.0  0.00661  0.24280  0.61285  1.0000 0.272134831
H   H138      1.0  0.99339  0.75720  0.38715  1.0000 0.272134831
H   H139      1.0  0.99339  0.24280  0.88715  1.0000 0.272134831
H   H140      1.0  0.00661  0.75720  0.11285  1.0000 0.272134831
H   H141      1.0  0.50661  0.74280  0.61285  1.0000 0.272134831
H   H142      1.0  0.49339  0.25720  0.38715  1.0000 0.272134831
H   H143      1.0  0.49339  0.74280  0.88715  1.0000 0.272134831
H   H144      1.0  0.50661  0.25720  0.11285  1.0000 0.272134831
H   H145      1.0  0.23224  0.94976  0.30306  1.0000 0.1125651496
H   H146      1.0  0.76776  0.05024  0.69694  1.0000 0.1125651496
H   H147      1.0  0.76776  0.94976  0.19694  1.0000 0.1125651496
H   H148      1.0  0.23224  0.05024  0.80306  1.0000 0.1125651496
H   H149      1.0  0.73224  0.44976  0.30306  1.0000 0.1125651496
H   H150      1.0  0.26776  0.55024  0.69694  1.0000 0.1125651496
H   H151      1.0  0.26776  0.44976  0.19694  1.0000 0.1125651496
H   H152      1.0  0.73224  0.55024  0.80306  1.0000 0.1125651496
H   H153      1.0  0.26716  0.09153  0.21807  1.0000 0.1017777748
H   H154      1.0  0.73284  0.90847  0.78193  1.0000 0.1017777748
H   H155      1.0  0.73284  0.09153  0.28193  1.0000 0.1017777748
H   H156      1.0  0.26716  0.90847  0.71807  1.0000 0.1017777748
H   H157      1.0  0.76716  0.59153  0.21807  1.0000 0.1017777748
H   H158      1.0  0.23284  0.40847  0.78193  1.0000 0.1017777748
H   H159      1.0  0.23284  0.59153  0.28193  1.0000 0.1017777748
H   H160      1.0  0.76716  0.40847  0.71807  1.0000 0.1017777748
H   H161      1.0  0.44806  0.94430  0.33333  1.0000 0.0906468706
H   H162      1.0  0.55194  0.05570  0.66667  1.0000 0.0906468706
H   H163      1.0  0.55194  0.94430  0.16666  1.0000 0.0906468706
H   H164      1.0  0.44806  0.05570  0.83334  1.0000 0.0906468706
H   H165      1.0  0.94806  0.44430  0.33333  1.0000 0.0906468706
H   H166      1.0  0.05194  0.55570  0.66667  1.0000 0.0906468706
H   H167      1.0  0.05194  0.44430  0.16666  1.0000 0.0906468706
H   H168      1.0  0.94806  0.55570  0.83334  1.0000 0.0906468706
H   H169      1.0  0.35579  0.02774  0.33521  1.0000 0.1217616348
H   H170      1.0  0.64421  0.97226  0.66479  1.0000 0.1217616348
H   H171      1.0  0.64421  0.02774  0.16479  1.0000 0.1217616348
H   H172      1.0  0.35579  0.97226  0.83521  1.0000 0.1217616348
H   H173      1.0  0.85579  0.52774  0.33521  1.0000 0.1217616348
H   H174      1.0  0.14421  0.47226  0.66479  1.0000 0.1217616348
H   H175      1.0  0.14421  0.52774  0.16479  1.0000 0.1217616348
H   H176      1.0  0.85579  0.47226  0.83521  1.0000 0.1217616348
H   H177      1.0  0.31151  0.93528  0.17117  1.0000 0.1125651496
H   H178      1.0  0.68849  0.06472  0.82883  1.0000 0.1125651496
H   H179      1.0  0.68849  0.93528  0.32883  1.0000 0.1125651496
H   H180      1.0  0.31151  0.06472  0.67117  1.0000 0.1125651496
H   H181      1.0  0.81151  0.43528  0.17117  1.0000 0.1125651496
H   H182      1.0  0.18849  0.56472  0.82883  1.0000 0.1125651496
H   H183      1.0  0.18849  0.43528  0.32883  1.0000 0.1125651496
H   H184      1.0  0.81151  0.56472  0.67117  1.0000 0.1125651496
H   H185      1.0  0.40432  0.85394  0.17525  1.0000 0.0906468706
H   H186      1.0  0.59568  0.14606  0.82475  1.0000 0.0906468706
H   H187      1.0  0.59568  0.85394  0.32475  1.0000 0.0906468706
H   H188      1.0  0.40432  0.14606  0.67525  1.0000 0.0906468706
H   H189      1.0  0.90432  0.35394  0.17525  1.0000 0.0906468706
H   H190      1.0  0.09568  0.64606  0.82475  1.0000 0.0906468706
H   H191      1.0  0.09568  0.35394  0.32475  1.0000 0.0906468706
H   H192      1.0  0.90432  0.64606  0.67525  1.0000 0.0906468706
H   H193      1.0  0.11037  0.24736  0.19562  1.0000 0.0846981425
H   H194      1.0  0.88963  0.75264  0.80438  1.0000 0.0846981425
H   H195      1.0  0.88963  0.24736  0.30438  1.0000 0.0846981425
H   H196      1.0  0.11037  0.75264  0.69562  1.0000 0.0846981425
H   H197      1.0  0.61037  0.74736  0.19562  1.0000 0.0846981425
H   H198      1.0  0.38963  0.25264  0.80438  1.0000 0.0846981425
H   H199      1.0  0.38963  0.74736  0.30438  1.0000 0.0846981425
H   H200      1.0  0.61037  0.25264  0.69562  1.0000 0.0846981425
H   H201      1.0  0.20105  0.16610  0.20818  1.0000 0.1275686311
H   H202      1.0  0.79895  0.83390  0.79182  1.0000 0.1275686311
H   H203      1.0  0.79895  0.16610  0.29182  1.0000 0.1275686311
H   H204      1.0  0.20105  0.83390  0.70818  1.0000 0.1275686311
H   H205      1.0  0.70105  0.66610  0.20818  1.0000 0.1275686311
H   H206      1.0  0.29895  0.33390  0.79182  1.0000 0.1275686311
H   H207      1.0  0.29895  0.66610  0.29182  1.0000 0.1275686311
H   H208      1.0  0.70105  0.33390  0.70818  1.0000 0.1275686311
H   H209      1.0  0.13192  0.97137  0.31905  1.0000 0.1125651496
H   H210      1.0  0.86808  0.02863  0.68095  1.0000 0.1125651496
H   H211      1.0  0.86808  0.97137  0.18095  1.0000 0.1125651496
H   H212      1.0  0.13192  0.02863  0.81905  1.0000 0.1125651496
H   H213      1.0  0.63192  0.47137  0.31905  1.0000 0.1125651496
H   H214      1.0  0.36808  0.52863  0.68095  1.0000 0.1125651496
H   H215      1.0  0.36808  0.47137  0.18095  1.0000 0.1125651496
H   H216      1.0  0.63192  0.52863  0.81905  1.0000 0.1125651496
H   H217      1.0  0.04384  0.06883  0.30480  1.0000 0.0906468706
H   H218      1.0  0.95616  0.93117  0.69520  1.0000 0.0906468706
H   H219      1.0  0.95616  0.06883  0.19520  1.0000 0.0906468706
H   H220      1.0  0.04384  0.93117  0.80480  1.0000 0.0906468706
H   H221      1.0  0.54384  0.56883  0.30480  1.0000 0.0906468706
H   H222      1.0  0.45616  0.43117  0.69520  1.0000 0.0906468706
H   H223      1.0  0.45616  0.56883  0.19520  1.0000 0.0906468706
H   H224      1.0  0.54384  0.43117  0.80480  1.0000 0.0906468706
C   C1        1.0  0.15042  0.23496  0.76239  1.0000 -0.0150910636
C   C2        1.0  0.84958  0.76504  0.23761  1.0000 -0.0150910636
C   C3        1.0  0.84958  0.23496  0.73761  1.0000 -0.0150910636
C   C4        1.0  0.15042  0.76504  0.26239  1.0000 -0.0150910636
C   C5        1.0  0.65042  0.73496  0.76239  1.0000 -0.0150910636
C   C6        1.0  0.34958  0.26504  0.23761  1.0000 -0.0150910636
C   C7        1.0  0.34958  0.73496  0.73761  1.0000 -0.0150910636
C   C8        1.0  0.65042  0.26504  0.26239  1.0000 -0.0150910636
C   C9        1.0  0.09255  0.23849  0.74844  1.0000 -0.0883573249
C   C10       1.0  0.90745  0.76151  0.25156  1.0000 -0.0883573249
C   C11       1.0  0.90745  0.23849  0.75156  1.0000 -0.0883573249
C   C12       1.0  0.09255  0.76151  0.24844  1.0000 -0.0883573249
C   C13       1.0  0.59255  0.73849  0.74844  1.0000 -0.0883573249
C   C14       1.0  0.40745  0.26151  0.25156  1.0000 -0.0883573249
C   C15       1.0  0.40745  0.73849  0.75156  1.0000 -0.0883573249
C   C16       1.0  0.59255  0.26151  0.24844  1.0000 -0.0883573249
C   C17       1.0  0.07063  0.24202  0.69465  1.0000 -0.1224010626
C   C18       1.0  0.92937  0.75798  0.30535  1.0000 -0.1224010626
C   C19       1.0  0.92937  0.24202  0.80535  1.0000 -0.1224010626
C   C20       1.0  0.07063  0.75798  0.19465  1.0000 -0.1224010626
C   C21       1.0  0.57063  0.74202  0.69465  1.0000 -0.1224010626
C   C22       1.0  0.42937  0.25798  0.30535  1.0000 -0.1224010626
C   C23       1.0  0.42937  0.74202  0.80535  1.0000 -0.1224010626
C   C24       1.0  0.57063  0.25798  0.19465  1.0000 -0.1224010626
C   C25       1.0  0.10645  0.24176  0.65431  1.0000 -0.0443503914
C   C26       1.0  0.89355  0.75824  0.34569  1.0000 -0.0443503914
C   C27       1.0  0.89355  0.24176  0.84569  1.0000 -0.0443503914
C   C28       1.0  0.10645  0.75824  0.15431  1.0000 -0.0443503914
C   C29       1.0  0.60645  0.74176  0.65431  1.0000 -0.0443503914
C   C30       1.0  0.39355  0.25824  0.34569  1.0000 -0.0443503914
C   C31       1.0  0.39355  0.74176  0.84569  1.0000 -0.0443503914
C   C32       1.0  0.60645  0.25824  0.15431  1.0000 -0.0443503914
C   C33       1.0  0.16429  0.23701  0.66857  1.0000 -0.0954164762
C   C34       1.0  0.83571  0.76299  0.33143  1.0000 -0.0954164762
C   C35       1.0  0.83571  0.23701  0.83143  1.0000 -0.0954164762
C   C36       1.0  0.16429  0.76299  0.16857  1.0000 -0.0954164762
C   C37       1.0  0.66429  0.73701  0.66857  1.0000 -0.0954164762
C   C38       1.0  0.33571  0.26299  0.33143  1.0000 -0.0954164762
C   C39       1.0  0.33571  0.73701  0.83143  1.0000 -0.0954164762
C   C40       1.0  0.66429  0.26299  0.16857  1.0000 -0.0954164762
C   C41       1.0  0.18620  0.23367  0.72215  1.0000 -0.0883573249
C   C42       1.0  0.81380  0.76633  0.27785  1.0000 -0.0883573249
C   C43       1.0  0.81380  0.23367  0.77785  1.0000 -0.0883573249
C   C44       1.0  0.18620  0.76633  0.22215  1.0000 -0.0883573249
C   C45       1.0  0.68620  0.73367  0.72215  1.0000 -0.0883573249
C   C46       1.0  0.31380  0.26633  0.27785  1.0000 -0.0883573249
C   C47       1.0  0.31380  0.73367  0.77785  1.0000 -0.0883573249
C   C48       1.0  0.68620  0.26633  0.22215  1.0000 -0.0883573249
C   C49       1.0  0.00102  0.25176  0.53033  1.0000 0.2496202735
C   C50       1.0  0.99898  0.74824  0.46967  1.0000 0.2496202735
C   C51       1.0  0.99898  0.25176  0.96967  1.0000 0.2496202735
C   C52       1.0  0.00102  0.74824  0.03033  1.0000 0.2496202735
C   C53       1.0  0.50102  0.75176  0.53033  1.0000 0.2496202735
C   C54       1.0  0.49898  0.24824  0.46967  1.0000 0.2496202735
C   C55       1.0  0.49898  0.75176  0.96967  1.0000 0.2496202735
C   C56       1.0  0.50102  0.24824  0.03033  1.0000 0.2496202735
C   C57       1.0  0.94259  0.24855  0.52622  1.0000 -0.2042929923
C   C58       1.0  0.05741  0.75145  0.47378  1.0000 -0.2042929923
C   C59       1.0  0.05741  0.24855  0.97378  1.0000 -0.2042929923
C   C60       1.0  0.94259  0.75145  0.02622  1.0000 -0.2042929923
C   C61       1.0  0.44259  0.74855  0.52622  1.0000 -0.2042929923
C   C62       1.0  0.55741  0.25145  0.47378  1.0000 -0.2042929923
C   C63       1.0  0.55741  0.74855  0.97378  1.0000 -0.2042929923
C   C64       1.0  0.44259  0.25145  0.02622  1.0000 -0.2042929923
C   C65       1.0  0.91185  0.25480  0.47550  1.0000 -0.0266034838
C   C66       1.0  0.08815  0.74520  0.52450  1.0000 -0.0266034838
C   C67       1.0  0.08815  0.25480  0.02450  1.0000 -0.0266034838
C   C68       1.0  0.91185  0.74520  0.97550  1.0000 -0.0266034838
C   C69       1.0  0.41185  0.75480  0.47550  1.0000 -0.0266034838
C   C70       1.0  0.58815  0.24520  0.52450  1.0000 -0.0266034838
C   C71       1.0  0.58815  0.75480  0.02450  1.0000 -0.0266034838
C   C72       1.0  0.41185  0.24520  0.97550  1.0000 -0.0266034838
C   C73       1.0  0.93901  0.26223  0.42946  1.0000 -0.1224010626
C   C74       1.0  0.06099  0.73777  0.57054  1.0000 -0.1224010626
C   C75       1.0  0.06099  0.26223  0.07054  1.0000 -0.1224010626
C   C76       1.0  0.93901  0.73777  0.92946  1.0000 -0.1224010626
C   C77       1.0  0.43901  0.76223  0.42946  1.0000 -0.1224010626
C   C78       1.0  0.56099  0.23777  0.57054  1.0000 -0.1224010626
C   C79       1.0  0.56099  0.76223  0.07054  1.0000 -0.1224010626
C   C80       1.0  0.43901  0.23777  0.92946  1.0000 -0.1224010626
C   C81       1.0  0.99696  0.26450  0.43396  1.0000 -0.0266034838
C   C82       1.0  0.00304  0.73550  0.56604  1.0000 -0.0266034838
C   C83       1.0  0.00304  0.26450  0.06604  1.0000 -0.0266034838
C   C84       1.0  0.99696  0.73550  0.93396  1.0000 -0.0266034838
C   C85       1.0  0.49696  0.76450  0.43396  1.0000 -0.0266034838
C   C86       1.0  0.50304  0.23550  0.56604  1.0000 -0.0266034838
C   C87       1.0  0.50304  0.76450  0.06604  1.0000 -0.0266034838
C   C88       1.0  0.49696  0.23550  0.93396  1.0000 -0.0266034838
C   C89       1.0  0.02839  0.25946  0.48415  1.0000 -0.1853009799
C   C90       1.0  0.97161  0.74054  0.51585  1.0000 -0.1853009799
C   C91       1.0  0.97161  0.25946  0.01585  1.0000 -0.1853009799
C   C92       1.0  0.02839  0.74054  0.98415  1.0000 -0.1853009799
C   C93       1.0  0.52839  0.75946  0.48415  1.0000 -0.1853009799
C   C94       1.0  0.47161  0.24054  0.51585  1.0000 -0.1853009799
C   C95       1.0  0.47161  0.75946  0.01585  1.0000 -0.1853009799
C   C96       1.0  0.52839  0.24054  0.98415  1.0000 -0.1853009799
C   C97       1.0  0.17475  0.23379  0.82006  1.0000 0.542471608
C   C98       1.0  0.82525  0.76621  0.17994  1.0000 0.542471608
C   C99       1.0  0.82525  0.23379  0.67994  1.0000 0.542471608
C   C100      1.0  0.17475  0.76621  0.32006  1.0000 0.542471608
C   C101      1.0  0.67475  0.73379  0.82006  1.0000 0.542471608
C   C102      1.0  0.32525  0.26621  0.17994  1.0000 0.542471608
C   C103      1.0  0.32525  0.73379  0.67994  1.0000 0.542471608
C   C104      1.0  0.67475  0.26621  0.32006  1.0000 0.542471608
C   C105      1.0  0.84956  0.25579  0.46960  1.0000 0.5729056278
C   C106      1.0  0.15044  0.74421  0.53040  1.0000 0.5729056278
C   C107      1.0  0.15044  0.25579  0.03040  1.0000 0.5729056278
C   C108      1.0  0.84956  0.74421  0.96960  1.0000 0.5729056278
C   C109      1.0  0.34956  0.75579  0.46960  1.0000 0.5729056278
C   C110      1.0  0.65044  0.24421  0.53040  1.0000 0.5729056278
C   C111      1.0  0.65044  0.75579  0.03040  1.0000 0.5729056278
C   C112      1.0  0.34956  0.24421  0.96960  1.0000 0.5729056278
C   C113      1.0  0.02624  0.27310  0.38448  1.0000 0.5729056278
C   C114      1.0  0.97376  0.72690  0.61552  1.0000 0.5729056278
C   C115      1.0  0.97376  0.27310  0.11552  1.0000 0.5729056278
C   C116      1.0  0.02624  0.72690  0.88448  1.0000 0.5729056278
C   C117      1.0  0.52624  0.77310  0.38448  1.0000 0.5729056278
C   C118      1.0  0.47376  0.22690  0.61552  1.0000 0.5729056278
C   C119      1.0  0.47376  0.77310  0.11552  1.0000 0.5729056278
C   C120      1.0  0.52624  0.22690  0.88448  1.0000 0.5729056278
C   C121      1.0  0.08744  0.24743  0.59582  1.0000 0.470064571
C   C122      1.0  0.91256  0.75257  0.40418  1.0000 0.470064571
C   C123      1.0  0.91256  0.24743  0.90418  1.0000 0.470064571
C   C124      1.0  0.08744  0.75257  0.09582  1.0000 0.470064571
C   C125      1.0  0.58744  0.74743  0.59582  1.0000 0.470064571
C   C126      1.0  0.41256  0.25257  0.40418  1.0000 0.470064571
C   C127      1.0  0.41256  0.74743  0.90418  1.0000 0.470064571
C   C128      1.0  0.58744  0.25257  0.09582  1.0000 0.470064571
C   C129      1.0  0.26737  0.01171  0.92646  1.0000 0.0846981425
C   C130      1.0  0.73263  0.98829  0.07354  1.0000 0.0846981425
C   C131      1.0  0.73263  0.01171  0.57354  1.0000 0.0846981425
C   C132      1.0  0.26737  0.98829  0.42646  1.0000 0.0846981425
C   C133      1.0  0.76737  0.51171  0.92646  1.0000 0.0846981425
C   C134      1.0  0.23263  0.48829  0.07354  1.0000 0.0846981425
C   C135      1.0  0.23263  0.51171  0.57354  1.0000 0.0846981425
C   C136      1.0  0.76737  0.48829  0.42646  1.0000 0.0846981425
C   C137      1.0  0.26229  0.91257  0.92666  1.0000 -0.1766535784
C   C138      1.0  0.73771  0.08743  0.07334  1.0000 -0.1766535784
C   C139      1.0  0.73771  0.91257  0.57334  1.0000 -0.1766535784
C   C140      1.0  0.26229  0.08743  0.42666  1.0000 -0.1766535784
C   C141      1.0  0.76229  0.41257  0.92666  1.0000 -0.1766535784
C   C142      1.0  0.23771  0.58743  0.07334  1.0000 -0.1766535784
C   C143      1.0  0.23771  0.41257  0.57334  1.0000 -0.1766535784
C   C144      1.0  0.76229  0.58743  0.42666  1.0000 -0.1766535784
C   C145      1.0  0.20932  0.87077  0.92789  1.0000 0.1554446945
C   C146      1.0  0.79068  0.12923  0.07211  1.0000 0.1554446945
C   C147      1.0  0.79068  0.87077  0.57211  1.0000 0.1554446945
C   C148      1.0  0.20932  0.12923  0.42789  1.0000 0.1554446945
C   C149      1.0  0.70932  0.37077  0.92789  1.0000 0.1554446945
C   C150      1.0  0.29068  0.62923  0.07211  1.0000 0.1554446945
C   C151      1.0  0.29068  0.37077  0.57211  1.0000 0.1554446945
C   C152      1.0  0.70932  0.62923  0.42789  1.0000 0.1554446945
C   C153      1.0  0.16350  0.93275  0.92947  1.0000 -0.1766535784
C   C154      1.0  0.83650  0.06725  0.07053  1.0000 -0.1766535784
C   C155      1.0  0.83650  0.93275  0.57053  1.0000 -0.1766535784
C   C156      1.0  0.16350  0.06725  0.42947  1.0000 -0.1766535784
C   C157      1.0  0.66350  0.43275  0.92947  1.0000 -0.1766535784
C   C158      1.0  0.33650  0.56725  0.07053  1.0000 -0.1766535784
C   C159      1.0  0.33650  0.43275  0.57053  1.0000 -0.1766535784
C   C160      1.0  0.66350  0.56725  0.42947  1.0000 -0.1766535784
C   C161      1.0  0.17218  0.03142  0.93022  1.0000 0.0906468706
C   C162      1.0  0.82782  0.96858  0.06978  1.0000 0.0906468706
C   C163      1.0  0.82782  0.03142  0.56978  1.0000 0.0906468706
C   C164      1.0  0.17218  0.96858  0.43022  1.0000 0.0906468706
C   C165      1.0  0.67218  0.53142  0.93022  1.0000 0.0906468706
C   C166      1.0  0.32782  0.46858  0.06978  1.0000 0.0906468706
C   C167      1.0  0.32782  0.53142  0.56978  1.0000 0.0906468706
C   C168      1.0  0.67218  0.46858  0.43022  1.0000 0.0906468706
C   C169      1.0  0.20054  0.76768  0.92721  1.0000 -0.1102562865
C   C170      1.0  0.79946  0.23232  0.07279  1.0000 -0.1102562865
C   C171      1.0  0.79946  0.76768  0.57279  1.0000 -0.1102562865
C   C172      1.0  0.20054  0.23232  0.42721  1.0000 -0.1102562865
C   C173      1.0  0.70054  0.26768  0.92721  1.0000 -0.1102562865
C   C174      1.0  0.29946  0.73232  0.07279  1.0000 -0.1102562865
C   C175      1.0  0.29946  0.26768  0.57279  1.0000 -0.1102562865
C   C176      1.0  0.70054  0.73232  0.42721  1.0000 -0.1102562865
C   C177      1.0  0.24267  0.70326  0.93459  1.0000 -0.1224010626
C   C178      1.0  0.75733  0.29674  0.06541  1.0000 -0.1224010626
C   C179      1.0  0.75733  0.70326  0.56541  1.0000 -0.1224010626
C   C180      1.0  0.24267  0.29674  0.43459  1.0000 -0.1224010626
C   C181      1.0  0.74267  0.20326  0.93459  1.0000 -0.1224010626
C   C182      1.0  0.25733  0.79674  0.06541  1.0000 -0.1224010626
C   C183      1.0  0.25733  0.20326  0.56541  1.0000 -0.1224010626
C   C184      1.0  0.74267  0.79674  0.43459  1.0000 -0.1224010626
C   C185      1.0  0.18270  0.45296  0.92733  1.0000 0.0906468706
C   C186      1.0  0.81730  0.54704  0.07267  1.0000 0.0906468706
C   C187      1.0  0.81730  0.45296  0.57267  1.0000 0.0906468706
C   C188      1.0  0.18270  0.54704  0.42733  1.0000 0.0906468706
C   C189      1.0  0.68270  0.95296  0.92733  1.0000 0.0906468706
C   C190      1.0  0.31730  0.04704  0.07267  1.0000 0.0906468706
C   C191      1.0  0.31730  0.95296  0.57267  1.0000 0.0906468706
C   C192      1.0  0.68270  0.04704  0.42733  1.0000 0.0906468706
C   C193      1.0  0.18433  0.55242  0.93102  1.0000 -0.1719771864
C   C194      1.0  0.81567  0.44758  0.06898  1.0000 -0.1719771864
C   C195      1.0  0.81567  0.55242  0.56898  1.0000 -0.1719771864
C   C196      1.0  0.18433  0.44758  0.43102  1.0000 -0.1719771864
C   C197      1.0  0.68433  0.05242  0.93102  1.0000 -0.1719771864
C   C198      1.0  0.31567  0.94758  0.06898  1.0000 -0.1719771864
C   C199      1.0  0.31567  0.05242  0.56898  1.0000 -0.1719771864
C   C200      1.0  0.68433  0.94758  0.43102  1.0000 -0.1719771864
C   C201      1.0  0.23591  0.59997  0.93130  1.0000 0.14474239
C   C202      1.0  0.76409  0.40003  0.06870  1.0000 0.14474239
C   C203      1.0  0.76409  0.59997  0.56870  1.0000 0.14474239
C   C204      1.0  0.23591  0.40003  0.43130  1.0000 0.14474239
C   C205      1.0  0.73591  0.09997  0.93130  1.0000 0.14474239
C   C206      1.0  0.26409  0.90003  0.06870  1.0000 0.14474239
C   C207      1.0  0.26409  0.09997  0.56870  1.0000 0.14474239
C   C208      1.0  0.73591  0.90003  0.43130  1.0000 0.14474239
C   C209      1.0  0.28354  0.54373  0.92675  1.0000 -0.1719771864
C   C210      1.0  0.71646  0.45627  0.07325  1.0000 -0.1719771864
C   C211      1.0  0.71646  0.54373  0.57325  1.0000 -0.1719771864
C   C212      1.0  0.28354  0.45627  0.42675  1.0000 -0.1719771864
C   C213      1.0  0.78354  0.04373  0.92675  1.0000 -0.1719771864
C   C214      1.0  0.21646  0.95627  0.07325  1.0000 -0.1719771864
C   C215      1.0  0.21646  0.04373  0.57325  1.0000 -0.1719771864
C   C216      1.0  0.78354  0.95627  0.42675  1.0000 -0.1719771864
C   C217      1.0  0.27817  0.44485  0.92207  1.0000 0.0906468706
C   C218      1.0  0.72183  0.55515  0.07793  1.0000 0.0906468706
C   C219      1.0  0.72183  0.44485  0.57793  1.0000 0.0906468706
C   C220      1.0  0.27817  0.55515  0.42207  1.0000 0.0906468706
C   C221      1.0  0.77817  0.94485  0.92207  1.0000 0.0906468706
C   C222      1.0  0.22183  0.05515  0.07793  1.0000 0.0906468706
C   C223      1.0  0.22183  0.94485  0.57793  1.0000 0.0906468706
C   C224      1.0  0.77817  0.05515  0.42207  1.0000 0.0906468706
C   C225      1.0  0.22855  0.01056  0.27494  1.0000 -0.1224010626
C   C226      1.0  0.77145  0.98944  0.72506  1.0000 -0.1224010626
C   C227      1.0  0.77145  0.01056  0.22506  1.0000 -0.1224010626
C   C228      1.0  0.22855  0.98944  0.77494  1.0000 -0.1224010626
C   C229      1.0  0.72855  0.51056  0.27494  1.0000 -0.1224010626
C   C230      1.0  0.27145  0.48944  0.72506  1.0000 -0.1224010626
C   C231      1.0  0.27145  0.51056  0.22506  1.0000 -0.1224010626
C   C232      1.0  0.72855  0.48944  0.77494  1.0000 -0.1224010626
C   C233      1.0  0.27195  0.03472  0.24862  1.0000 -0.1102562865
C   C234      1.0  0.72805  0.96528  0.75138  1.0000 -0.1102562865
C   C235      1.0  0.72805  0.03472  0.25138  1.0000 -0.1102562865
C   C236      1.0  0.27195  0.96528  0.74862  1.0000 -0.1102562865
C   C237      1.0  0.77195  0.53472  0.24862  1.0000 -0.1102562865
C   C238      1.0  0.22805  0.46528  0.75138  1.0000 -0.1102562865
C   C239      1.0  0.22805  0.53472  0.25138  1.0000 -0.1102562865
C   C240      1.0  0.77195  0.46528  0.74862  1.0000 -0.1102562865
C   C241      1.0  0.41659  0.94423  0.29814  1.0000 0.0906468706
C   C242      1.0  0.58341  0.05577  0.70186  1.0000 0.0906468706
C   C243      1.0  0.58341  0.94423  0.20186  1.0000 0.0906468706
C   C244      1.0  0.41659  0.05577  0.79814  1.0000 0.0906468706
C   C245      1.0  0.91659  0.44423  0.29814  1.0000 0.0906468706
C   C246      1.0  0.08341  0.55577  0.70186  1.0000 0.0906468706
C   C247      1.0  0.08341  0.44423  0.20186  1.0000 0.0906468706
C   C248      1.0  0.91659  0.55577  0.79814  1.0000 0.0906468706
C   C249      1.0  0.36516  0.98923  0.29930  1.0000 -0.1719771864
C   C250      1.0  0.63484  0.01077  0.70070  1.0000 -0.1719771864
C   C251      1.0  0.63484  0.98923  0.20070  1.0000 -0.1719771864
C   C252      1.0  0.36516  0.01077  0.79930  1.0000 -0.1719771864
C   C253      1.0  0.86516  0.48923  0.29930  1.0000 -0.1719771864
C   C254      1.0  0.13484  0.51077  0.70070  1.0000 -0.1719771864
C   C255      1.0  0.13484  0.48923  0.20070  1.0000 -0.1719771864
C   C256      1.0  0.86516  0.51077  0.79930  1.0000 -0.1719771864
C   C257      1.0  0.32621  0.98681  0.25315  1.0000 0.1506497541
C   C258      1.0  0.67379  0.01319  0.74685  1.0000 0.1506497541
C   C259      1.0  0.67379  0.98681  0.24685  1.0000 0.1506497541
C   C260      1.0  0.32621  0.01319  0.75315  1.0000 0.1506497541
C   C261      1.0  0.82621  0.48681  0.25315  1.0000 0.1506497541
C   C262      1.0  0.17379  0.51319  0.74685  1.0000 0.1506497541
C   C263      1.0  0.17379  0.48681  0.24685  1.0000 0.1506497541
C   C264      1.0  0.82621  0.51319  0.75315  1.0000 0.1506497541
C   C265      1.0  0.34089  0.93900  0.20772  1.0000 -0.1719771864
C   C266      1.0  0.65911  0.06100  0.79228  1.0000 -0.1719771864
C   C267      1.0  0.65911  0.93900  0.29228  1.0000 -0.1719771864
C   C268      1.0  0.34089  0.06100  0.70772  1.0000 -0.1719771864
C   C269      1.0  0.84089  0.43900  0.20772  1.0000 -0.1719771864
C   C270      1.0  0.15911  0.56100  0.79228  1.0000 -0.1719771864
C   C271      1.0  0.15911  0.43900  0.29228  1.0000 -0.1719771864
C   C272      1.0  0.84089  0.56100  0.70772  1.0000 -0.1719771864
C   C273      1.0  0.39251  0.89467  0.20987  1.0000 0.0846981425
C   C274      1.0  0.60749  0.10533  0.79013  1.0000 0.0846981425
C   C275      1.0  0.60749  0.89467  0.29013  1.0000 0.0846981425
C   C276      1.0  0.39251  0.10533  0.70987  1.0000 0.0846981425
C   C277      1.0  0.89251  0.39467  0.20987  1.0000 0.0846981425
C   C278      1.0  0.10749  0.60533  0.79013  1.0000 0.0846981425
C   C279      1.0  0.10749  0.39467  0.29013  1.0000 0.0846981425
C   C280      1.0  0.89251  0.60533  0.70987  1.0000 0.0846981425
C   C281      1.0  0.11694  0.18702  0.22354  1.0000 0.0906468706
C   C282      1.0  0.88306  0.81298  0.77646  1.0000 0.0906468706
C   C283      1.0  0.88306  0.18702  0.27646  1.0000 0.0906468706
C   C284      1.0  0.11694  0.81298  0.72354  1.0000 0.0906468706
C   C285      1.0  0.61694  0.68702  0.22354  1.0000 0.0906468706
C   C286      1.0  0.38306  0.31298  0.77646  1.0000 0.0906468706
C   C287      1.0  0.38306  0.68702  0.27646  1.0000 0.0906468706
C   C288      1.0  0.61694  0.31298  0.72354  1.0000 0.0906468706
C   C289      1.0  0.16765  0.13967  0.23033  1.0000 -0.1719771864
C   C290      1.0  0.83235  0.86033  0.76967  1.0000 -0.1719771864
C   C291      1.0  0.83235  0.13967  0.26967  1.0000 -0.1719771864
C   C292      1.0  0.16765  0.86033  0.73033  1.0000 -0.1719771864
C   C293      1.0  0.66765  0.63967  0.23033  1.0000 -0.1719771864
C   C294      1.0  0.33235  0.36033  0.76967  1.0000 -0.1719771864
C   C295      1.0  0.33235  0.63967  0.26967  1.0000 -0.1719771864
C   C296      1.0  0.66765  0.36033  0.73033  1.0000 -0.1719771864
C   C297      1.0  0.17516  0.06087  0.26576  1.0000 0.1506497541
C   C298      1.0  0.82484  0.93913  0.73424  1.0000 0.1506497541
C   C299      1.0  0.82484  0.06087  0.23424  1.0000 0.1506497541
C   C300      1.0  0.17516  0.93913  0.76576  1.0000 0.1506497541
C   C301      1.0  0.67516  0.56087  0.26576  1.0000 0.1506497541
C   C302      1.0  0.32484  0.43913  0.73424  1.0000 0.1506497541
C   C303      1.0  0.32484  0.56087  0.23424  1.0000 0.1506497541
C   C304      1.0  0.67516  0.43913  0.76576  1.0000 0.1506497541
C   C305      1.0  0.12918  0.03321  0.29189  1.0000 -0.1766535784
C   C306      1.0  0.87082  0.96679  0.70811  1.0000 -0.1766535784
C   C307      1.0  0.87082  0.03321  0.20811  1.0000 -0.1766535784
C   C308      1.0  0.12918  0.96679  0.79189  1.0000 -0.1766535784
C   C309      1.0  0.62918  0.53321  0.29189  1.0000 -0.1766535784
C   C310      1.0  0.37082  0.46679  0.70811  1.0000 -0.1766535784
C   C311      1.0  0.37082  0.53321  0.20811  1.0000 -0.1766535784
C   C312      1.0  0.62918  0.46679  0.79189  1.0000 -0.1766535784
C   C313      1.0  0.07996  0.08655  0.28386  1.0000 0.0906468706
C   C314      1.0  0.92004  0.91345  0.71614  1.0000 0.0906468706
C   C315      1.0  0.92004  0.08655  0.21614  1.0000 0.0906468706
C   C316      1.0  0.07996  0.91345  0.78386  1.0000 0.0906468706
C   C317      1.0  0.57996  0.58655  0.28386  1.0000 0.0906468706
C   C318      1.0  0.42004  0.41345  0.71614  1.0000 0.0906468706
C   C319      1.0  0.42004  0.58655  0.21614  1.0000 0.0906468706
C   C320      1.0  0.57996  0.41345  0.78386  1.0000 0.0906468706
N   N1        1.0  0.22882  0.39910  0.92305  1.0000 -0.258532338
N   N2        1.0  0.77118  0.60090  0.07695  1.0000 -0.258532338
N   N3        1.0  0.77118  0.39910  0.57695  1.0000 -0.258532338
N   N4        1.0  0.22882  0.60090  0.42305  1.0000 -0.258532338
N   N5        1.0  0.72882  0.89910  0.92305  1.0000 -0.258532338
N   N6        1.0  0.27118  0.10090  0.07695  1.0000 -0.258532338
N   N7        1.0  0.27118  0.89910  0.57695  1.0000 -0.258532338
N   N8        1.0  0.72882  0.10090  0.42305  1.0000 -0.258532338
N   N9        1.0  0.22311  0.07099  0.92822  1.0000 -0.258532338
N   N10       1.0  0.77689  0.92901  0.07178  1.0000 -0.258532338
N   N11       1.0  0.77689  0.07099  0.57178  1.0000 -0.258532338
N   N12       1.0  0.22311  0.92901  0.42822  1.0000 -0.258532338
N   N13       1.0  0.72311  0.57099  0.92822  1.0000 -0.258532338
N   N14       1.0  0.27689  0.42901  0.07178  1.0000 -0.258532338
N   N15       1.0  0.27689  0.57099  0.57178  1.0000 -0.258532338
N   N16       1.0  0.72311  0.42901  0.42822  1.0000 -0.258532338
N   N17       1.0  0.03066  0.24758  0.58214  1.0000 -0.375605317
N   N18       1.0  0.96934  0.75242  0.41786  1.0000 -0.375605317
N   N19       1.0  0.96934  0.24758  0.91786  1.0000 -0.375605317
N   N20       1.0  0.03066  0.75242  0.08214  1.0000 -0.375605317
N   N21       1.0  0.53066  0.74758  0.58214  1.0000 -0.375605317
N   N22       1.0  0.46934  0.25242  0.41786  1.0000 -0.375605317
N   N23       1.0  0.46934  0.74758  0.91786  1.0000 -0.375605317
N   N24       1.0  0.53066  0.25242  0.08214  1.0000 -0.375605317
N   N25       1.0  0.43028  0.89700  0.25423  1.0000 -0.2490690147
N   N26       1.0  0.56972  0.10300  0.74577  1.0000 -0.2490690147
N   N27       1.0  0.56972  0.89700  0.24577  1.0000 -0.2490690147
N   N28       1.0  0.43028  0.10300  0.75423  1.0000 -0.2490690147
N   N29       1.0  0.93028  0.39700  0.25423  1.0000 -0.2490690147
N   N30       1.0  0.06972  0.60300  0.74577  1.0000 -0.2490690147
N   N31       1.0  0.06972  0.39700  0.24577  1.0000 -0.2490690147
N   N32       1.0  0.93028  0.60300  0.75423  1.0000 -0.2490690147
N   N33       1.0  0.07337  0.16332  0.25069  1.0000 -0.2490690147
N   N34       1.0  0.92663  0.83668  0.74931  1.0000 -0.2490690147
N   N35       1.0  0.92663  0.16332  0.24931  1.0000 -0.2490690147
N   N36       1.0  0.07337  0.83668  0.75069  1.0000 -0.2490690147
N   N37       1.0  0.57337  0.66332  0.25069  1.0000 -0.2490690147
N   N38       1.0  0.42663  0.33668  0.74931  1.0000 -0.2490690147
N   N39       1.0  0.42663  0.66332  0.24931  1.0000 -0.2490690147
N   N40       1.0  0.57337  0.33668  0.75069  1.0000 -0.2490690147
O   O1        1.0  0.22826  0.23433  0.82893  1.0000 -0.5512402152
O   O2        1.0  0.77174  0.76567  0.17107  1.0000 -0.5512402152
O   O3        1.0  0.77174  0.23433  0.67107  1.0000 -0.5512402152
O   O4        1.0  0.22826  0.76567  0.32893  1.0000 -0.5512402152
O   O5        1.0  0.72826  0.73433  0.82893  1.0000 -0.5512402152
O   O6        1.0  0.27174  0.26567  0.17107  1.0000 -0.5512402152
O   O7        1.0  0.27174  0.73433  0.67107  1.0000 -0.5512402152
O   O8        1.0  0.72826  0.26567  0.32893  1.0000 -0.5512402152
O   O9        1.0  0.82514  0.27837  0.42312  1.0000 -0.5512402152
O   O10       1.0  0.17486  0.72163  0.57688  1.0000 -0.5512402152
O   O11       1.0  0.17486  0.27837  0.07688  1.0000 -0.5512402152
O   O12       1.0  0.82514  0.72163  0.92312  1.0000 -0.5512402152
O   O13       1.0  0.32514  0.77837  0.42312  1.0000 -0.5512402152
O   O14       1.0  0.67486  0.22163  0.57688  1.0000 -0.5512402152
O   O15       1.0  0.67486  0.77837  0.07688  1.0000 -0.5512402152
O   O16       1.0  0.32514  0.22163  0.92312  1.0000 -0.5512402152
O   O17       1.0  0.99444  0.26854  0.33982  1.0000 -0.5911447464
O   O18       1.0  0.00556  0.73146  0.66018  1.0000 -0.5911447464
O   O19       1.0  0.00556  0.26854  0.16018  1.0000 -0.5911447464
O   O20       1.0  0.99444  0.73146  0.83982  1.0000 -0.5911447464
O   O21       1.0  0.49444  0.76854  0.33982  1.0000 -0.5911447464
O   O22       1.0  0.50556  0.23146  0.66018  1.0000 -0.5911447464
O   O23       1.0  0.50556  0.76854  0.16018  1.0000 -0.5911447464
O   O24       1.0  0.49444  0.23146  0.83982  1.0000 -0.5911447464
O   O25       1.0  0.12178  0.25172  0.56244  1.0000 -0.4784217646
O   O26       1.0  0.87822  0.74828  0.43756  1.0000 -0.4784217646
O   O27       1.0  0.87822  0.25172  0.93756  1.0000 -0.4784217646
O   O28       1.0  0.12178  0.74828  0.06244  1.0000 -0.4784217646
O   O29       1.0  0.62178  0.75172  0.56244  1.0000 -0.4784217646
O   O30       1.0  0.37822  0.24828  0.43756  1.0000 -0.4784217646
O   O31       1.0  0.37822  0.75172  0.93756  1.0000 -0.4784217646
O   O32       1.0  0.62178  0.24828  0.06244  1.0000 -0.4784217646
O   O33       1.0  0.14233  0.23221  0.85676  1.0000 -0.5779329037
O   O34       1.0  0.85767  0.76779  0.14324  1.0000 -0.5779329037
O   O35       1.0  0.85767  0.23221  0.64324  1.0000 -0.5779329037
O   O36       1.0  0.14233  0.76779  0.35676  1.0000 -0.5779329037
O   O37       1.0  0.64233  0.73221  0.85676  1.0000 -0.5779329037
O   O38       1.0  0.35767  0.26779  0.14324  1.0000 -0.5779329037
O   O39       1.0  0.35767  0.73221  0.64324  1.0000 -0.5779329037
O   O40       1.0  0.64233  0.26779  0.35676  1.0000 -0.5779329037
O   O41       1.0  0.82473  0.23343  0.50976  1.0000 -0.5911447464
O   O42       1.0  0.17527  0.76657  0.49024  1.0000 -0.5911447464
O   O43       1.0  0.17527  0.23343  0.99024  1.0000 -0.5911447464
O   O44       1.0  0.82473  0.76657  0.00976  1.0000 -0.5911447464
O   O45       1.0  0.32473  0.73343  0.50976  1.0000 -0.5911447464
O   O46       1.0  0.67527  0.26657  0.49024  1.0000 -0.5911447464
O   O47       1.0  0.67527  0.73343  0.99024  1.0000 -0.5911447464
O   O48       1.0  0.32473  0.26657  0.00976  1.0000 -0.5911447464
O   O49       1.0  0.07855  0.28461  0.38981  1.0000 -0.5669897294
O   O50       1.0  0.92145  0.71539  0.61019  1.0000 -0.5669897294
O   O51       1.0  0.92145  0.28461  0.11019  1.0000 -0.5669897294
O   O52       1.0  0.07855  0.71539  0.88981  1.0000 -0.5669897294
O   O53       1.0  0.57855  0.78461  0.38981  1.0000 -0.5669897294
O   O54       1.0  0.42145  0.21539  0.61019  1.0000 -0.5669897294
O   O55       1.0  0.42145  0.78461  0.11019  1.0000 -0.5669897294
O   O56       1.0  0.57855  0.21539  0.88981  1.0000 -0.5669897294
