# DDEC6 charges by PACMAN v1.1 (https://github.com/mtap-research/PACMAN-charge/)
data_2013[Eu][nan]3[ASR]10
_chemical_formula_sum              "Eu16 H120 C96 N24 O96"
_cell_length_a       19.3548
_cell_length_b       19.3548
_cell_length_c       19.3548
_cell_angle_alpha    95.532
_cell_angle_beta     95.532
_cell_angle_gamma    143.823

_symmetry_space_group_name_H-M    "P 1"
_symmetry_Int_Tables_number       1

loop_
  _symmetry_equiv_pos_as_xyz
  'x, y, z'

loop_
  _atom_site_type_symbol
  _atom_site_label
  _atom_site_symmetry_multiplicity
  _atom_site_fract_x
  _atom_site_fract_y
  _atom_site_fract_z
  _atom_site_occupancy
  _atom_site_charge
Eu  Eu1       1.0  0.94007  0.55286  0.04859  1.0000 2.0358944498
Eu  Eu2       1.0  0.50427  0.89148  0.95141  1.0000 2.0332563482
Eu  Eu3       1.0  0.14148  0.69007  0.88721  1.0000 2.0332563482
Eu  Eu4       1.0  0.80286  0.25427  0.11279  1.0000 2.0358944498
Eu  Eu5       1.0  0.30993  0.19714  0.45141  1.0000 2.0358944498
Eu  Eu6       1.0  0.74573  0.85852  0.54859  1.0000 2.0358944498
Eu  Eu7       1.0  0.10852  0.05993  0.61279  1.0000 2.0358944498
Eu  Eu8       1.0  0.44714  0.49573  0.38721  1.0000 2.0358944498
Eu  Eu9       1.0  0.17353  0.81802  0.22887  1.0000 1.9475260935
Eu  Eu10      1.0  0.58915  0.94466  0.77113  1.0000 1.9475260935
Eu  Eu11      1.0  0.19466  0.92353  0.85551  1.0000 1.9475260935
Eu  Eu12      1.0  0.06802  0.33915  0.14449  1.0000 1.9475260935
Eu  Eu13      1.0  0.07647  0.93198  0.27113  1.0000 1.9475260935
Eu  Eu14      1.0  0.66085  0.80534  0.72887  1.0000 1.9475260935
Eu  Eu15      1.0  0.05534  0.82647  0.64449  1.0000 1.9475260935
Eu  Eu16      1.0  0.18198  0.41085  0.35551  1.0000 1.9475260935
H   H1        1.0  0.76330  0.57290  0.04100  1.0000 0.1490937359
H   H2        1.0  0.53190  0.72230  0.95900  1.0000 0.1490937359
H   H3        1.0  0.97230  0.51330  0.69040  1.0000 0.1490937359
H   H4        1.0  0.82290  0.28190  0.30960  1.0000 0.1490937359
H   H5        1.0  0.48670  0.17710  0.45900  1.0000 0.1490937359
H   H6        1.0  0.71810  0.02770  0.54100  1.0000 0.1490937359
H   H7        1.0  0.27770  0.23670  0.80960  1.0000 0.1490937359
H   H8        1.0  0.42710  0.46810  0.19040  1.0000 0.1490937359
H   H9        1.0  0.71470  0.52630  0.10780  1.0000 0.1408264692
H   H10       1.0  0.41850  0.60690  0.89220  1.0000 0.1408264692
H   H11       1.0  0.85690  0.46470  0.68840  1.0000 0.1408264692
H   H12       1.0  0.77630  0.16850  0.31160  1.0000 0.1408264692
H   H13       1.0  0.53530  0.22370  0.39220  1.0000 0.1408264692
H   H14       1.0  0.83150  0.14310  0.60780  1.0000 0.1408264692
H   H15       1.0  0.39310  0.28530  0.81160  1.0000 0.1408264692
H   H16       1.0  0.47370  0.58150  0.18840  1.0000 0.1408264692
H   H17       1.0  0.73160  0.43090  0.15850  1.0000 0.1490937359
H   H18       1.0  0.27240  0.57310  0.84150  1.0000 0.1490937359
H   H19       1.0  0.82310  0.48160  0.80070  1.0000 0.1490937359
H   H20       1.0  0.68090  0.02240  0.19930  1.0000 0.1490937359
H   H21       1.0  0.51840  0.31910  0.34150  1.0000 0.1490937359
H   H22       1.0  0.97760  0.17690  0.65850  1.0000 0.1490937359
H   H23       1.0  0.42690  0.26840  0.69930  1.0000 0.1490937359
H   H24       1.0  0.56910  0.72760  0.30070  1.0000 0.1490937359
H   H25       1.0  0.60660  0.32090  0.09630  1.0000 0.1490937359
H   H26       1.0  0.22460  0.51030  0.90370  1.0000 0.1490937359
H   H27       1.0  0.76030  0.35660  0.78570  1.0000 0.1490937359
H   H28       1.0  0.57090  0.97460  0.21430  1.0000 0.1490937359
H   H29       1.0  0.64340  0.42910  0.40370  1.0000 0.1490937359
H   H30       1.0  0.02540  0.23970  0.59630  1.0000 0.1490937359
H   H31       1.0  0.48970  0.39340  0.71430  1.0000 0.1490937359
H   H32       1.0  0.67910  0.77540  0.28570  1.0000 0.1490937359
H   H33       1.0  0.13910  0.61330  0.30720  1.0000 0.1408264692
H   H34       1.0  0.30610  0.83190  0.69280  1.0000 0.1408264692
H   H35       1.0  0.08190  0.88910  0.02580  1.0000 0.1408264692
H   H36       1.0  0.86330  0.05610  0.97420  1.0000 0.1408264692
H   H37       1.0  0.11090  0.13670  0.19280  1.0000 0.1408264692
H   H38       1.0  0.94390  0.91810  0.80720  1.0000 0.1408264692
H   H39       1.0  0.16810  0.86090  0.47420  1.0000 0.1408264692
H   H40       1.0  0.38670  0.69390  0.52580  1.0000 0.1408264692
H   H41       1.0  0.03510  0.56230  0.33560  1.0000 0.1490937359
H   H42       1.0  0.22670  0.69950  0.66440  1.0000 0.1490937359
H   H43       1.0  0.94950  0.78510  0.97280  1.0000 0.1490937359
H   H44       1.0  0.81230  0.97670  0.02720  1.0000 0.1490937359
H   H45       1.0  0.21490  0.18770  0.16440  1.0000 0.1490937359
H   H46       1.0  0.02330  0.05050  0.83560  1.0000 0.1490937359
H   H47       1.0  0.30050  0.96490  0.52720  1.0000 0.1490937359
H   H48       1.0  0.43770  0.77330  0.47280  1.0000 0.1490937359
H   H49       1.0  0.32120  0.88750  0.41050  1.0000 0.133000534
H   H50       1.0  0.47700  0.91070  0.58950  1.0000 0.133000534
H   H51       1.0  0.16070  0.07120  0.93370  1.0000 0.133000534
H   H52       1.0  0.13750  0.22700  0.06630  1.0000 0.133000534
H   H53       1.0  0.92880  0.86250  0.08950  1.0000 0.133000534
H   H54       1.0  0.77300  0.83930  0.91050  1.0000 0.133000534
H   H55       1.0  0.08930  0.67880  0.56630  1.0000 0.133000534
H   H56       1.0  0.11250  0.52300  0.43370  1.0000 0.133000534
H   H57       1.0  0.28900  0.78150  0.39830  1.0000 0.1212824173
H   H58       1.0  0.38320  0.89070  0.60170  1.0000 0.1212824173
H   H59       1.0  0.14070  0.03900  0.00750  1.0000 0.1212824173
H   H60       1.0  0.03150  0.13320  0.99250  1.0000 0.1212824173
H   H61       1.0  0.96100  0.96850  0.10170  1.0000 0.1212824173
H   H62       1.0  0.86680  0.85930  0.89830  1.0000 0.1212824173
H   H63       1.0  0.10930  0.71100  0.49250  1.0000 0.1212824173
H   H64       1.0  0.21850  0.61680  0.50750  1.0000 0.1212824173
H   H65       1.0  0.41950  0.00020  0.09910  1.0000 0.1490937359
H   H66       1.0  0.90110  0.32040  0.90090  1.0000 0.1490937359
H   H67       1.0  0.57040  0.16950  0.91930  1.0000 0.1490937359
H   H68       1.0  0.25020  0.65110  0.08070  1.0000 0.1490937359
H   H69       1.0  0.83050  0.74980  0.40090  1.0000 0.1490937359
H   H70       1.0  0.34890  0.42960  0.59910  1.0000 0.1490937359
H   H71       1.0  0.67960  0.58050  0.58070  1.0000 0.1490937359
H   H72       1.0  0.99980  0.09890  0.41930  1.0000 0.1490937359
H   H73       1.0  0.40640  0.93260  0.14900  1.0000 0.1408264692
H   H74       1.0  0.78360  0.25740  0.85100  1.0000 0.1408264692
H   H75       1.0  0.50740  0.15640  0.97380  1.0000 0.1408264692
H   H76       1.0  0.18260  0.53360  0.02620  1.0000 0.1408264692
H   H77       1.0  0.84360  0.81740  0.35100  1.0000 0.1408264692
H   H78       1.0  0.46640  0.49260  0.64900  1.0000 0.1408264692
H   H79       1.0  0.74260  0.59360  0.52620  1.0000 0.1408264692
H   H80       1.0  0.06740  0.21640  0.47380  1.0000 0.1408264692
H   H81       1.0  0.45280  0.15090  0.17710  1.0000 0.1408264692
H   H82       1.0  0.97380  0.27570  0.82290  1.0000 0.1408264692
H   H83       1.0  0.52570  0.20280  0.80190  1.0000 0.1408264692
H   H84       1.0  0.40090  0.72380  0.19810  1.0000 0.1408264692
H   H85       1.0  0.79720  0.59910  0.32290  1.0000 0.1408264692
H   H86       1.0  0.27620  0.47430  0.67710  1.0000 0.1408264692
H   H87       1.0  0.72430  0.54720  0.69810  1.0000 0.1408264692
H   H88       1.0  0.84910  0.02620  0.30190  1.0000 0.1408264692
H   H89       1.0  0.33940  0.04040  0.10880  1.0000 0.1490937359
H   H90       1.0  0.93160  0.23060  0.89120  1.0000 0.1490937359
H   H91       1.0  0.48060  0.08940  0.79900  1.0000 0.1490937359
H   H92       1.0  0.29040  0.68160  0.20100  1.0000 0.1490937359
H   H93       1.0  0.91060  0.70960  0.39120  1.0000 0.1490937359
H   H94       1.0  0.31840  0.51940  0.60880  1.0000 0.1490937359
H   H95       1.0  0.76940  0.66060  0.70100  1.0000 0.1490937359
H   H96       1.0  0.95960  0.06840  0.29900  1.0000 0.1490937359
H   H97       1.0  0.69230  0.41220  0.01550  1.0000 0.2566197551
H   H98       1.0  0.39670  0.67680  0.98450  1.0000 0.2566197551
H   H99       1.0  0.92680  0.44230  0.78010  1.0000 0.2566197551
H   H100      1.0  0.66220  0.14670  0.21990  1.0000 0.2566197551
H   H101      1.0  0.55770  0.33780  0.48450  1.0000 0.2566197551
H   H102      1.0  0.85330  0.07320  0.51550  1.0000 0.2566197551
H   H103      1.0  0.32320  0.30770  0.71990  1.0000 0.2566197551
H   H104      1.0  0.58780  0.60330  0.28010  1.0000 0.2566197551
H   H105      1.0  0.12800  0.73320  0.36280  1.0000 0.2483177231
H   H106      1.0  0.37040  0.76520  0.63720  1.0000 0.2483177231
H   H107      1.0  0.01520  0.87800  0.89480  1.0000 0.2483177231
H   H108      1.0  0.98320  0.12040  0.10520  1.0000 0.2483177231
H   H109      1.0  0.12200  0.01680  0.13720  1.0000 0.2483177231
H   H110      1.0  0.87960  0.98480  0.86280  1.0000 0.2483177231
H   H111      1.0  0.23480  0.87200  0.60520  1.0000 0.2483177231
H   H112      1.0  0.26680  0.62960  0.39480  1.0000 0.2483177231
H   H113      1.0  0.42900  0.04250  0.22210  1.0000 0.2483177231
H   H114      1.0  0.82040  0.20690  0.77790  1.0000 0.2483177231
H   H115      1.0  0.45690  0.17900  0.88650  1.0000 0.2483177231
H   H116      1.0  0.29250  0.57040  0.11350  1.0000 0.2483177231
H   H117      1.0  0.82100  0.70750  0.27790  1.0000 0.2483177231
H   H118      1.0  0.42960  0.54310  0.72210  1.0000 0.2483177231
H   H119      1.0  0.79310  0.57100  0.61350  1.0000 0.2483177231
H   H120      1.0  0.95750  0.17960  0.38650  1.0000 0.2483177231
C   C1        1.0  0.90190  0.67390  0.13440  1.0000 0.6872235201
C   C2        1.0  0.53950  0.76750  0.86560  1.0000 0.6872235201
C   C3        1.0  0.01750  0.65190  0.72800  1.0000 0.6872235201
C   C4        1.0  0.92390  0.28950  0.27200  1.0000 0.6872235201
C   C5        1.0  0.34810  0.07610  0.36560  1.0000 0.6872235201
C   C6        1.0  0.71050  0.98250  0.63440  1.0000 0.6872235201
C   C7        1.0  0.23250  0.09810  0.77200  1.0000 0.6872235201
C   C8        1.0  0.32610  0.46050  0.22800  1.0000 0.6872235201
C   C9        1.0  0.77340  0.55630  0.08350  1.0000 -0.2430529513
C   C10       1.0  0.47280  0.68990  0.91650  1.0000 -0.2430529513
C   C11       1.0  0.93990  0.52340  0.71710  1.0000 -0.2430529513
C   C12       1.0  0.80630  0.22280  0.28290  1.0000 -0.2430529513
C   C13       1.0  0.47660  0.19370  0.41650  1.0000 -0.2430529513
C   C14       1.0  0.77720  0.06010  0.58350  1.0000 -0.2430529513
C   C15       1.0  0.31010  0.22660  0.78290  1.0000 -0.2430529513
C   C16       1.0  0.44370  0.52720  0.21710  1.0000 -0.2430529513
C   C17       1.0  0.69340  0.38170  0.10850  1.0000 -0.2288544309
C   C18       1.0  0.27320  0.58490  0.89150  1.0000 -0.2288544309
C   C19       1.0  0.83490  0.44340  0.81170  1.0000 -0.2288544309
C   C20       1.0  0.63170  0.02320  0.18830  1.0000 -0.2288544309
C   C21       1.0  0.55660  0.36830  0.39150  1.0000 -0.2288544309
C   C22       1.0  0.97680  0.16510  0.60850  1.0000 -0.2288544309
C   C23       1.0  0.41510  0.30660  0.68830  1.0000 -0.2288544309
C   C24       1.0  0.61830  0.72680  0.31170  1.0000 -0.2288544309
C   C25       1.0  0.71050  0.31780  0.10030  1.0000 0.6279162131
C   C26       1.0  0.21750  0.61020  0.89970  1.0000 0.6279162131
C   C27       1.0  0.86020  0.46050  0.89270  1.0000 0.6279162131
C   C28       1.0  0.56780  0.96750  0.10730  1.0000 0.6279162131
C   C29       1.0  0.53950  0.43220  0.39970  1.0000 0.6279162131
C   C30       1.0  0.03250  0.13980  0.60030  1.0000 0.6279162131
C   C31       1.0  0.38980  0.28950  0.60730  1.0000 0.6279162131
C   C32       1.0  0.68220  0.78250  0.39270  1.0000 0.6279162131
C   C33       1.0  0.00280  0.53980  0.22740  1.0000 0.6983548067
C   C34       1.0  0.31240  0.77540  0.77260  1.0000 0.6983548067
C   C35       1.0  0.02540  0.75280  0.96300  1.0000 0.6983548067
C   C36       1.0  0.78980  0.06240  0.03700  1.0000 0.6983548067
C   C37       1.0  0.24720  0.21020  0.27260  1.0000 0.6983548067
C   C38       1.0  0.93760  0.97460  0.72740  1.0000 0.6983548067
C   C39       1.0  0.22460  0.99720  0.53700  1.0000 0.6983548067
C   C40       1.0  0.46020  0.68760  0.46300  1.0000 0.6983548067
C   C41       1.0  0.08550  0.60920  0.30410  1.0000 -0.2430529513
C   C42       1.0  0.30510  0.78140  0.69590  1.0000 -0.2430529513
C   C43       1.0  0.03140  0.83550  0.97630  1.0000 -0.2430529513
C   C44       1.0  0.85920  0.05510  0.02370  1.0000 -0.2430529513
C   C45       1.0  0.16450  0.14080  0.19590  1.0000 -0.2430529513
C   C46       1.0  0.94490  0.96860  0.80410  1.0000 -0.2475133874
C   C47       1.0  0.21860  0.91450  0.52370  1.0000 -0.2430529513
C   C48       1.0  0.39080  0.69490  0.47630  1.0000 -0.2430529513
C   C49       1.0  0.28830  0.82250  0.37380  1.0000 -0.2475133874
C   C50       1.0  0.44870  0.91450  0.62620  1.0000 -0.2475133874
C   C51       1.0  0.16450  0.03830  0.96580  1.0000 -0.2475133874
C   C52       1.0  0.07250  0.19870  0.03420  1.0000 -0.2475133874
C   C53       1.0  0.96170  0.92750  0.12620  1.0000 -0.2475133874
C   C54       1.0  0.80130  0.83550  0.87380  1.0000 -0.2475133874
C   C55       1.0  0.08550  0.71170  0.53420  1.0000 -0.2475133874
C   C56       1.0  0.17750  0.55130  0.46580  1.0000 -0.2475133874
C   C57       1.0  0.36710  0.87643  0.32393  1.0000 0.6219029799
C   C58       1.0  0.55250  0.04317  0.67607  1.0000 0.6219029799
C   C59       1.0  0.29317  0.11710  0.99067  1.0000 0.6219029799
C   C60       1.0  0.12643  0.30250  0.00933  1.0000 0.6219029799
C   C61       1.0  0.88290  0.87357  0.17607  1.0000 0.6219029799
C   C62       1.0  0.69750  0.70683  0.82393  1.0000 0.6219029799
C   C63       1.0  0.95683  0.63290  0.50933  1.0000 0.6219029799
C   C64       1.0  0.12357  0.44750  0.49067  1.0000 0.6219029799
C   C65       1.0  0.24330  0.82110  0.07620  1.0000 0.6983548067
C   C66       1.0  0.74490  0.16710  0.92380  1.0000 0.6983548067
C   C67       1.0  0.41710  0.99330  0.92220  1.0000 0.6983548067
C   C68       1.0  0.07110  0.49490  0.07780  1.0000 0.6983548067
C   C69       1.0  0.00670  0.92890  0.42380  1.0000 0.6983548067
C   C70       1.0  0.50510  0.58290  0.57620  1.0000 0.6983548067
C   C71       1.0  0.83290  0.75670  0.57780  1.0000 0.6983548067
C   C72       1.0  0.17890  0.25510  0.42220  1.0000 0.6983548067
C   C73       1.0  0.36860  0.94250  0.12670  1.0000 -0.2475133874
C   C74       1.0  0.81580  0.24190  0.87330  1.0000 -0.2475133874
C   C75       1.0  0.49190  0.11860  0.92610  1.0000 -0.2475133874
C   C76       1.0  0.19250  0.56580  0.07390  1.0000 -0.2475133874
C   C77       1.0  0.88140  0.80750  0.37330  1.0000 -0.2475133874
C   C78       1.0  0.43420  0.50810  0.62670  1.0000 -0.2475133874
C   C79       1.0  0.75810  0.63140  0.57390  1.0000 -0.2475133874
C   C80       1.0  0.05750  0.18420  0.42610  1.0000 -0.2475133874
C   C81       1.0  0.36790  0.06600  0.16150  1.0000 -0.2288544309
C   C82       1.0  0.90450  0.20640  0.83850  1.0000 -0.2288544309
C   C83       1.0  0.45640  0.11790  0.80190  1.0000 -0.2288544309
C   C84       1.0  0.31600  0.65450  0.19810  1.0000 -0.2288544309
C   C85       1.0  0.88210  0.68400  0.33850  1.0000 -0.2288544309
C   C86       1.0  0.34550  0.54360  0.66150  1.0000 -0.2288544309
C   C87       1.0  0.79360  0.63210  0.69810  1.0000 -0.2288544309
C   C88       1.0  0.93400  0.09550  0.30190  1.0000 -0.2288544309
C   C89       1.0  0.29250  0.05730  0.19220  1.0000 0.6219029799
C   C90       1.0  0.86510  0.10030  0.80780  1.0000 0.6219029799
C   C91       1.0  0.35030  0.04250  0.73520  1.0000 0.6219029799
C   C92       1.0  0.30730  0.61510  0.26480  1.0000 0.6219029799
C   C93       1.0  0.95750  0.69270  0.30780  1.0000 0.6219029799
C   C94       1.0  0.38490  0.64970  0.69220  1.0000 0.6219029799
C   C95       1.0  0.89970  0.70750  0.76480  1.0000 0.6219029799
C   C96       1.0  0.94270  0.13490  0.23520  1.0000 0.6219029799
N   N1        1.0  0.74807  0.46100  0.06047  1.0000 -0.361430429
N   N2        1.0  0.40053  0.68760  0.93953  1.0000 -0.361430429
N   N3        1.0  0.93760  0.49807  0.78707  1.0000 -0.361430429
N   N4        1.0  0.71100  0.15053  0.21293  1.0000 -0.361430429
N   N5        1.0  0.50193  0.28900  0.43953  1.0000 -0.361430429
N   N6        1.0  0.84947  0.06240  0.56047  1.0000 -0.361430429
N   N7        1.0  0.31240  0.25193  0.71293  1.0000 -0.361430429
N   N8        1.0  0.53900  0.59947  0.28707  1.0000 -0.361430429
N   N9        1.0  0.16230  0.73490  0.33260  1.0000 -0.361430429
N   N10       1.0  0.40230  0.82970  0.66740  1.0000 -0.361430429
N   N11       1.0  0.07970  0.91230  0.92740  1.0000 -0.361430429
N   N12       1.0  0.98490  0.15230  0.07260  1.0000 -0.361430429
N   N13       1.0  0.08770  0.01510  0.16740  1.0000 -0.361430429
N   N14       1.0  0.84770  0.92030  0.83260  1.0000 -0.361430429
N   N15       1.0  0.17030  0.83770  0.57260  1.0000 -0.361430429
N   N16       1.0  0.26510  0.59770  0.42740  1.0000 -0.361430429
N   N17       1.0  0.36130  0.99155  0.18365  1.0000 -0.3520455771
N   N18       1.0  0.80790  0.17765  0.81635  1.0000 -0.3520455771
N   N19       1.0  0.42765  0.11130  0.86975  1.0000 -0.3520455771
N   N20       1.0  0.24155  0.55790  0.13025  1.0000 -0.3520455771
N   N21       1.0  0.88870  0.75845  0.31635  1.0000 -0.3520455771
N   N22       1.0  0.44210  0.57235  0.68365  1.0000 -0.3520455771
N   N23       1.0  0.82235  0.63870  0.63025  1.0000 -0.3520455771
N   N24       1.0  0.00845  0.19210  0.36975  1.0000 -0.3520455771
O   O1        1.0  0.97499  0.68300  0.14059  1.0000 -0.7157111801
O   O2        1.0  0.54241  0.83440  0.85941  1.0000 -0.7157111801
O   O3        1.0  0.08440  0.72499  0.79199  1.0000 -0.7157111801
O   O4        1.0  0.93300  0.29241  0.20801  1.0000 -0.7157111801
O   O5        1.0  0.27501  0.06700  0.35941  1.0000 -0.7157111801
O   O6        1.0  0.70759  0.91560  0.64059  1.0000 -0.7157111801
O   O7        1.0  0.16560  0.02501  0.70801  1.0000 -0.7157111801
O   O8        1.0  0.31700  0.45759  0.29199  1.0000 -0.7157111801
O   O9        1.0  0.92701  0.75425  0.16626  1.0000 -0.6422444061
O   O10       1.0  0.58799  0.76075  0.83374  1.0000 -0.6422444061
O   O11       1.0  0.01075  0.67701  0.67276  1.0000 -0.6422444061
O   O12       1.0  0.00425  0.33799  0.32724  1.0000 -0.6422444061
O   O13       1.0  0.32299  0.99575  0.33374  1.0000 -0.6422444061
O   O14       1.0  0.66201  0.98925  0.66626  1.0000 -0.6422444061
O   O15       1.0  0.23925  0.07299  0.82724  1.0000 -0.6422444061
O   O16       1.0  0.24575  0.41201  0.17276  1.0000 -0.6422444061
O   O17       1.0  0.78985  0.36028  0.06933  1.0000 -0.739025537
O   O18       1.0  0.29095  0.72052  0.93067  1.0000 -0.739025537
O   O19       1.0  0.97052  0.53985  0.92957  1.0000 -0.739025537
O   O20       1.0  0.61028  0.04095  0.07043  1.0000 -0.739025537
O   O21       1.0  0.46015  0.38972  0.43067  1.0000 -0.739025537
O   O22       1.0  0.95905  0.02948  0.56933  1.0000 -0.739025537
O   O23       1.0  0.27948  0.21015  0.57043  1.0000 -0.739025537
O   O24       1.0  0.63972  0.70905  0.42957  1.0000 -0.739025537
O   O25       1.0  0.65397  0.23226  0.12563  1.0000 -0.5744434484
O   O26       1.0  0.10663  0.52834  0.87437  1.0000 -0.5744434484
O   O27       1.0  0.77834  0.40397  0.92171  1.0000 -0.5744434484
O   O28       1.0  0.48226  0.85663  0.07829  1.0000 -0.5744434484
O   O29       1.0  0.59603  0.51774  0.37437  1.0000 -0.5744434484
O   O30       1.0  0.14337  0.22166  0.62563  1.0000 -0.5744434484
O   O31       1.0  0.47166  0.34603  0.57829  1.0000 -0.5744434484
O   O32       1.0  0.76774  0.89337  0.42171  1.0000 -0.5744434484
O   O33       1.0  0.02754  0.60142  0.18556  1.0000 -0.7311317139
O   O34       1.0  0.41586  0.84198  0.81444  1.0000 -0.7311317139
O   O35       1.0  0.09198  0.77754  0.92612  1.0000 -0.7311317139
O   O36       1.0  0.85142  0.16586  0.07388  1.0000 -0.7311317139
O   O37       1.0  0.22246  0.14858  0.31444  1.0000 -0.7311317139
O   O38       1.0  0.83414  0.90802  0.68556  1.0000 -0.7311317139
O   O39       1.0  0.15802  0.97246  0.57388  1.0000 -0.7311317139
O   O40       1.0  0.39858  0.58414  0.42612  1.0000 -0.7311317139
O   O41       1.0  0.91773  0.42730  0.21003  1.0000 -0.6338164546
O   O42       1.0  0.21727  0.70770  0.78997  1.0000 -0.6338164546
O   O43       1.0  0.95770  0.66773  0.99043  1.0000 -0.6338164546
O   O44       1.0  0.67730  0.96727  0.00957  1.0000 -0.6338164546
O   O45       1.0  0.33227  0.32270  0.28997  1.0000 -0.6338164546
O   O46       1.0  0.03273  0.04230  0.71003  1.0000 -0.6338164546
O   O47       1.0  0.29230  0.08227  0.50957  1.0000 -0.6338164546
O   O48       1.0  0.57270  0.78273  0.49043  1.0000 -0.6338164546
O   O49       1.0  0.32090  0.84800  0.25870  1.0000 -0.6422444061
O   O50       1.0  0.58930  0.06220  0.74130  1.0000 -0.6422444061
O   O51       1.0  0.31220  0.07090  0.97290  1.0000 -0.6422444061
O   O52       1.0  0.09800  0.33930  0.02710  1.0000 -0.6422444061
O   O53       1.0  0.92910  0.90200  0.24130  1.0000 -0.6422444061
O   O54       1.0  0.66070  0.68780  0.75870  1.0000 -0.6422444061
O   O55       1.0  0.93780  0.67910  0.52710  1.0000 -0.6422444061
O   O56       1.0  0.15200  0.41070  0.47290  1.0000 -0.6422444061
O   O57       1.0  0.47780  0.95290  0.35430  1.0000 -0.5917089247
O   O58       1.0  0.59860  0.12350  0.64570  1.0000 -0.5917089247
O   O59       1.0  0.37350  0.22780  0.02490  1.0000 -0.5917089247
O   O60       1.0  0.20290  0.34860  0.97510  1.0000 -0.5917089247
O   O61       1.0  0.77220  0.79710  0.14570  1.0000 -0.5917089247
O   O62       1.0  0.65140  0.62650  0.85430  1.0000 -0.5917089247
O   O63       1.0  0.87650  0.52220  0.47510  1.0000 -0.5917089247
O   O64       1.0  0.04710  0.40140  0.52490  1.0000 -0.5917089247
O   O65       1.0  0.15347  0.75886  0.10253  1.0000 -0.7311317139
O   O66       1.0  0.65633  0.05094  0.89747  1.0000 -0.7311317139
O   O67       1.0  0.30094  0.90347  0.89461  1.0000 -0.7311317139
O   O68       1.0  0.00886  0.40633  0.10539  1.0000 -0.7311317139
O   O69       1.0  0.09653  0.99114  0.39747  1.0000 -0.7311317139
O   O70       1.0  0.59367  0.69906  0.60253  1.0000 -0.7311317139
O   O71       1.0  0.94906  0.84653  0.60539  1.0000 -0.7311317139
O   O72       1.0  0.24114  0.34367  0.39461  1.0000 -0.7311317139
O   O73       1.0  0.23221  0.78481  0.01442  1.0000 -0.6198678502
O   O74       1.0  0.77039  0.21779  0.98558  1.0000 -0.6198678502
O   O75       1.0  0.46779  0.98221  0.94740  1.0000 -0.6198678502
O   O76       1.0  0.03481  0.52039  0.05260  1.0000 -0.6198678502
O   O77       1.0  0.01779  0.96519  0.48558  1.0000 -0.6198678502
O   O78       1.0  0.47961  0.53221  0.51442  1.0000 -0.6198678502
O   O79       1.0  0.78221  0.76779  0.55260  1.0000 -0.6198678502
O   O80       1.0  0.21519  0.22961  0.44740  1.0000 -0.6198678502
O   O81       1.0  0.19609  0.95593  0.20482  1.0000 -0.7508448325
O   O82       1.0  0.75111  0.99127  0.79518  1.0000 -0.7508448325
O   O83       1.0  0.24127  0.94609  0.74016  1.0000 -0.7508448325
O   O84       1.0  0.20593  0.50111  0.25984  1.0000 -0.7508448325
O   O85       1.0  0.05391  0.79407  0.29518  1.0000 -0.7508448325
O   O86       1.0  0.49889  0.75873  0.70482  1.0000 -0.7508448325
O   O87       1.0  0.00873  0.80391  0.75984  1.0000 -0.7508448325
O   O88       1.0  0.04407  0.24889  0.24016  1.0000 -0.7508448325
O   O89       1.0  0.32523  0.14468  0.20271  1.0000 -0.5173467733
O   O90       1.0  0.94197  0.12252  0.79729  1.0000 -0.5173467733
O   O91       1.0  0.37252  0.07523  0.68055  1.0000 -0.5173467733
O   O92       1.0  0.39468  0.69197  0.31945  1.0000 -0.5173467733
O   O93       1.0  0.92477  0.60532  0.29729  1.0000 -0.5173467733
O   O94       1.0  0.30803  0.62748  0.70271  1.0000 -0.5173467733
O   O95       1.0  0.87748  0.67477  0.81945  1.0000 -0.5173467733
O   O96       1.0  0.85532  0.05803  0.18055  1.0000 -0.5173467733
