# DDEC6 charges by PACMAN v1.1 (https://github.com/mtap-research/PACMAN-charge/)
data_2013[Mn][nan]3[ASR]8
_chemical_formula_sum              "Mn8 H120 C140 O44"
_cell_length_a       16.4674
_cell_length_b       18.1705
_cell_length_c       20.4456
_cell_angle_alpha    64.167
_cell_angle_beta     70.668
_cell_angle_gamma    70.119

_symmetry_space_group_name_H-M    "P 1"
_symmetry_Int_Tables_number       1

loop_
  _symmetry_equiv_pos_as_xyz
  'x, y, z'

loop_
  _atom_site_type_symbol
  _atom_site_label
  _atom_site_symmetry_multiplicity
  _atom_site_fract_x
  _atom_site_fract_y
  _atom_site_fract_z
  _atom_site_occupancy
  _atom_site_charge
Mn  Mn1       1.0  0.64044  0.73887  0.57956  1.0000 1.0459051454
Mn  Mn2       1.0  0.87869  0.66867  0.58638  1.0000 1.0263206088
Mn  Mn3       1.0  0.09031  0.72052  0.62149  1.0000 1.0193135822
Mn  Mn4       1.0  0.32614  0.69810  0.54953  1.0000 1.0193135822
Mn  Mn5       1.0  0.35956  0.26113  0.42044  1.0000 1.0459051454
Mn  Mn6       1.0  0.12131  0.33133  0.41362  1.0000 1.0193135822
Mn  Mn7       1.0  0.90969  0.27948  0.37851  1.0000 1.0193135822
Mn  Mn8       1.0  0.67386  0.30190  0.45047  1.0000 1.0193135822
H   H1        1.0  0.84940  0.40400  0.70730  1.0000 0.1300207886
H   H2        1.0  0.82220  0.27800  0.79220  1.0000 0.149746331
H   H3        1.0  0.60280  0.51880  0.77660  1.0000 0.1367449464
H   H4        1.0  0.57540  0.39290  0.86760  1.0000 0.1300207886
H   H5        1.0  0.84130  0.80420  0.72270  1.0000 0.1300207886
H   H6        1.0  0.61850  0.19060  0.06160  1.0000 0.1212564495
H   H7        1.0  0.58370  0.11790  0.13190  1.0000 0.1300207886
H   H8        1.0  0.68560  0.10940  0.09940  1.0000 0.1300207886
H   H9        1.0  0.41820  0.81330  0.40100  1.0000 0.1212564495
H   H10       1.0  0.58690  0.25590  0.97390  1.0000 0.0920573631
H   H11       1.0  0.55360  0.26380  0.90660  1.0000 0.0920573631
H   H12       1.0  0.43720  0.90350  0.27920  1.0000 0.1367449464
H   H13       1.0  0.65870  0.84640  0.09340  1.0000 0.1300207886
H   H14       1.0  0.59090  0.85800  0.04900  1.0000 0.1300207886
H   H15       1.0  0.69150  0.85080  0.01080  1.0000 0.1367449464
H   H16       1.0  0.81980  0.87020  0.80250  1.0000 0.149746331
H   H17       1.0  0.58120  0.86070  0.73990  1.0000 0.1212564495
H   H18       1.0  0.67790  0.74930  0.38650  1.0000 0.1212564495
H   H19       1.0  0.69900  0.83830  0.26290  1.0000 0.1367449464
H   H20       1.0  0.57470  0.12780  0.82150  1.0000 0.1300207886
H   H21       1.0  0.52420  0.20190  0.85040  1.0000 0.1367449464
H   H22       1.0  0.62610  0.18930  0.81630  1.0000 0.1367449464
H   H23       1.0  0.55710  0.92200  0.82350  1.0000 0.1300207886
H   H24       1.0  0.56120  0.01860  0.86670  1.0000 0.0920573631
H   H25       1.0  0.56240  0.93330  0.93550  1.0000 0.1002243598
H   H26       1.0  0.68450  0.97470  0.15420  1.0000 0.1002243598
H   H27       1.0  0.69720  0.89450  0.13690  1.0000 0.0920573631
H   H28       1.0  0.32280  0.30240  0.81630  1.0000 0.149746331
H   H29       1.0  0.10070  0.22350  0.02480  1.0000 0.1212564495
H   H30       1.0  0.06810  0.15210  0.09790  1.0000 0.1367449464
H   H31       1.0  0.16960  0.14730  0.06580  1.0000 0.1300207886
H   H32       1.0  0.19180  0.01700  0.11530  1.0000 0.0920573631
H   H33       1.0  0.21390  0.93270  0.10240  1.0000 0.1002243598
H   H34       1.0  0.06860  0.27880  0.93370  1.0000 0.1002243598
H   H35       1.0  0.05800  0.27600  0.86100  1.0000 0.1002243598
H   H36       1.0  0.15000  0.87020  0.08250  1.0000 0.1300207886
H   H37       1.0  0.08510  0.87420  0.03900  1.0000 0.1300207886
H   H38       1.0  0.18660  0.86380  0.00340  1.0000 0.149746331
H   H39       1.0  0.08730  0.11960  0.79550  1.0000 0.1300207886
H   H40       1.0  0.03130  0.20050  0.81290  1.0000 0.1367449464
H   H41       1.0  0.13420  0.18730  0.78490  1.0000 0.1367449464
H   H42       1.0  0.05020  0.01740  0.85800  1.0000 0.0920573631
H   H43       1.0  0.07940  0.93060  0.92020  1.0000 0.1002243598
H   H44       1.0  0.05720  0.92180  0.81350  1.0000 0.1300207886
H   H45       1.0  0.31340  0.92230  0.74900  1.0000 0.149746331
H   H46       1.0  0.01130  0.86930  0.29150  1.0000 0.1367449464
H   H47       1.0  0.24270  0.93630  0.21020  1.0000 0.1300207886
H   H48       1.0  0.07780  0.85280  0.73710  1.0000 0.1300207886
H   H49       1.0  0.33333  0.85550  0.67090  1.0000 0.1300207886
H   H50       1.0  0.04390  0.79790  0.40550  1.0000 0.1300207886
H   H51       1.0  0.27540  0.86510  0.32590  1.0000 0.1212564495
H   H52       1.0  0.08240  0.39400  0.79150  1.0000 0.1300207886
H   H53       1.0  0.11850  0.51620  0.70660  1.0000 0.1300207886
H   H54       1.0  0.35970  0.42620  0.73490  1.0000 0.1300207886
H   H55       1.0  0.90760  0.57570  0.81970  1.0000 0.1595840254
H   H56       1.0  0.84790  0.60980  0.76210  1.0000 0.1595840254
H   H57       1.0  0.92130  0.52640  0.76880  1.0000 0.149746331
H   H58       1.0  0.83530  0.89380  0.37520  1.0000 0.149746331
H   H59       1.0  0.79150  0.83610  0.36540  1.0000 0.149746331
H   H60       1.0  0.73590  0.89190  0.41310  1.0000 0.1595840254
H   H61       1.0  0.15060  0.59600  0.29270  1.0000 0.1300207886
H   H62       1.0  0.17780  0.72200  0.20780  1.0000 0.149746331
H   H63       1.0  0.39720  0.48120  0.22340  1.0000 0.1367449464
H   H64       1.0  0.42460  0.60710  0.13240  1.0000 0.1300207886
H   H65       1.0  0.15870  0.19580  0.27730  1.0000 0.1300207886
H   H66       1.0  0.38150  0.80940  0.93840  1.0000 0.1212564495
H   H67       1.0  0.41630  0.88210  0.86810  1.0000 0.1300207886
H   H68       1.0  0.31440  0.89060  0.90060  1.0000 0.1300207886
H   H69       1.0  0.58180  0.18670  0.59900  1.0000 0.1212564495
H   H70       1.0  0.41310  0.74410  0.02610  1.0000 0.0920573631
H   H71       1.0  0.44640  0.73620  0.09340  1.0000 0.0920573631
H   H72       1.0  0.56280  0.09650  0.72080  1.0000 0.1367449464
H   H73       1.0  0.34130  0.15360  0.90660  1.0000 0.1300207886
H   H74       1.0  0.40910  0.14200  0.95100  1.0000 0.1300207886
H   H75       1.0  0.30850  0.14920  0.98920  1.0000 0.1367449464
H   H76       1.0  0.18020  0.12980  0.19750  1.0000 0.149746331
H   H77       1.0  0.41880  0.13930  0.26010  1.0000 0.1212564495
H   H78       1.0  0.32210  0.25070  0.61350  1.0000 0.1212564495
H   H79       1.0  0.30100  0.16170  0.73710  1.0000 0.1367449464
H   H80       1.0  0.42530  0.87220  0.17850  1.0000 0.1300207886
H   H81       1.0  0.47580  0.79810  0.14960  1.0000 0.1367449464
H   H82       1.0  0.37390  0.81070  0.18370  1.0000 0.1367449464
H   H83       1.0  0.44290  0.07800  0.17650  1.0000 0.1300207886
H   H84       1.0  0.43880  0.98140  0.13330  1.0000 0.0920573631
H   H85       1.0  0.43760  0.06670  0.06450  1.0000 0.1002243598
H   H86       1.0  0.31550  0.02530  0.84580  1.0000 0.1002243598
H   H87       1.0  0.30280  0.10550  0.86310  1.0000 0.0920573631
H   H88       1.0  0.67720  0.69760  0.18370  1.0000 0.149746331
H   H89       1.0  0.89930  0.77650  0.97520  1.0000 0.1212564495
H   H90       1.0  0.93190  0.84790  0.90210  1.0000 0.1367449464
H   H91       1.0  0.83040  0.85270  0.93420  1.0000 0.1300207886
H   H92       1.0  0.80820  0.98300  0.88470  1.0000 0.0920573631
H   H93       1.0  0.78610  0.06730  0.89760  1.0000 0.1002243598
H   H94       1.0  0.93140  0.72120  0.06630  1.0000 0.1002243598
H   H95       1.0  0.94200  0.72400  0.13900  1.0000 0.0920573631
H   H96       1.0  0.85000  0.12980  0.91750  1.0000 0.1300207886
H   H97       1.0  0.91490  0.12580  0.96100  1.0000 0.1300207886
H   H98       1.0  0.81340  0.13620  0.99660  1.0000 0.149746331
H   H99       1.0  0.91270  0.88040  0.20450  1.0000 0.1300207886
H   H100      1.0  0.96870  0.79950  0.18710  1.0000 0.1367449464
H   H101      1.0  0.86580  0.81270  0.21510  1.0000 0.1367449464
H   H102      1.0  0.94980  0.98260  0.14200  1.0000 0.0920573631
H   H103      1.0  0.92060  0.06940  0.07980  1.0000 0.1002243598
H   H104      1.0  0.94280  0.07820  0.18650  1.0000 0.1300207886
H   H105      1.0  0.68660  0.07770  0.25100  1.0000 0.149746331
H   H106      1.0  0.98870  0.13070  0.70850  1.0000 0.1367449464
H   H107      1.0  0.75730  0.06370  0.78980  1.0000 0.1300207886
H   H108      1.0  0.92220  0.14720  0.26290  1.0000 0.1300207886
H   H109      1.0  0.66667  0.14450  0.32910  1.0000 0.1300207886
H   H110      1.0  0.95610  0.20210  0.59450  1.0000 0.1300207886
H   H111      1.0  0.72460  0.13490  0.67410  1.0000 0.1212564495
H   H112      1.0  0.91760  0.60600  0.20850  1.0000 0.1300207886
H   H113      1.0  0.88150  0.48380  0.29340  1.0000 0.1300207886
H   H114      1.0  0.64030  0.57380  0.26510  1.0000 0.1300207886
H   H115      1.0  0.09240  0.42430  0.18030  1.0000 0.1595840254
H   H116      1.0  0.15210  0.39020  0.23790  1.0000 0.1595840254
H   H117      1.0  0.07870  0.47360  0.23120  1.0000 0.149746331
H   H118      1.0  0.16470  0.10620  0.62480  1.0000 0.149746331
H   H119      1.0  0.20850  0.16390  0.63460  1.0000 0.149746331
H   H120      1.0  0.26410  0.10810  0.58690  1.0000 0.1595840254
C   C1        1.0  0.53230  0.72070  0.48860  1.0000 0.5878696167
C   C2        1.0  0.79400  0.40160  0.73910  1.0000 -0.0802473656
C   C3        1.0  0.77820  0.32690  0.78970  1.0000 -0.2095814193
C   C4        1.0  0.64750  0.47010  0.78090  1.0000 -0.0714993327
C   C5        1.0  0.69510  0.32300  0.83870  1.0000 0.2582279169
C   C6        1.0  0.63020  0.39470  0.83470  1.0000 -0.2286790437
C   C7        1.0  0.78420  0.82900  0.74200  1.0000 -0.0802473656
C   C8        1.0  0.62850  0.13080  0.08710  1.0000 -0.4700062773
C   C9        1.0  0.47490  0.81870  0.37340  1.0000 -0.0802473656
C   C10       1.0  0.59960  0.23420  0.93490  1.0000 -0.0596644709
C   C11       1.0  0.48610  0.87220  0.30040  1.0000 -0.2166432615
C   C12       1.0  0.74400  0.55980  0.67470  1.0000 0.5878696167
C   C13       1.0  0.64400  0.87170  0.04540  1.0000 -0.4796907978
C   C14       1.0  0.77140  0.86790  0.79010  1.0000 -0.2166432615
C   C15       1.0  0.62950  0.86210  0.75310  1.0000 -0.0802473656
C   C16       1.0  0.62930  0.78030  0.36480  1.0000 -0.0889893548
C   C17       1.0  0.64210  0.83370  0.29050  1.0000 -0.2356997407
C   C18       1.0  0.72850  0.47510  0.73380  1.0000 -0.0380506492
C   C19       1.0  0.57890  0.16110  0.84560  1.0000 -0.4796907978
C   C20       1.0  0.71340  0.82600  0.72170  1.0000 -0.0277878376
C   C21       1.0  0.57070  0.87980  0.25790  1.0000 0.2582279169
C   C22       1.0  0.61440  0.89970  0.80230  1.0000 -0.2286790437
C   C23       1.0  0.72670  0.78580  0.66640  1.0000 0.5878696167
C   C24       1.0  0.68690  0.90370  0.82020  1.0000 0.2508036419
C   C25       1.0  0.59460  0.97690  0.90370  1.0000 -0.0596644709
C   C26       1.0  0.62470  0.09080  0.03770  1.0000 0.0825084114
C   C27       1.0  0.62970  0.96630  0.01840  1.0000 0.0825084114
C   C28       1.0  0.54590  0.77290  0.40650  1.0000 -0.0380506492
C   C29       1.0  0.60580  0.14050  0.96750  1.0000 -0.0534757261
C   C30       1.0  0.63830  0.00290  0.06230  1.0000 -0.0534757261
C   C31       1.0  0.65750  0.94770  0.13780  1.0000 -0.0534757261
C   C32       1.0  0.60690  0.01680  0.94890  1.0000 -0.0596644709
C   C33       1.0  0.59750  0.10410  0.92260  1.0000 0.0825084114
C   C34       1.0  0.27920  0.34710  0.79530  1.0000 -0.2166432615
C   C35       1.0  0.19800  0.33700  0.81430  1.0000 0.2227455848
C   C36       1.0  0.11310  0.16420  0.05320  1.0000 -0.4700062773
C   C37       1.0  0.16690  0.98080  0.10770  1.0000 -0.0596644709
C   C38       1.0  0.11470  0.11620  0.00710  1.0000 0.0825084114
C   C39       1.0  0.09410  0.25120  0.89770  1.0000 -0.0596644709
C   C40       1.0  0.13230  0.02800  0.03730  1.0000 -0.0534757261
C   C41       1.0  0.13780  0.88940  0.03410  1.0000 -0.4796907978
C   C42       1.0  0.10000  0.15890  0.93540  1.0000 -0.0534757261
C   C43       1.0  0.08660  0.15960  0.81460  1.0000 -0.4889991707
C   C44       1.0  0.12480  0.98390  0.99870  1.0000 0.0825084114
C   C45       1.0  0.09770  0.11440  0.89500  1.0000 0.0920573631
C   C46       1.0  0.10580  0.02720  0.92780  1.0000 -0.0534757261
C   C47       1.0  0.09610  0.98300  0.88600  1.0000 -0.0714993327
C   C48       1.0  0.18400  0.92750  0.79040  1.0000 0.2508036419
C   C49       1.0  0.12410  0.91030  0.23830  1.0000 0.2508036419
C   C50       1.0  0.11330  0.90740  0.78560  1.0000 -0.2286790437
C   C51       1.0  0.26560  0.90780  0.74680  1.0000 -0.2095814193
C   C52       1.0  0.06480  0.86830  0.29840  1.0000 -0.2095814193
C   C53       1.0  0.20250  0.90850  0.24970  1.0000 -0.2286790437
C   C54       1.0  0.12600  0.86620  0.73970  1.0000 -0.0714993327
C   C55       1.0  0.27780  0.86740  0.70050  1.0000 -0.0714993327
C   C56       1.0  0.08420  0.82610  0.36640  1.0000 -0.0714993327
C   C57       1.0  0.22200  0.86590  0.31910  1.0000 -0.0802473656
C   C58       1.0  0.20800  0.84370  0.69700  1.0000 -0.0596644709
C   C59       1.0  0.16250  0.82360  0.37960  1.0000 -0.0380506492
C   C60       1.0  0.24260  0.48550  0.71320  1.0000 -0.0277878376
C   C61       1.0  0.18250  0.78310  0.45540  1.0000 0.583494914
C   C62       1.0  0.26550  0.56720  0.65730  1.0000 0.5878696167
C   C63       1.0  0.14000  0.39960  0.78070  1.0000 -0.2095814193
C   C64       1.0  0.16160  0.47330  0.73010  1.0000 -0.0889893548
C   C65       1.0  0.21970  0.79660  0.65020  1.0000 0.5878696167
C   C66       1.0  0.30190  0.42130  0.74570  1.0000 -0.0889893548
C   C67       1.0  0.97200  0.63110  0.71300  1.0000 0.6743259156
C   C68       1.0  0.90620  0.58120  0.77120  1.0000 -0.5938624418
C   C69       1.0  0.82050  0.78920  0.46660  1.0000 0.6851055944
C   C70       1.0  0.79340  0.85890  0.39910  1.0000 -0.619465468
C   C71       1.0  0.46770  0.27930  0.51140  1.0000 0.5955058062
C   C72       1.0  0.20600  0.59840  0.26090  1.0000 -0.0802473656
C   C73       1.0  0.22180  0.67310  0.21030  1.0000 -0.2095814193
C   C74       1.0  0.35250  0.52990  0.21910  1.0000 -0.0714993327
C   C75       1.0  0.30490  0.67700  0.16130  1.0000 0.2582279169
C   C76       1.0  0.36980  0.60530  0.16530  1.0000 -0.2286790437
C   C77       1.0  0.21580  0.17100  0.25800  1.0000 -0.0802473656
C   C78       1.0  0.37150  0.86920  0.91290  1.0000 -0.4700062773
C   C79       1.0  0.52510  0.18130  0.62660  1.0000 -0.0802473656
C   C80       1.0  0.40040  0.76580  0.06510  1.0000 -0.0596644709
C   C81       1.0  0.51390  0.12780  0.69960  1.0000 -0.2166432615
C   C82       1.0  0.25600  0.44020  0.32530  1.0000 0.583494914
C   C83       1.0  0.35600  0.12830  0.95460  1.0000 -0.4796907978
C   C84       1.0  0.22860  0.13210  0.20990  1.0000 -0.2166432615
C   C85       1.0  0.37050  0.13790  0.24690  1.0000 -0.0802473656
C   C86       1.0  0.37070  0.21970  0.63520  1.0000 -0.0889893548
C   C87       1.0  0.35790  0.16630  0.70950  1.0000 -0.2356997407
C   C88       1.0  0.27150  0.52490  0.26620  1.0000 -0.0380506492
C   C89       1.0  0.42110  0.83890  0.15440  1.0000 -0.4796907978
C   C90       1.0  0.28660  0.17400  0.27830  1.0000 -0.0277878376
C   C91       1.0  0.42930  0.12020  0.74210  1.0000 0.2582279169
C   C92       1.0  0.38560  0.10030  0.19770  1.0000 -0.2286790437
C   C93       1.0  0.27330  0.21420  0.33360  1.0000 0.5878696167
C   C94       1.0  0.31310  0.09630  0.17980  1.0000 0.2508036419
C   C95       1.0  0.40540  0.02310  0.09630  1.0000 -0.0596644709
C   C96       1.0  0.37530  0.90920  0.96230  1.0000 0.0825084114
C   C97       1.0  0.37030  0.03370  0.98160  1.0000 0.0825084114
C   C98       1.0  0.45410  0.22710  0.59350  1.0000 -0.0380506492
C   C99       1.0  0.39420  0.85950  0.03250  1.0000 -0.0534757261
C   C100      1.0  0.36170  0.99710  0.93770  1.0000 -0.0596644709
C   C101      1.0  0.34250  0.05230  0.86220  1.0000 -0.0534757261
C   C102      1.0  0.39310  0.98320  0.05110  1.0000 -0.0596644709
C   C103      1.0  0.40250  0.89590  0.07740  1.0000 0.0825084114
C   C104      1.0  0.72080  0.65290  0.20470  1.0000 -0.2166432615
C   C105      1.0  0.80200  0.66300  0.18570  1.0000 0.2227455848
C   C106      1.0  0.88690  0.83580  0.94680  1.0000 -0.4700062773
C   C107      1.0  0.83310  0.01920  0.89230  1.0000 -0.0534757261
C   C108      1.0  0.88530  0.88380  0.99290  1.0000 0.0825084114
C   C109      1.0  0.90590  0.74880  0.10230  1.0000 -0.0596644709
C   C110      1.0  0.86770  0.97200  0.96270  1.0000 -0.0596644709
C   C111      1.0  0.86220  0.11060  0.96590  1.0000 -0.4796907978
C   C112      1.0  0.90000  0.84110  0.06460  1.0000 -0.0534757261
C   C113      1.0  0.91340  0.84040  0.18540  1.0000 -0.4889991707
C   C114      1.0  0.87520  0.01610  0.00130  1.0000 0.0825084114
C   C115      1.0  0.90230  0.88560  0.10500  1.0000 0.0920573631
C   C116      1.0  0.89420  0.97280  0.07220  1.0000 -0.0534757261
C   C117      1.0  0.90390  0.01700  0.11400  1.0000 -0.0714993327
C   C118      1.0  0.81600  0.07250  0.20960  1.0000 0.2508036419
C   C119      1.0  0.87590  0.08970  0.76170  1.0000 0.2508036419
C   C120      1.0  0.88670  0.09260  0.21440  1.0000 -0.2286790437
C   C121      1.0  0.73440  0.09220  0.25320  1.0000 -0.2095814193
C   C122      1.0  0.93520  0.13170  0.70160  1.0000 -0.2095814193
C   C123      1.0  0.79750  0.09150  0.75030  1.0000 -0.2286790437
C   C124      1.0  0.87400  0.13380  0.26030  1.0000 -0.0714993327
C   C125      1.0  0.72220  0.13260  0.29950  1.0000 -0.0714993327
C   C126      1.0  0.91580  0.17390  0.63360  1.0000 -0.0714993327
C   C127      1.0  0.77800  0.13410  0.68090  1.0000 -0.0802473656
C   C128      1.0  0.79200  0.15630  0.30300  1.0000 -0.0596644709
C   C129      1.0  0.83750  0.17640  0.62040  1.0000 -0.0380506492
C   C130      1.0  0.75740  0.51450  0.28680  1.0000 -0.0277878376
C   C131      1.0  0.81750  0.21690  0.54460  1.0000 0.583494914
C   C132      1.0  0.73450  0.43280  0.34270  1.0000 0.5878696167
C   C133      1.0  0.86000  0.60040  0.21930  1.0000 -0.2095814193
C   C134      1.0  0.83840  0.52670  0.26990  1.0000 -0.0889893548
C   C135      1.0  0.78030  0.20340  0.34980  1.0000 0.5878696167
C   C136      1.0  0.69810  0.57870  0.25430  1.0000 -0.0889893548
C   C137      1.0  0.02800  0.36890  0.28700  1.0000 0.6756213033
C   C138      1.0  0.09380  0.41880  0.22880  1.0000 -0.5956005729
C   C139      1.0  0.17950  0.21080  0.53340  1.0000 0.6851055944
C   C140      1.0  0.20660  0.14110  0.60090  1.0000 -0.619465468
O   O1        1.0  0.59790  0.69080  0.51850  1.0000 -0.5598338946
O   O2        1.0  0.45680  0.71110  0.52330  1.0000 -0.5376481987
O   O3        1.0  0.82440  0.56260  0.64600  1.0000 -0.5700282795
O   O4        1.0  0.66490  0.79930  0.63930  1.0000 -0.5598338946
O   O5        1.0  0.80280  0.74190  0.65260  1.0000 -0.5700282795
O   O6        1.0  0.67880  0.61610  0.65910  1.0000 -0.5308782584
O   O7        1.0  0.57380  0.93500  0.18640  1.0000 -0.1918114903
O   O8        1.0  0.68090  0.94130  0.86790  1.0000 -0.1990576549
O   O9        1.0  0.68570  0.24370  0.88700  1.0000 -0.1918114903
O   O10       1.0  0.09880  0.95270  0.17130  1.0000 -0.1918114903
O   O11       1.0  0.15210  0.77730  0.65340  1.0000 -0.5700282795
O   O12       1.0  0.18390  0.25940  0.86260  1.0000 -0.1918114903
O   O13       1.0  0.21040  0.62120  0.62060  1.0000 -0.5598338946
O   O14       1.0  0.12070  0.75220  0.50700  1.0000 -0.5598338946
O   O15       1.0  0.29260  0.78020  0.60950  1.0000 -0.5081168092
O   O16       1.0  0.33920  0.57770  0.64820  1.0000 -0.4889991707
O   O17       1.0  0.17950  0.96640  0.83600  1.0000 -0.1990576549
O   O18       1.0  0.25400  0.78110  0.46470  1.0000 -0.5700282795
O   O19       1.0  0.98120  0.64450  0.64490  1.0000 -0.5956005729
O   O20       1.0  0.01610  0.65830  0.73190  1.0000 -0.5308782584
O   O21       1.0  0.77320  0.73670  0.50750  1.0000 -0.6065904176
O   O22       1.0  0.89130  0.78090  0.48250  1.0000 -0.553801415
O   O23       1.0  0.40210  0.30920  0.48150  1.0000 -0.5598338946
O   O24       1.0  0.54320  0.28890  0.47670  1.0000 -0.5376481987
O   O25       1.0  0.17560  0.43740  0.35400  1.0000 -0.5700282795
O   O26       1.0  0.33510  0.20070  0.36070  1.0000 -0.5598338946
O   O27       1.0  0.19720  0.25810  0.34740  1.0000 -0.5700282795
O   O28       1.0  0.32120  0.38390  0.34090  1.0000 -0.5308782584
O   O29       1.0  0.42620  0.06500  0.81360  1.0000 -0.1918114903
O   O30       1.0  0.31910  0.05870  0.13210  1.0000 -0.1990576549
O   O31       1.0  0.31430  0.75630  0.11300  1.0000 -0.1918114903
O   O32       1.0  0.90120  0.04730  0.82870  1.0000 -0.1918114903
O   O33       1.0  0.84790  0.22270  0.34660  1.0000 -0.5700282795
O   O34       1.0  0.81610  0.74060  0.13740  1.0000 -0.1918114903
O   O35       1.0  0.78960  0.37880  0.37940  1.0000 -0.5598338946
O   O36       1.0  0.87930  0.24780  0.49300  1.0000 -0.5700282795
O   O37       1.0  0.70740  0.21980  0.39050  1.0000 -0.5081168092
O   O38       1.0  0.66080  0.42230  0.35180  1.0000 -0.4889991707
O   O39       1.0  0.82050  0.03360  0.16400  1.0000 -0.1990576549
O   O40       1.0  0.74600  0.21890  0.53530  1.0000 -0.5700282795
O   O41       1.0  0.01880  0.35550  0.35510  1.0000 -0.5938624418
O   O42       1.0  0.98390  0.34170  0.26810  1.0000 -0.5308782584
O   O43       1.0  0.22680  0.26330  0.49250  1.0000 -0.6065904176
O   O44       1.0  0.10870  0.21910  0.51750  1.0000 -0.553801415
