# DDEC6 charges by PACMAN v1.1 (https://github.com/mtap-research/PACMAN-charge/)
data_2013[Cu][nts]3[ASR]1
_chemical_formula_sum              "Cu24 H120 C288 N72 O96"
_cell_length_a       31.2456
_cell_length_b       31.2456
_cell_length_c       31.2456
_cell_angle_alpha    120.943
_cell_angle_beta     120.943
_cell_angle_gamma    88.3742

_symmetry_space_group_name_H-M    "P 1"
_symmetry_Int_Tables_number       1

loop_
  _symmetry_equiv_pos_as_xyz
  'x, y, z'

loop_
  _atom_site_type_symbol
  _atom_site_label
  _atom_site_symmetry_multiplicity
  _atom_site_fract_x
  _atom_site_fract_y
  _atom_site_fract_z
  _atom_site_occupancy
  _atom_site_charge
Cu  Cu1       1.0  0.52908  0.47766  0.75028  1.0000 0.8595308031
Cu  Cu2       1.0  0.72738  0.77880  0.24972  1.0000 0.8595308031
Cu  Cu3       1.0  0.47766  0.72738  0.94858  1.0000 0.8595308031
Cu  Cu4       1.0  0.77880  0.52908  0.05142  1.0000 0.8595308031
Cu  Cu5       1.0  0.47092  0.52234  0.24972  1.0000 0.8595308031
Cu  Cu6       1.0  0.27262  0.22120  0.75028  1.0000 0.8595308031
Cu  Cu7       1.0  0.52234  0.27262  0.05142  1.0000 0.8595308031
Cu  Cu8       1.0  0.22120  0.47092  0.94858  1.0000 0.8595308031
Cu  Cu9       1.0  0.53532  0.46688  0.66354  1.0000 0.8679985899
Cu  Cu10      1.0  0.80334  0.87178  0.33646  1.0000 0.8679985899
Cu  Cu11      1.0  0.46688  0.80334  0.93156  1.0000 0.8679985899
Cu  Cu12      1.0  0.87178  0.53532  0.06844  1.0000 0.8679985899
Cu  Cu13      1.0  0.46468  0.53312  0.33646  1.0000 0.8679985899
Cu  Cu14      1.0  0.19666  0.12822  0.66354  1.0000 0.8679985899
Cu  Cu15      1.0  0.53312  0.19666  0.06844  1.0000 0.8679985899
Cu  Cu16      1.0  0.12822  0.46468  0.93156  1.0000 0.8679985899
Cu  Cu17      1.0  0.25059  0.45119  0.70178  1.0000 0.8679985899
Cu  Cu18      1.0  0.74941  0.54881  0.29822  1.0000 0.8679985899
Cu  Cu19      1.0  0.45119  0.74941  0.20060  1.0000 0.8595308031
Cu  Cu20      1.0  0.54881  0.25059  0.79940  1.0000 0.8679985899
Cu  Cu21      1.0  0.16554  0.43513  0.60067  1.0000 0.8679985899
Cu  Cu22      1.0  0.83446  0.56487  0.39933  1.0000 0.8679985899
Cu  Cu23      1.0  0.43513  0.83446  0.26959  1.0000 0.8679985899
Cu  Cu24      1.0  0.56487  0.16554  0.73041  1.0000 0.8679985899
H   H1        1.0  0.23100  0.41040  0.50460  1.0000 0.1404606551
H   H2        1.0  0.90580  0.72640  0.49540  1.0000 0.1404606551
H   H3        1.0  0.41040  0.90580  0.17940  1.0000 0.1404606551
H   H4        1.0  0.72640  0.23100  0.82060  1.0000 0.1404606551
H   H5        1.0  0.76900  0.58960  0.49540  1.0000 0.1404606551
H   H6        1.0  0.09420  0.27360  0.50460  1.0000 0.1404606551
H   H7        1.0  0.58960  0.09420  0.82060  1.0000 0.1404606551
H   H8        1.0  0.27360  0.76900  0.17940  1.0000 0.1404606551
H   H9        1.0  0.37130  0.42700  0.52690  1.0000 0.148060421
H   H10       1.0  0.90010  0.84440  0.47310  1.0000 0.148060421
H   H11       1.0  0.42700  0.90010  0.05570  1.0000 0.1404606551
H   H12       1.0  0.84440  0.37130  0.94430  1.0000 0.148060421
H   H13       1.0  0.62870  0.57300  0.47310  1.0000 0.148060421
H   H14       1.0  0.09990  0.15560  0.52690  1.0000 0.148060421
H   H15       1.0  0.57300  0.09990  0.94430  1.0000 0.148060421
H   H16       1.0  0.15560  0.62870  0.05570  1.0000 0.1404606551
H   H17       1.0  0.36340  0.43620  0.65700  1.0000 0.148060421
H   H18       1.0  0.77920  0.70640  0.34300  1.0000 0.148060421
H   H19       1.0  0.43620  0.77920  0.07280  1.0000 0.148060421
H   H20       1.0  0.70640  0.36340  0.92720  1.0000 0.148060421
H   H21       1.0  0.63660  0.56380  0.34300  1.0000 0.148060421
H   H22       1.0  0.22080  0.29360  0.65700  1.0000 0.148060421
H   H23       1.0  0.56380  0.22080  0.92720  1.0000 0.148060421
H   H24       1.0  0.29360  0.63660  0.07280  1.0000 0.148060421
H   H25       1.0  0.20950  0.44190  0.44500  1.0000 0.1287842846
H   H26       1.0  0.99690  0.76450  0.55500  1.0000 0.1287842846
H   H27       1.0  0.44190  0.99690  0.23240  1.0000 0.1287842846
H   H28       1.0  0.76450  0.20950  0.76760  1.0000 0.1287842846
H   H29       1.0  0.79050  0.55810  0.55500  1.0000 0.1287842846
H   H30       1.0  0.00310  0.23550  0.44500  1.0000 0.1287842846
H   H31       1.0  0.55810  0.00310  0.76760  1.0000 0.1287842846
H   H32       1.0  0.23550  0.79050  0.23240  1.0000 0.1287842846
H   H33       1.0  0.13440  0.43800  0.36280  1.0000 0.1189825803
H   H34       1.0  0.07520  0.77160  0.63720  1.0000 0.1189825803
H   H35       1.0  0.43800  0.07520  0.30360  1.0000 0.1189825803
H   H36       1.0  0.77160  0.13440  0.69640  1.0000 0.1189825803
H   H37       1.0  0.86560  0.56200  0.63720  1.0000 0.1189825803
H   H38       1.0  0.92480  0.22840  0.36280  1.0000 0.1189825803
H   H39       1.0  0.56200  0.92480  0.69640  1.0000 0.1189825803
H   H40       1.0  0.22840  0.86560  0.30360  1.0000 0.1189825803
H   H41       1.0  0.08480  0.46370  0.23250  1.0000 0.1189825803
H   H42       1.0  0.23120  0.85230  0.76750  1.0000 0.1189825803
H   H43       1.0  0.46370  0.23120  0.37890  1.0000 0.1189825803
H   H44       1.0  0.85230  0.08480  0.62110  1.0000 0.1146216118
H   H45       1.0  0.91520  0.53630  0.76750  1.0000 0.1189825803
H   H46       1.0  0.76880  0.14770  0.23250  1.0000 0.1189825803
H   H47       1.0  0.53630  0.76880  0.62110  1.0000 0.1189825803
H   H48       1.0  0.14770  0.91520  0.37890  1.0000 0.1189825803
H   H49       1.0  0.21630  0.41990  0.28900  1.0000 0.1189825803
H   H50       1.0  0.13090  0.92730  0.71100  1.0000 0.1189825803
H   H51       1.0  0.41990  0.13090  0.20360  1.0000 0.1189825803
H   H52       1.0  0.92730  0.21630  0.79640  1.0000 0.1189825803
H   H53       1.0  0.78370  0.58010  0.71100  1.0000 0.1189825803
H   H54       1.0  0.86910  0.07270  0.28900  1.0000 0.1189825803
H   H55       1.0  0.58010  0.86910  0.79640  1.0000 0.1189825803
H   H56       1.0  0.07270  0.78370  0.20360  1.0000 0.1189825803
H   H57       1.0  0.01780  0.48830  0.24230  1.0000 0.1287842846
H   H58       1.0  0.24600  0.77550  0.75770  1.0000 0.1189825803
H   H59       1.0  0.48830  0.24600  0.47050  1.0000 0.1189825803
H   H60       1.0  0.77550  0.01780  0.52950  1.0000 0.1287842846
H   H61       1.0  0.98220  0.51170  0.75770  1.0000 0.1189825803
H   H62       1.0  0.75400  0.22450  0.24230  1.0000 0.1287842846
H   H63       1.0  0.51170  0.75400  0.52950  1.0000 0.1189825803
H   H64       1.0  0.22450  0.98220  0.47050  1.0000 0.1189825803
H   H65       1.0  0.94560  0.50650  0.20590  1.0000 0.1404606551
H   H66       1.0  0.30060  0.73970  0.79410  1.0000 0.1404606551
H   H67       1.0  0.50650  0.30060  0.56090  1.0000 0.1404606551
H   H68       1.0  0.73970  0.94560  0.43910  1.0000 0.1404606551
H   H69       1.0  0.05440  0.49350  0.79410  1.0000 0.1404606551
H   H70       1.0  0.69940  0.26030  0.20590  1.0000 0.1404606551
H   H71       1.0  0.49350  0.69940  0.43910  1.0000 0.1404606551
H   H72       1.0  0.26030  0.05440  0.56090  1.0000 0.1287842846
H   H73       1.0  0.82080  0.53830  0.21070  1.0000 0.148060421
H   H74       1.0  0.32760  0.61010  0.78930  1.0000 0.148060421
H   H75       1.0  0.53830  0.32760  0.71750  1.0000 0.148060421
H   H76       1.0  0.61010  0.82080  0.28250  1.0000 0.148060421
H   H77       1.0  0.17920  0.46170  0.78930  1.0000 0.148060421
H   H78       1.0  0.67240  0.38990  0.21070  1.0000 0.148060421
H   H79       1.0  0.46170  0.67240  0.28250  1.0000 0.148060421
H   H80       1.0  0.38990  0.17920  0.71750  1.0000 0.148060421
H   H81       1.0  0.93580  0.51980  0.33680  1.0000 0.1404606551
H   H82       1.0  0.18300  0.59900  0.66320  1.0000 0.1404606551
H   H83       1.0  0.51980  0.18300  0.58400  1.0000 0.1404606551
H   H84       1.0  0.59900  0.93580  0.41600  1.0000 0.1404606551
H   H85       1.0  0.06420  0.48020  0.66320  1.0000 0.1404606551
H   H86       1.0  0.81700  0.40100  0.33680  1.0000 0.1404606551
H   H87       1.0  0.48020  0.81700  0.41600  1.0000 0.1404606551
H   H88       1.0  0.40100  0.06420  0.58400  1.0000 0.1404606551
H   H89       1.0  0.23800  0.45030  0.24490  1.0000 0.1287842846
H   H90       1.0  0.20540  0.99310  0.75510  1.0000 0.1287842846
H   H91       1.0  0.45030  0.20540  0.21230  1.0000 0.1287842846
H   H92       1.0  0.99310  0.23800  0.78770  1.0000 0.1287842846
H   H93       1.0  0.76200  0.54970  0.75510  1.0000 0.1287842846
H   H94       1.0  0.79460  0.00690  0.24490  1.0000 0.1287842846
H   H95       1.0  0.54970  0.79460  0.78770  1.0000 0.1287842846
H   H96       1.0  0.00690  0.76200  0.21230  1.0000 0.1287842846
H   H97       1.0  0.29570  0.48230  0.23540  1.0000 0.1404606551
H   H98       1.0  0.24690  0.06030  0.76460  1.0000 0.1404606551
H   H99       1.0  0.48230  0.24690  0.18660  1.0000 0.1404606551
H   H100      1.0  0.06030  0.29570  0.81340  1.0000 0.1404606551
H   H101      1.0  0.70430  0.51770  0.76460  1.0000 0.1404606551
H   H102      1.0  0.75310  0.93970  0.23540  1.0000 0.1404606551
H   H103      1.0  0.51770  0.75310  0.81340  1.0000 0.1404606551
H   H104      1.0  0.93970  0.70430  0.18660  1.0000 0.1404606551
H   H105      1.0  0.30920  0.48300  0.11340  1.0000 0.148060421
H   H106      1.0  0.36960  0.19580  0.88660  1.0000 0.148060421
H   H107      1.0  0.48300  0.36960  0.17380  1.0000 0.148060421
H   H108      1.0  0.19580  0.30920  0.82620  1.0000 0.148060421
H   H109      1.0  0.69080  0.51700  0.88660  1.0000 0.148060421
H   H110      1.0  0.63040  0.80420  0.11340  1.0000 0.148060421
H   H111      1.0  0.51700  0.63040  0.82620  1.0000 0.148060421
H   H112      1.0  0.80420  0.69080  0.17380  1.0000 0.148060421
H   H113      1.0  0.16580  0.45450  0.07890  1.0000 0.1404606551
H   H114      1.0  0.37560  0.08690  0.92110  1.0000 0.1404606551
H   H115      1.0  0.45450  0.37560  0.28870  1.0000 0.1404606551
H   H116      1.0  0.08690  0.16580  0.71130  1.0000 0.1404606551
H   H117      1.0  0.83420  0.54550  0.92110  1.0000 0.1404606551
H   H118      1.0  0.62440  0.91310  0.07890  1.0000 0.1404606551
H   H119      1.0  0.54550  0.62440  0.71130  1.0000 0.1404606551
H   H120      1.0  0.91310  0.83420  0.28870  1.0000 0.1404606551
C   C1        1.0  0.29314  0.42502  0.58514  1.0000 0.0053109173
C   C2        1.0  0.83988  0.70800  0.41486  1.0000 0.0053109173
C   C3        1.0  0.42502  0.83988  0.13188  1.0000 0.0033872719
C   C4        1.0  0.70800  0.29314  0.86812  1.0000 0.0053109173
C   C5        1.0  0.70686  0.57498  0.41486  1.0000 0.0053109173
C   C6        1.0  0.16012  0.29200  0.58514  1.0000 0.0053109173
C   C7        1.0  0.57498  0.16012  0.86812  1.0000 0.0053109173
C   C8        1.0  0.29200  0.70686  0.13188  1.0000 0.0033872719
C   C9        1.0  0.26796  0.41711  0.52895  1.0000 -0.1718312404
C   C10       1.0  0.88816  0.73901  0.47105  1.0000 -0.1718312404
C   C11       1.0  0.41711  0.88816  0.14915  1.0000 -0.1718312404
C   C12       1.0  0.73901  0.26796  0.85085  1.0000 -0.1718312404
C   C13       1.0  0.73204  0.58289  0.47105  1.0000 -0.1718312404
C   C14       1.0  0.11184  0.26099  0.52895  1.0000 -0.1718312404
C   C15       1.0  0.58289  0.11184  0.85085  1.0000 -0.1718312404
C   C16       1.0  0.26099  0.73204  0.14915  1.0000 -0.1718312404
C   C17       1.0  0.29857  0.41918  0.50853  1.0000 0.148060421
C   C18       1.0  0.91065  0.79004  0.49147  1.0000 0.148060421
C   C19       1.0  0.41918  0.91065  0.12061  1.0000 0.148060421
C   C20       1.0  0.79004  0.29857  0.87939  1.0000 0.148060421
C   C21       1.0  0.70143  0.58082  0.49147  1.0000 0.148060421
C   C22       1.0  0.08935  0.20996  0.50853  1.0000 0.148060421
C   C23       1.0  0.58082  0.08935  0.87939  1.0000 0.148060421
C   C24       1.0  0.20996  0.70143  0.12061  1.0000 0.148060421
C   C25       1.0  0.35128  0.42621  0.54151  1.0000 -0.1599664838
C   C26       1.0  0.88470  0.80977  0.45849  1.0000 -0.1599664838
C   C27       1.0  0.42621  0.88470  0.07493  1.0000 -0.1599664838
C   C28       1.0  0.80977  0.35128  0.92507  1.0000 -0.1599664838
C   C29       1.0  0.64872  0.57379  0.45849  1.0000 -0.1599664838
C   C30       1.0  0.11530  0.19023  0.54151  1.0000 -0.1599664838
C   C31       1.0  0.57379  0.11530  0.92507  1.0000 -0.1599664838
C   C32       1.0  0.19023  0.64872  0.07493  1.0000 -0.1599664838
C   C33       1.0  0.37508  0.43218  0.59694  1.0000 -0.0042644219
C   C34       1.0  0.83524  0.77814  0.40306  1.0000 -0.0042644219
C   C35       1.0  0.43218  0.83524  0.05710  1.0000 -0.0042644219
C   C36       1.0  0.77814  0.37508  0.94290  1.0000 -0.0042644219
C   C37       1.0  0.62492  0.56782  0.40306  1.0000 -0.0042644219
C   C38       1.0  0.16476  0.22186  0.59694  1.0000 -0.0042644219
C   C39       1.0  0.56782  0.16476  0.94290  1.0000 -0.0042644219
C   C40       1.0  0.22186  0.62492  0.05710  1.0000 -0.0042644219
C   C41       1.0  0.34654  0.43181  0.61893  1.0000 -0.1083011096
C   C42       1.0  0.81288  0.72761  0.38107  1.0000 -0.1083011096
C   C43       1.0  0.43181  0.81288  0.08527  1.0000 -0.1083011096
C   C44       1.0  0.72761  0.34654  0.91473  1.0000 -0.1083011096
C   C45       1.0  0.65346  0.56819  0.38107  1.0000 -0.1083011096
C   C46       1.0  0.18712  0.27239  0.61893  1.0000 -0.1083011096
C   C47       1.0  0.56819  0.18712  0.91473  1.0000 -0.1083011096
C   C48       1.0  0.27239  0.65346  0.08527  1.0000 -0.1083011096
C   C49       1.0  0.43363  0.44444  0.63649  1.0000 0.5832660134
C   C50       1.0  0.80795  0.79714  0.36351  1.0000 0.5832660134
C   C51       1.0  0.44444  0.80795  0.01081  1.0000 0.5832660134
C   C52       1.0  0.79714  0.43363  0.98919  1.0000 0.5832660134
C   C53       1.0  0.56637  0.55556  0.36351  1.0000 0.5832660134
C   C54       1.0  0.19205  0.20286  0.63649  1.0000 0.5832660134
C   C55       1.0  0.55556  0.19205  0.98919  1.0000 0.5832660134
C   C56       1.0  0.20286  0.56637  0.01081  1.0000 0.5832660134
C   C57       1.0  0.26128  0.42965  0.60997  1.0000 0.586013168
C   C58       1.0  0.81968  0.65131  0.39003  1.0000 0.586013168
C   C59       1.0  0.42965  0.81968  0.16837  1.0000 0.586013168
C   C60       1.0  0.65131  0.26128  0.83163  1.0000 0.586013168
C   C61       1.0  0.73872  0.57035  0.39003  1.0000 0.586013168
C   C62       1.0  0.18032  0.34869  0.60997  1.0000 0.586013168
C   C63       1.0  0.57035  0.18032  0.83163  1.0000 0.586013168
C   C64       1.0  0.34869  0.73872  0.16837  1.0000 0.586013168
C   C65       1.0  0.23010  0.42920  0.42984  1.0000 -0.1718312404
C   C66       1.0  0.99936  0.80026  0.57016  1.0000 -0.1718312404
C   C67       1.0  0.42920  0.99936  0.19910  1.0000 -0.1718312404
C   C68       1.0  0.80026  0.23010  0.80090  1.0000 -0.1718312404
C   C69       1.0  0.76990  0.57080  0.57016  1.0000 -0.1718312404
C   C70       1.0  0.00064  0.19974  0.42984  1.0000 -0.1718312404
C   C71       1.0  0.57080  0.00064  0.80090  1.0000 -0.1718312404
C   C72       1.0  0.19974  0.76990  0.19910  1.0000 -0.1718312404
C   C73       1.0  0.22257  0.42083  0.37934  1.0000 0.1189825803
C   C74       1.0  0.04149  0.84323  0.62066  1.0000 0.1189825803
C   C75       1.0  0.42083  0.04149  0.19826  1.0000 0.1189825803
C   C76       1.0  0.84323  0.22257  0.80174  1.0000 0.1189825803
C   C77       1.0  0.77743  0.57917  0.62066  1.0000 0.1189825803
C   C78       1.0  0.95851  0.15677  0.37934  1.0000 0.1189825803
C   C79       1.0  0.57917  0.95851  0.80174  1.0000 0.1189825803
C   C80       1.0  0.15677  0.77743  0.19826  1.0000 0.1189825803
C   C81       1.0  0.18211  0.43035  0.33436  1.0000 0.1030955338
C   C82       1.0  0.09599  0.84775  0.66564  1.0000 0.1030955338
C   C83       1.0  0.43035  0.09599  0.24824  1.0000 0.1030955338
C   C84       1.0  0.84775  0.18211  0.75176  1.0000 0.1030955338
C   C85       1.0  0.81789  0.56965  0.66564  1.0000 0.1030955338
C   C86       1.0  0.90401  0.15225  0.33436  1.0000 0.1030955338
C   C87       1.0  0.56965  0.90401  0.75176  1.0000 0.1030955338
C   C88       1.0  0.15225  0.81789  0.24824  1.0000 0.1030955338
C   C89       1.0  0.13968  0.44110  0.33698  1.0000 -0.1798628769
C   C90       1.0  0.10412  0.80270  0.66302  1.0000 -0.1798628769
C   C91       1.0  0.44110  0.10412  0.30142  1.0000 -0.1798628769
C   C92       1.0  0.80270  0.13968  0.69858  1.0000 -0.1798628769
C   C93       1.0  0.86032  0.55890  0.66302  1.0000 -0.1798628769
C   C94       1.0  0.89588  0.19730  0.33698  1.0000 -0.1798628769
C   C95       1.0  0.55890  0.89588  0.69858  1.0000 -0.1798628769
C   C96       1.0  0.19730  0.86032  0.30142  1.0000 -0.1798628769
C   C97       1.0  0.10415  0.45716  0.30019  1.0000 0.0746688941
C   C98       1.0  0.15697  0.80396  0.69981  1.0000 0.0746688941
C   C99       1.0  0.45716  0.15697  0.35301  1.0000 0.0746688941
C   C100      1.0  0.80396  0.10415  0.64699  1.0000 0.0812493071
C   C101      1.0  0.89585  0.54284  0.69981  1.0000 0.0812493071
C   C102      1.0  0.84303  0.19604  0.30019  1.0000 0.0812493071
C   C103      1.0  0.54284  0.84303  0.64699  1.0000 0.0746688941
C   C104      1.0  0.19604  0.89585  0.35301  1.0000 0.0746688941
C   C105      1.0  0.11055  0.45675  0.26000  1.0000 -0.1599664838
C   C106      1.0  0.19675  0.85055  0.74000  1.0000 -0.1599664838
C   C107      1.0  0.45675  0.19675  0.34620  1.0000 -0.1599664838
C   C108      1.0  0.85055  0.11055  0.65380  1.0000 -0.1599664838
C   C109      1.0  0.88945  0.54325  0.74000  1.0000 -0.1599664838
C   C110      1.0  0.80325  0.14945  0.26000  1.0000 -0.1599664838
C   C111      1.0  0.54325  0.80325  0.65380  1.0000 -0.1599664838
C   C112      1.0  0.14945  0.88945  0.34620  1.0000 -0.1599664838
C   C113      1.0  0.15307  0.44644  0.25743  1.0000 0.0812493071
C   C114      1.0  0.18901  0.89564  0.74257  1.0000 0.0812493071
C   C115      1.0  0.44644  0.18901  0.29337  1.0000 0.0812493071
C   C116      1.0  0.89564  0.15307  0.70663  1.0000 0.0812493071
C   C117      1.0  0.84693  0.55356  0.74257  1.0000 0.0812493071
C   C118      1.0  0.81099  0.10436  0.25743  1.0000 0.0812493071
C   C119      1.0  0.55356  0.81099  0.70663  1.0000 0.0812493071
C   C120      1.0  0.10436  0.84693  0.29337  1.0000 0.0812493071
C   C121      1.0  0.18887  0.43025  0.29282  1.0000 -0.1874475493
C   C122      1.0  0.13743  0.89605  0.70718  1.0000 -0.1874475493
C   C123      1.0  0.43025  0.13743  0.24138  1.0000 -0.1874475493
C   C124      1.0  0.89605  0.18887  0.75862  1.0000 -0.1874475493
C   C125      1.0  0.81113  0.56975  0.70718  1.0000 -0.1874475493
C   C126      1.0  0.86257  0.10395  0.29282  1.0000 -0.1874475493
C   C127      1.0  0.56975  0.86257  0.75862  1.0000 -0.1874475493
C   C128      1.0  0.10395  0.81113  0.24138  1.0000 -0.1874475493
C   C129      1.0  0.06059  0.46969  0.30270  1.0000 0.1189825803
C   C130      1.0  0.16699  0.75789  0.69730  1.0000 0.1189825803
C   C131      1.0  0.46969  0.16699  0.40910  1.0000 0.1189825803
C   C132      1.0  0.75789  0.06059  0.59090  1.0000 0.1189825803
C   C133      1.0  0.93941  0.53031  0.69730  1.0000 0.1189825803
C   C134      1.0  0.83301  0.24211  0.30270  1.0000 0.1189825803
C   C135      1.0  0.53031  0.83301  0.59090  1.0000 0.1189825803
C   C136      1.0  0.24211  0.93941  0.40910  1.0000 0.1189825803
C   C137      1.0  0.02297  0.48561  0.27342  1.0000 -0.1479548186
C   C138      1.0  0.21219  0.74955  0.72658  1.0000 -0.1479548186
C   C139      1.0  0.48561  0.21219  0.46264  1.0000 -0.1479548186
C   C140      1.0  0.74955  0.02297  0.53736  1.0000 -0.1479548186
C   C141      1.0  0.97703  0.51439  0.72658  1.0000 -0.1479548186
C   C142      1.0  0.78781  0.25045  0.27342  1.0000 -0.1479548186
C   C143      1.0  0.51439  0.78781  0.53736  1.0000 -0.1479548186
C   C144      1.0  0.25045  0.97703  0.46264  1.0000 -0.1479548186
C   C145      1.0  0.94744  0.51258  0.27542  1.0000 0.1404606551
C   C146      1.0  0.23716  0.67202  0.72458  1.0000 0.1404606551
C   C147      1.0  0.51258  0.23716  0.56514  1.0000 0.1404606551
C   C148      1.0  0.67202  0.94744  0.43486  1.0000 0.1404606551
C   C149      1.0  0.05256  0.48742  0.72458  1.0000 0.1404606551
C   C150      1.0  0.76284  0.32798  0.27542  1.0000 0.1404606551
C   C151      1.0  0.48742  0.76284  0.43486  1.0000 0.1404606551
C   C152      1.0  0.32798  0.05256  0.56514  1.0000 0.1404606551
C   C153      1.0  0.92764  0.51342  0.22460  1.0000 -0.1718312404
C   C154      1.0  0.28882  0.70304  0.77540  1.0000 -0.1718312404
C   C155      1.0  0.51342  0.28882  0.58578  1.0000 -0.1718312404
C   C156      1.0  0.70304  0.92764  0.41422  1.0000 -0.1718312404
C   C157      1.0  0.07236  0.48658  0.77540  1.0000 -0.1718312404
C   C158      1.0  0.71118  0.29696  0.22460  1.0000 -0.1718312404
C   C159      1.0  0.48658  0.71118  0.41422  1.0000 -0.1718312404
C   C160      1.0  0.29696  0.07236  0.58578  1.0000 -0.1718312404
C   C161      1.0  0.88063  0.52475  0.20202  1.0000 -0.0082611782
C   C162      1.0  0.32273  0.67861  0.79798  1.0000 -0.0154153011
C   C163      1.0  0.52475  0.32273  0.64412  1.0000 -0.0154153011
C   C164      1.0  0.67861  0.88063  0.35588  1.0000 -0.0082611782
C   C165      1.0  0.11937  0.47525  0.79798  1.0000 -0.0154153011
C   C166      1.0  0.67727  0.32139  0.20202  1.0000 -0.0082611782
C   C167      1.0  0.47525  0.67727  0.35588  1.0000 -0.0082611782
C   C168      1.0  0.32139  0.11937  0.64412  1.0000 -0.0154153011
C   C169      1.0  0.85369  0.53229  0.22766  1.0000 -0.1012169667
C   C170      1.0  0.30463  0.62603  0.77234  1.0000 -0.1012169667
C   C171      1.0  0.53229  0.30463  0.67860  1.0000 -0.1012169667
C   C172      1.0  0.62603  0.85369  0.32140  1.0000 -0.1012169667
C   C173      1.0  0.14631  0.46771  0.77234  1.0000 -0.1012169667
C   C174      1.0  0.69537  0.37397  0.22766  1.0000 -0.1012169667
C   C175      1.0  0.46771  0.69537  0.32140  1.0000 -0.1012169667
C   C176      1.0  0.37397  0.14631  0.67860  1.0000 -0.1012169667
C   C177      1.0  0.87460  0.53118  0.27824  1.0000 -0.0082611782
C   C178      1.0  0.25294  0.59636  0.72176  1.0000 -0.0082611782
C   C179      1.0  0.53118  0.25294  0.65658  1.0000 -0.0082611782
C   C180      1.0  0.59636  0.87460  0.34342  1.0000 -0.0082611782
C   C181      1.0  0.12540  0.46882  0.72176  1.0000 -0.0082611782
C   C182      1.0  0.74706  0.40364  0.27824  1.0000 -0.0082611782
C   C183      1.0  0.46882  0.74706  0.34342  1.0000 -0.0082611782
C   C184      1.0  0.40364  0.12540  0.65658  1.0000 -0.0082611782
C   C185      1.0  0.92170  0.52098  0.30240  1.0000 -0.1479548186
C   C186      1.0  0.21858  0.61930  0.69760  1.0000 -0.1479548186
C   C187      1.0  0.52098  0.21858  0.59928  1.0000 -0.1479548186
C   C188      1.0  0.61930  0.92170  0.40072  1.0000 -0.1479548186
C   C189      1.0  0.07830  0.47902  0.69760  1.0000 -0.1479548186
C   C190      1.0  0.78142  0.38070  0.30240  1.0000 -0.1479548186
C   C191      1.0  0.47902  0.78142  0.40072  1.0000 -0.1479548186
C   C192      1.0  0.38070  0.07830  0.59928  1.0000 -0.1479548186
C   C193      1.0  0.86091  0.52829  0.15028  1.0000 0.5832660134
C   C194      1.0  0.37801  0.71063  0.84972  1.0000 0.5832660134
C   C195      1.0  0.52829  0.37801  0.66738  1.0000 0.5832660134
C   C196      1.0  0.71063  0.86091  0.33262  1.0000 0.5832660134
C   C197      1.0  0.13909  0.47171  0.84972  1.0000 0.5832660134
C   C198      1.0  0.62199  0.28937  0.15028  1.0000 0.5832660134
C   C199      1.0  0.47171  0.62199  0.33262  1.0000 0.5832660134
C   C200      1.0  0.28937  0.13909  0.66738  1.0000 0.5832660134
C   C201      1.0  0.84463  0.53962  0.30553  1.0000 0.586013168
C   C202      1.0  0.23409  0.53910  0.69447  1.0000 0.586013168
C   C203      1.0  0.53962  0.23409  0.69499  1.0000 0.586013168
C   C204      1.0  0.53910  0.84463  0.30501  1.0000 0.586013168
C   C205      1.0  0.15537  0.46038  0.69447  1.0000 0.5832660134
C   C206      1.0  0.76591  0.46090  0.30553  1.0000 0.586013168
C   C207      1.0  0.46038  0.76591  0.30501  1.0000 0.5832660134
C   C208      1.0  0.46090  0.15537  0.69499  1.0000 0.586013168
C   C209      1.0  0.16111  0.44931  0.21740  1.0000 0.1287842846
C   C210      1.0  0.23191  0.94371  0.78260  1.0000 0.1189825803
C   C211      1.0  0.44931  0.23191  0.28820  1.0000 0.1287842846
C   C212      1.0  0.94371  0.16111  0.71180  1.0000 0.1287842846
C   C213      1.0  0.83889  0.55069  0.78260  1.0000 0.1287842846
C   C214      1.0  0.76809  0.05629  0.21740  1.0000 0.1287842846
C   C215      1.0  0.55069  0.76809  0.71180  1.0000 0.1287842846
C   C216      1.0  0.05629  0.83889  0.28820  1.0000 0.1189825803
C   C217      1.0  0.20554  0.45221  0.21849  1.0000 -0.1599664838
C   C218      1.0  0.23372  0.98705  0.78151  1.0000 -0.1599664838
C   C219      1.0  0.45221  0.23372  0.24667  1.0000 -0.1599664838
C   C220      1.0  0.98705  0.20554  0.75333  1.0000 -0.1599664838
C   C221      1.0  0.79446  0.54779  0.78151  1.0000 -0.1599664838
C   C222      1.0  0.76628  0.01295  0.21849  1.0000 -0.1599664838
C   C223      1.0  0.54779  0.76628  0.75333  1.0000 -0.1599664838
C   C224      1.0  0.01295  0.79446  0.24667  1.0000 -0.1599664838
C   C225      1.0  0.22637  0.46722  0.15979  1.0000 0.148060421
C   C226      1.0  0.30743  0.06658  0.84021  1.0000 0.148060421
C   C227      1.0  0.46722  0.30743  0.24085  1.0000 0.148060421
C   C228      1.0  0.06658  0.22637  0.75915  1.0000 0.148060421
C   C229      1.0  0.77363  0.53278  0.84021  1.0000 0.148060421
C   C230      1.0  0.69257  0.93342  0.15979  1.0000 0.148060421
C   C231      1.0  0.53278  0.69257  0.75915  1.0000 0.148060421
C   C232      1.0  0.93342  0.77363  0.24085  1.0000 0.148060421
C   C233      1.0  0.28012  0.47846  0.19780  1.0000 -0.1718312404
C   C234      1.0  0.28066  0.08232  0.80220  1.0000 -0.1718312404
C   C235      1.0  0.47846  0.28066  0.19834  1.0000 -0.1718312404
C   C236      1.0  0.08232  0.28012  0.80166  1.0000 -0.1718312404
C   C237      1.0  0.71988  0.52154  0.80220  1.0000 -0.1718312404
C   C238      1.0  0.71934  0.91768  0.19780  1.0000 -0.1718312404
C   C239      1.0  0.52154  0.71934  0.80166  1.0000 -0.1718312404
C   C240      1.0  0.91768  0.71988  0.19834  1.0000 -0.1718312404
C   C241      1.0  0.31041  0.48393  0.18028  1.0000 0.0033872719
C   C242      1.0  0.30365  0.13013  0.81972  1.0000 0.0033872719
C   C243      1.0  0.48393  0.30365  0.17352  1.0000 0.0033872719
C   C244      1.0  0.13013  0.31041  0.82648  1.0000 0.0033872719
C   C245      1.0  0.68959  0.51607  0.81972  1.0000 0.0033872719
C   C246      1.0  0.69635  0.86987  0.18028  1.0000 0.0033872719
C   C247      1.0  0.51607  0.69635  0.82648  1.0000 0.0033872719
C   C248      1.0  0.86987  0.68959  0.17352  1.0000 0.0033872719
C   C249      1.0  0.28778  0.47935  0.12537  1.0000 -0.1083011096
C   C250      1.0  0.35398  0.16241  0.87463  1.0000 -0.1083011096
C   C251      1.0  0.47935  0.35398  0.19157  1.0000 -0.1083011096
C   C252      1.0  0.16241  0.28778  0.80843  1.0000 -0.1083011096
C   C253      1.0  0.71222  0.52065  0.87463  1.0000 -0.1083011096
C   C254      1.0  0.64602  0.83759  0.12537  1.0000 -0.1083011096
C   C255      1.0  0.52065  0.64602  0.80843  1.0000 -0.1083011096
C   C256      1.0  0.83759  0.71222  0.19157  1.0000 -0.1083011096
C   C257      1.0  0.23497  0.46963  0.08942  1.0000 -0.0082611782
C   C258      1.0  0.38021  0.14555  0.91058  1.0000 -0.0042644219
C   C259      1.0  0.46963  0.38021  0.23466  1.0000 -0.0082611782
C   C260      1.0  0.14555  0.23497  0.76534  1.0000 -0.0042644219
C   C261      1.0  0.76503  0.53037  0.91058  1.0000 -0.0042644219
C   C262      1.0  0.61979  0.85445  0.08942  1.0000 -0.0082611782
C   C263      1.0  0.53037  0.61979  0.76534  1.0000 -0.0042644219
C   C264      1.0  0.85445  0.76503  0.23466  1.0000 -0.0082611782
C   C265      1.0  0.20287  0.46246  0.10495  1.0000 -0.1479548186
C   C266      1.0  0.35751  0.09792  0.89505  1.0000 -0.1479548186
C   C267      1.0  0.46246  0.35751  0.25959  1.0000 -0.1479548186
C   C268      1.0  0.09792  0.20287  0.74041  1.0000 -0.1479548186
C   C269      1.0  0.79713  0.53754  0.89505  1.0000 -0.1479548186
C   C270      1.0  0.64249  0.90208  0.10495  1.0000 -0.1479548186
C   C271      1.0  0.53754  0.64249  0.74041  1.0000 -0.1479548186
C   C272      1.0  0.90208  0.79713  0.25959  1.0000 -0.1479548186
C   C273      1.0  0.36934  0.49838  0.22180  1.0000 0.5832660134
C   C274      1.0  0.27658  0.14754  0.77820  1.0000 0.5832660134
C   C275      1.0  0.49838  0.27658  0.12904  1.0000 0.5832660134
C   C276      1.0  0.14754  0.36934  0.87096  1.0000 0.5832660134
C   C277      1.0  0.63066  0.50162  0.77820  1.0000 0.5832660134
C   C278      1.0  0.72342  0.85246  0.22180  1.0000 0.5832660134
C   C279      1.0  0.50162  0.72342  0.87096  1.0000 0.5832660134
C   C280      1.0  0.85246  0.63066  0.12904  1.0000 0.5832660134
C   C281      1.0  0.21188  0.46714  0.03254  1.0000 0.5832660134
C   C282      1.0  0.43460  0.17934  0.96746  1.0000 0.5832660134
C   C283      1.0  0.46714  0.43460  0.25526  1.0000 0.5832660134
C   C284      1.0  0.17934  0.21188  0.74474  1.0000 0.5832660134
C   C285      1.0  0.78812  0.53286  0.96746  1.0000 0.5832660134
C   C286      1.0  0.56540  0.82066  0.03254  1.0000 0.586013168
C   C287      1.0  0.53286  0.56540  0.74474  1.0000 0.5832660134
C   C288      1.0  0.82066  0.78812  0.25526  1.0000 0.5832660134
N   N1        1.0  0.27306  0.41581  0.45417  1.0000 0.1404606551
N   N2        1.0  0.96164  0.81889  0.54583  1.0000 0.1404606551
N   N3        1.0  0.41581  0.96164  0.14275  1.0000 0.1404606551
N   N4        1.0  0.81889  0.27306  0.85725  1.0000 0.1404606551
N   N5        1.0  0.72694  0.58419  0.54583  1.0000 0.1404606551
N   N6        1.0  0.03836  0.18111  0.45417  1.0000 0.1404606551
N   N7        1.0  0.58419  0.03836  0.85725  1.0000 0.1404606551
N   N8        1.0  0.18111  0.72694  0.14275  1.0000 0.1404606551
N   N9        1.0  0.29158  0.39695  0.41887  1.0000 -0.1205721234
N   N10       1.0  0.97808  0.87271  0.58113  1.0000 -0.1205721234
N   N11       1.0  0.39695  0.97808  0.10537  1.0000 -0.1205721234
N   N12       1.0  0.87271  0.29158  0.89463  1.0000 -0.1205721234
N   N13       1.0  0.70842  0.60305  0.58113  1.0000 -0.1205721234
N   N14       1.0  0.02192  0.12729  0.41887  1.0000 -0.1205721234
N   N15       1.0  0.60305  0.02192  0.89463  1.0000 -0.1205721234
N   N16       1.0  0.12729  0.70842  0.10537  1.0000 -0.1205721234
N   N17       1.0  0.26015  0.40028  0.37233  1.0000 -0.2374674878
N   N18       1.0  0.02795  0.88782  0.62767  1.0000 -0.2374674878
N   N19       1.0  0.40028  0.02795  0.14013  1.0000 -0.2374674878
N   N20       1.0  0.88782  0.26015  0.85987  1.0000 -0.2374674878
N   N21       1.0  0.73985  0.59972  0.62767  1.0000 -0.2374674878
N   N22       1.0  0.97205  0.11218  0.37233  1.0000 -0.2374674878
N   N23       1.0  0.59972  0.97205  0.85987  1.0000 -0.2374674878
N   N24       1.0  0.11218  0.73985  0.14013  1.0000 -0.2374674878
N   N25       1.0  0.05279  0.47103  0.34276  1.0000 -0.2374674878
N   N26       1.0  0.12827  0.71003  0.65724  1.0000 -0.2338514528
N   N27       1.0  0.47103  0.12827  0.41824  1.0000 -0.2374674878
N   N28       1.0  0.71003  0.05279  0.58176  1.0000 -0.2374674878
N   N29       1.0  0.94721  0.52897  0.65724  1.0000 -0.2338514528
N   N30       1.0  0.87173  0.28997  0.34276  1.0000 -0.2374674878
N   N31       1.0  0.52897  0.87173  0.58176  1.0000 -0.2374674878
N   N32       1.0  0.28997  0.94721  0.41824  1.0000 -0.2374674878
N   N33       1.0  0.01394  0.49200  0.34094  1.0000 -0.1297539752
N   N34       1.0  0.15106  0.67300  0.65906  1.0000 -0.1297539752
N   N35       1.0  0.49200  0.15106  0.47806  1.0000 -0.1297539752
N   N36       1.0  0.67300  0.01394  0.52194  1.0000 -0.1205721234
N   N37       1.0  0.98606  0.50800  0.65906  1.0000 -0.1297539752
N   N38       1.0  0.84894  0.32700  0.34094  1.0000 -0.1297539752
N   N39       1.0  0.50800  0.84894  0.52194  1.0000 -0.1297539752
N   N40       1.0  0.32700  0.98606  0.47806  1.0000 -0.1297539752
N   N41       1.0  0.99458  0.49668  0.29476  1.0000 0.148060421
N   N42       1.0  0.20192  0.69982  0.70524  1.0000 0.1404606551
N   N43       1.0  0.49668  0.20192  0.50210  1.0000 0.1404606551
N   N44       1.0  0.69982  0.99458  0.49790  1.0000 0.148060421
N   N45       1.0  0.00542  0.50332  0.70524  1.0000 0.1404606551
N   N46       1.0  0.79808  0.30018  0.29476  1.0000 0.148060421
N   N47       1.0  0.50332  0.79808  0.49790  1.0000 0.1404606551
N   N48       1.0  0.30018  0.00542  0.50210  1.0000 0.1404606551
N   N49       1.0  0.14074  0.45354  0.14120  1.0000 -0.1297539752
N   N50       1.0  0.31234  0.99954  0.85880  1.0000 -0.1297539752
N   N51       1.0  0.45354  0.31234  0.31280  1.0000 -0.1297539752
N   N52       1.0  0.99954  0.14074  0.68720  1.0000 -0.1297539752
N   N53       1.0  0.85926  0.54646  0.85880  1.0000 -0.1297539752
N   N54       1.0  0.68766  0.00046  0.14120  1.0000 -0.1297539752
N   N55       1.0  0.54646  0.68766  0.68720  1.0000 -0.1297539752
N   N56       1.0  0.00046  0.85926  0.31280  1.0000 -0.1297539752
N   N57       1.0  0.19335  0.45819  0.17448  1.0000 0.1404606551
N   N58       1.0  0.28371  0.01887  0.82552  1.0000 0.1404606551
N   N59       1.0  0.45819  0.28371  0.26484  1.0000 0.1404606551
N   N60       1.0  0.01887  0.19335  0.73516  1.0000 0.1404606551
N   N61       1.0  0.80665  0.54181  0.82552  1.0000 0.1404606551
N   N62       1.0  0.71629  0.98113  0.17448  1.0000 0.1404606551
N   N63       1.0  0.54181  0.71629  0.73516  1.0000 0.1404606551
N   N64       1.0  0.98113  0.80665  0.26484  1.0000 0.1404606551
N   N65       1.0  0.12161  0.45066  0.16995  1.0000 -0.250165896
N   N66       1.0  0.28071  0.95166  0.83005  1.0000 -0.250165896
N   N67       1.0  0.45066  0.28071  0.32905  1.0000 -0.250165896
N   N68       1.0  0.95166  0.12161  0.67095  1.0000 -0.250165896
N   N69       1.0  0.87839  0.54934  0.83005  1.0000 -0.250165896
N   N70       1.0  0.71929  0.04834  0.16995  1.0000 -0.250165896
N   N71       1.0  0.54934  0.71929  0.67095  1.0000 -0.250165896
N   N72       1.0  0.04834  0.87839  0.32905  1.0000 -0.250165896
O   O1        1.0  0.45269  0.44919  0.68552  1.0000 -0.5103515301
O   O2        1.0  0.76367  0.76717  0.31448  1.0000 -0.5103515301
O   O3        1.0  0.44919  0.76367  0.99650  1.0000 -0.5103515301
O   O4        1.0  0.76717  0.45269  0.00350  1.0000 -0.5103515301
O   O5        1.0  0.54731  0.55081  0.31448  1.0000 -0.5103515301
O   O6        1.0  0.23633  0.23283  0.68552  1.0000 -0.5103515301
O   O7        1.0  0.55081  0.23633  0.00350  1.0000 -0.5103515301
O   O8        1.0  0.23283  0.54731  0.99650  1.0000 -0.5103515301
O   O9        1.0  0.45890  0.44910  0.61730  1.0000 -0.5203269986
O   O10       1.0  0.83180  0.84160  0.38270  1.0000 -0.5203269986
O   O11       1.0  0.44910  0.83180  0.99020  1.0000 -0.5203269986
O   O12       1.0  0.84160  0.45890  0.00980  1.0000 -0.5203269986
O   O13       1.0  0.54110  0.55090  0.38270  1.0000 -0.5203269986
O   O14       1.0  0.16820  0.15840  0.61730  1.0000 -0.5203269986
O   O15       1.0  0.55090  0.16820  0.00980  1.0000 -0.5203269986
O   O16       1.0  0.15840  0.54110  0.99020  1.0000 -0.5203269986
O   O17       1.0  0.28572  0.43692  0.66128  1.0000 -0.5103515301
O   O18       1.0  0.77564  0.62444  0.33872  1.0000 -0.5103515301
O   O19       1.0  0.43692  0.77564  0.15120  1.0000 -0.5103515301
O   O20       1.0  0.62444  0.28572  0.84880  1.0000 -0.5103515301
O   O21       1.0  0.71428  0.56308  0.33872  1.0000 -0.5103515301
O   O22       1.0  0.22436  0.37556  0.66128  1.0000 -0.5103515301
O   O23       1.0  0.56308  0.22436  0.84880  1.0000 -0.5103515301
O   O24       1.0  0.37556  0.71428  0.15120  1.0000 -0.5103515301
O   O25       1.0  0.21370  0.42481  0.57695  1.0000 -0.5255249641
O   O26       1.0  0.84786  0.63675  0.42305  1.0000 -0.5255249641
O   O27       1.0  0.42481  0.84786  0.21111  1.0000 -0.5203269986
O   O28       1.0  0.63675  0.21370  0.78889  1.0000 -0.5255249641
O   O29       1.0  0.78630  0.57519  0.42305  1.0000 -0.5255249641
O   O30       1.0  0.15214  0.36325  0.57695  1.0000 -0.5255249641
O   O31       1.0  0.57519  0.15214  0.78889  1.0000 -0.5255249641
O   O32       1.0  0.36325  0.78630  0.21111  1.0000 -0.5203269986
O   O33       1.0  0.86924  0.54965  0.35833  1.0000 -0.5103515301
O   O34       1.0  0.19132  0.51091  0.64167  1.0000 -0.5103515301
O   O35       1.0  0.54965  0.19132  0.68041  1.0000 -0.5103515301
O   O36       1.0  0.51091  0.86924  0.31959  1.0000 -0.5103515301
O   O37       1.0  0.13076  0.45035  0.64167  1.0000 -0.5103515301
O   O38       1.0  0.80868  0.48909  0.35833  1.0000 -0.5103515301
O   O39       1.0  0.45035  0.80868  0.31959  1.0000 -0.5103515301
O   O40       1.0  0.48909  0.13076  0.68041  1.0000 -0.5103515301
O   O41       1.0  0.79799  0.53852  0.27449  1.0000 -0.5255249641
O   O42       1.0  0.26403  0.52350  0.72551  1.0000 -0.5255249641
O   O43       1.0  0.53852  0.26403  0.74053  1.0000 -0.5255249641
O   O44       1.0  0.52350  0.79799  0.25947  1.0000 -0.5203269986
O   O45       1.0  0.20201  0.46148  0.72551  1.0000 -0.5255249641
O   O46       1.0  0.73597  0.47650  0.27449  1.0000 -0.5255249641
O   O47       1.0  0.46148  0.73597  0.25947  1.0000 -0.5203269986
O   O48       1.0  0.47650  0.20201  0.74053  1.0000 -0.5255249641
O   O49       1.0  0.81503  0.53204  0.12619  1.0000 -0.5203269986
O   O50       1.0  0.40585  0.68884  0.87381  1.0000 -0.5203269986
O   O51       1.0  0.53204  0.40585  0.71701  1.0000 -0.5203269986
O   O52       1.0  0.68884  0.81503  0.28299  1.0000 -0.5203269986
O   O53       1.0  0.18497  0.46796  0.87381  1.0000 -0.5203269986
O   O54       1.0  0.59415  0.31116  0.12619  1.0000 -0.5203269986
O   O55       1.0  0.46796  0.59415  0.28299  1.0000 -0.5203269986
O   O56       1.0  0.31116  0.18497  0.71701  1.0000 -0.5203269986
O   O57       1.0  0.89004  0.52757  0.13395  1.0000 -0.5103515301
O   O58       1.0  0.39362  0.75609  0.86605  1.0000 -0.5103515301
O   O59       1.0  0.52757  0.39362  0.63753  1.0000 -0.5103515301
O   O60       1.0  0.75609  0.89004  0.36247  1.0000 -0.5103515301
O   O61       1.0  0.10996  0.47243  0.86605  1.0000 -0.5103515301
O   O62       1.0  0.60638  0.24391  0.13395  1.0000 -0.5103515301
O   O63       1.0  0.47243  0.60638  0.36247  1.0000 -0.5103515301
O   O64       1.0  0.24391  0.10996  0.63753  1.0000 -0.5103515301
O   O65       1.0  0.16249  0.45936  0.00089  1.0000 -0.5203269986
O   O66       1.0  0.45847  0.16160  0.99911  1.0000 -0.5203269986
O   O67       1.0  0.45936  0.45847  0.29687  1.0000 -0.5203269986
O   O68       1.0  0.16160  0.16249  0.70313  1.0000 -0.5203269986
O   O69       1.0  0.83751  0.54064  0.99911  1.0000 -0.5203269986
O   O70       1.0  0.54153  0.83840  0.00089  1.0000 -0.5203269986
O   O71       1.0  0.54064  0.54153  0.70313  1.0000 -0.5203269986
O   O72       1.0  0.83840  0.83751  0.29687  1.0000 -0.5203269986
O   O73       1.0  0.24293  0.47247  0.02074  1.0000 -0.5103515301
O   O74       1.0  0.45173  0.22219  0.97926  1.0000 -0.5103515301
O   O75       1.0  0.47247  0.45173  0.22954  1.0000 -0.5103515301
O   O76       1.0  0.22219  0.24293  0.77046  1.0000 -0.5103515301
O   O77       1.0  0.75707  0.52753  0.97926  1.0000 -0.5103515301
O   O78       1.0  0.54827  0.77781  0.02074  1.0000 -0.5103515301
O   O79       1.0  0.52753  0.54827  0.77046  1.0000 -0.5103515301
O   O80       1.0  0.77781  0.75707  0.22954  1.0000 -0.5103515301
O   O81       1.0  0.38901  0.51301  0.27564  1.0000 -0.5203269986
O   O82       1.0  0.23737  0.11337  0.72436  1.0000 -0.5203269986
O   O83       1.0  0.51301  0.23737  0.12400  1.0000 -0.5203269986
O   O84       1.0  0.11337  0.38901  0.87600  1.0000 -0.5203269986
O   O85       1.0  0.61099  0.48699  0.72436  1.0000 -0.5203269986
O   O86       1.0  0.76263  0.88663  0.27564  1.0000 -0.5203269986
O   O87       1.0  0.48699  0.76263  0.87600  1.0000 -0.5203269986
O   O88       1.0  0.88663  0.61099  0.12400  1.0000 -0.5203269986
O   O89       1.0  0.39412  0.49607  0.19993  1.0000 -0.5103515301
O   O90       1.0  0.29614  0.19419  0.80007  1.0000 -0.5103515301
O   O91       1.0  0.49607  0.29614  0.10195  1.0000 -0.5103515301
O   O92       1.0  0.19419  0.39412  0.89805  1.0000 -0.5103515301
O   O93       1.0  0.60588  0.50393  0.80007  1.0000 -0.5103515301
O   O94       1.0  0.70386  0.80581  0.19993  1.0000 -0.5103515301
O   O95       1.0  0.50393  0.70386  0.89805  1.0000 -0.5103515301
O   O96       1.0  0.80581  0.60588  0.10195  1.0000 -0.5103515301
