# DDEC6 charges by PACMAN v1.1 (https://github.com/mtap-research/PACMAN-charge/)
data_2013[ZnIn][nia]3[ASR]1
_chemical_formula_sum              "Zn4 In6 H72 C120 N6 O38"
_cell_length_a       18.7843
_cell_length_b       18.7843
_cell_length_c       25.0267
_cell_angle_alpha    90
_cell_angle_beta     90
_cell_angle_gamma    120

_symmetry_space_group_name_H-M    "P 1"
_symmetry_Int_Tables_number       1

loop_
  _symmetry_equiv_pos_as_xyz
  'x, y, z'

loop_
  _atom_site_type_symbol
  _atom_site_label
  _atom_site_symmetry_multiplicity
  _atom_site_fract_x
  _atom_site_fract_y
  _atom_site_fract_z
  _atom_site_occupancy
  _atom_site_charge
Zn  Zn1       1.0  0.00000  0.00000  0.67797  1.0000 1.0235820058
Zn  Zn2       1.0  0.00000  0.00000  0.82203  1.0000 1.0235820058
Zn  Zn3       1.0  0.00000  0.00000  0.32203  1.0000 1.0235820058
Zn  Zn4       1.0  0.00000  0.00000  0.17797  1.0000 1.0235820058
In  In1       1.0  0.72901  0.27099  0.75000  1.0000 1.3812089804
In  In2       1.0  0.72901  0.45802  0.75000  1.0000 1.3812089804
In  In3       1.0  0.54198  0.27099  0.75000  1.0000 1.3812089804
In  In4       1.0  0.27099  0.72901  0.25000  1.0000 1.3812089804
In  In5       1.0  0.27099  0.54198  0.25000  1.0000 1.3812089804
In  In6       1.0  0.45802  0.72901  0.25000  1.0000 1.3812089804
H   H1        1.0  0.41260  0.03280  0.53350  1.0000 0.107999856
H   H2        1.0  0.96720  0.37980  0.53350  1.0000 0.107999856
H   H3        1.0  0.62020  0.58740  0.53350  1.0000 0.107999856
H   H4        1.0  0.96720  0.58740  0.96650  1.0000 0.107999856
H   H5        1.0  0.62020  0.03280  0.96650  1.0000 0.107999856
H   H6        1.0  0.41260  0.37980  0.96650  1.0000 0.107999856
H   H7        1.0  0.58740  0.96720  0.46650  1.0000 0.107999856
H   H8        1.0  0.03280  0.62020  0.46650  1.0000 0.107999856
H   H9        1.0  0.37980  0.41260  0.46650  1.0000 0.107999856
H   H10       1.0  0.03280  0.41260  0.03350  1.0000 0.107999856
H   H11       1.0  0.37980  0.96720  0.03350  1.0000 0.107999856
H   H12       1.0  0.58740  0.62020  0.03350  1.0000 0.107999856
H   H13       1.0  0.62170  0.03330  0.53390  1.0000 0.107999856
H   H14       1.0  0.96670  0.58840  0.53390  1.0000 0.107999856
H   H15       1.0  0.41160  0.37830  0.53390  1.0000 0.107999856
H   H16       1.0  0.96670  0.37830  0.96610  1.0000 0.107999856
H   H17       1.0  0.41160  0.03330  0.96610  1.0000 0.107999856
H   H18       1.0  0.62170  0.58840  0.96610  1.0000 0.107999856
H   H19       1.0  0.37830  0.96670  0.46610  1.0000 0.107999856
H   H20       1.0  0.03330  0.41160  0.46610  1.0000 0.107999856
H   H21       1.0  0.58840  0.62170  0.46610  1.0000 0.107999856
H   H22       1.0  0.03330  0.62170  0.03390  1.0000 0.107999856
H   H23       1.0  0.58840  0.96670  0.03390  1.0000 0.107999856
H   H24       1.0  0.37830  0.41160  0.03390  1.0000 0.107999856
H   H25       1.0  0.45020  0.10950  0.61010  1.0000 0.120785248
H   H26       1.0  0.89050  0.34070  0.61010  1.0000 0.120785248
H   H27       1.0  0.65930  0.54980  0.61010  1.0000 0.120785248
H   H28       1.0  0.89050  0.54980  0.88990  1.0000 0.120785248
H   H29       1.0  0.65930  0.10950  0.88990  1.0000 0.120785248
H   H30       1.0  0.45020  0.34070  0.88990  1.0000 0.120785248
H   H31       1.0  0.54980  0.89050  0.38990  1.0000 0.120785248
H   H32       1.0  0.10950  0.65930  0.38990  1.0000 0.120785248
H   H33       1.0  0.34070  0.45020  0.38990  1.0000 0.120785248
H   H34       1.0  0.10950  0.45020  0.11010  1.0000 0.120785248
H   H35       1.0  0.34070  0.89050  0.11010  1.0000 0.120785248
H   H36       1.0  0.54980  0.65930  0.11010  1.0000 0.120785248
H   H37       1.0  0.65900  0.10910  0.61050  1.0000 0.120785248
H   H38       1.0  0.89090  0.54990  0.61050  1.0000 0.120785248
H   H39       1.0  0.45010  0.34100  0.61050  1.0000 0.120785248
H   H40       1.0  0.89090  0.34100  0.88950  1.0000 0.120785248
H   H41       1.0  0.45010  0.10910  0.88950  1.0000 0.120785248
H   H42       1.0  0.65900  0.54990  0.88950  1.0000 0.120785248
H   H43       1.0  0.34100  0.89090  0.38950  1.0000 0.120785248
H   H44       1.0  0.10910  0.45010  0.38950  1.0000 0.120785248
H   H45       1.0  0.54990  0.65900  0.38950  1.0000 0.120785248
H   H46       1.0  0.10910  0.65900  0.11050  1.0000 0.120785248
H   H47       1.0  0.54990  0.89090  0.11050  1.0000 0.120785248
H   H48       1.0  0.34100  0.45010  0.11050  1.0000 0.120785248
H   H49       1.0  0.80300  0.19870  0.67550  1.0000 0.107999856
H   H50       1.0  0.80130  0.60430  0.67550  1.0000 0.107999856
H   H51       1.0  0.39570  0.19700  0.67550  1.0000 0.107999856
H   H52       1.0  0.80130  0.19700  0.82450  1.0000 0.107999856
H   H53       1.0  0.39570  0.19870  0.82450  1.0000 0.107999856
H   H54       1.0  0.80300  0.60430  0.82450  1.0000 0.107999856
H   H55       1.0  0.19700  0.80130  0.32450  1.0000 0.107999856
H   H56       1.0  0.19870  0.39570  0.32450  1.0000 0.107999856
H   H57       1.0  0.60430  0.80300  0.32450  1.0000 0.107999856
H   H58       1.0  0.19870  0.80300  0.17550  1.0000 0.107999856
H   H59       1.0  0.60430  0.80130  0.17550  1.0000 0.107999856
H   H60       1.0  0.19700  0.39570  0.17550  1.0000 0.107999856
H   H61       1.0  0.87220  0.12140  0.67220  1.0000 0.1378765198
H   H62       1.0  0.87860  0.75080  0.67220  1.0000 0.1378765198
H   H63       1.0  0.24920  0.12780  0.67220  1.0000 0.1378765198
H   H64       1.0  0.87860  0.12780  0.82780  1.0000 0.1378765198
H   H65       1.0  0.24920  0.12140  0.82780  1.0000 0.1378765198
H   H66       1.0  0.87220  0.75080  0.82780  1.0000 0.1378765198
H   H67       1.0  0.12780  0.87860  0.32780  1.0000 0.1378765198
H   H68       1.0  0.12140  0.24920  0.32780  1.0000 0.1378765198
H   H69       1.0  0.75080  0.87220  0.32780  1.0000 0.1378765198
H   H70       1.0  0.12140  0.87220  0.17220  1.0000 0.1378765198
H   H71       1.0  0.75080  0.87860  0.17220  1.0000 0.1378765198
H   H72       1.0  0.12780  0.24920  0.17220  1.0000 0.1378765198
C   C1        1.0  0.46340  0.04840  0.54880  1.0000 -0.1681760054
C   C2        1.0  0.95160  0.41500  0.54880  1.0000 -0.1681760054
C   C3        1.0  0.58500  0.53660  0.54880  1.0000 -0.1681760054
C   C4        1.0  0.95160  0.53660  0.95120  1.0000 -0.1681760054
C   C5        1.0  0.58500  0.04840  0.95120  1.0000 -0.1681760054
C   C6        1.0  0.46340  0.41500  0.95120  1.0000 -0.1681760054
C   C7        1.0  0.53660  0.95160  0.45120  1.0000 -0.1681760054
C   C8        1.0  0.04840  0.58500  0.45120  1.0000 -0.1681760054
C   C9        1.0  0.41500  0.46340  0.45120  1.0000 -0.1681760054
C   C10       1.0  0.04840  0.46340  0.04880  1.0000 -0.1681760054
C   C11       1.0  0.41500  0.95160  0.04880  1.0000 -0.1681760054
C   C12       1.0  0.53660  0.58500  0.04880  1.0000 -0.1681760054
C   C13       1.0  0.58610  0.04870  0.54910  1.0000 -0.1681760054
C   C14       1.0  0.95130  0.53740  0.54910  1.0000 -0.1681760054
C   C15       1.0  0.46260  0.41390  0.54910  1.0000 -0.1681760054
C   C16       1.0  0.95130  0.41390  0.95090  1.0000 -0.1681760054
C   C17       1.0  0.46260  0.04870  0.95090  1.0000 -0.1681760054
C   C18       1.0  0.58610  0.53740  0.95090  1.0000 -0.1681760054
C   C19       1.0  0.41390  0.95130  0.45090  1.0000 -0.1681760054
C   C20       1.0  0.04870  0.46260  0.45090  1.0000 -0.1681760054
C   C21       1.0  0.53740  0.58610  0.45090  1.0000 -0.1681760054
C   C22       1.0  0.04870  0.58610  0.04910  1.0000 -0.1681760054
C   C23       1.0  0.53740  0.95130  0.04910  1.0000 -0.1681760054
C   C24       1.0  0.41390  0.46260  0.04910  1.0000 -0.1681760054
C   C25       1.0  0.48560  0.09390  0.59520  1.0000 -0.1041885078
C   C26       1.0  0.90610  0.39170  0.59520  1.0000 -0.1041885078
C   C27       1.0  0.60830  0.51440  0.59520  1.0000 -0.1041885078
C   C28       1.0  0.90610  0.51440  0.90480  1.0000 -0.1041885078
C   C29       1.0  0.60830  0.09390  0.90480  1.0000 -0.1041885078
C   C30       1.0  0.48560  0.39170  0.90480  1.0000 -0.1041885078
C   C31       1.0  0.51440  0.90610  0.40480  1.0000 -0.1041885078
C   C32       1.0  0.09390  0.60830  0.40480  1.0000 -0.1041885078
C   C33       1.0  0.39170  0.48560  0.40480  1.0000 -0.1041885078
C   C34       1.0  0.09390  0.48560  0.09520  1.0000 -0.1041885078
C   C35       1.0  0.39170  0.90610  0.09520  1.0000 -0.1041885078
C   C36       1.0  0.51440  0.60830  0.09520  1.0000 -0.1041885078
C   C37       1.0  0.60810  0.09370  0.59530  1.0000 -0.1041885078
C   C38       1.0  0.90630  0.51440  0.59530  1.0000 -0.1041885078
C   C39       1.0  0.48560  0.39190  0.59530  1.0000 -0.1041885078
C   C40       1.0  0.90630  0.39190  0.90470  1.0000 -0.1041885078
C   C41       1.0  0.48560  0.09370  0.90470  1.0000 -0.1041885078
C   C42       1.0  0.60810  0.51440  0.90470  1.0000 -0.1041885078
C   C43       1.0  0.39190  0.90630  0.40470  1.0000 -0.1041885078
C   C44       1.0  0.09370  0.48560  0.40470  1.0000 -0.1061068532
C   C45       1.0  0.51440  0.60810  0.40470  1.0000 -0.1041885078
C   C46       1.0  0.09370  0.60810  0.09530  1.0000 -0.1041885078
C   C47       1.0  0.51440  0.90630  0.09530  1.0000 -0.1041885078
C   C48       1.0  0.39190  0.48560  0.09530  1.0000 -0.1041885078
C   C49       1.0  0.81650  0.18340  0.70750  1.0000 0.0725965213
C   C50       1.0  0.81660  0.63310  0.70750  1.0000 0.0725965213
C   C51       1.0  0.36690  0.18350  0.70750  1.0000 0.0725965213
C   C52       1.0  0.81660  0.18350  0.79250  1.0000 0.0725965213
C   C53       1.0  0.36690  0.18340  0.79250  1.0000 0.0725965213
C   C54       1.0  0.81650  0.63310  0.79250  1.0000 0.0725965213
C   C55       1.0  0.18350  0.81660  0.29250  1.0000 0.0725965213
C   C56       1.0  0.18340  0.36690  0.29250  1.0000 0.0725965213
C   C57       1.0  0.63310  0.81650  0.29250  1.0000 0.0725965213
C   C58       1.0  0.18340  0.81650  0.20750  1.0000 0.0725965213
C   C59       1.0  0.63310  0.81660  0.20750  1.0000 0.0725965213
C   C60       1.0  0.18350  0.36690  0.20750  1.0000 0.0725965213
C   C61       1.0  0.55810  0.11630  0.61940  1.0000 -0.0340703836
C   C62       1.0  0.88370  0.44180  0.61940  1.0000 -0.0340703836
C   C63       1.0  0.55820  0.44190  0.61940  1.0000 -0.0351600685
C   C64       1.0  0.88370  0.44190  0.88060  1.0000 -0.0351600685
C   C65       1.0  0.55820  0.11630  0.88060  1.0000 -0.0340703836
C   C66       1.0  0.55810  0.44180  0.88060  1.0000 -0.0340703836
C   C67       1.0  0.44190  0.88370  0.38060  1.0000 -0.0340703836
C   C68       1.0  0.11630  0.55820  0.38060  1.0000 -0.0340703836
C   C69       1.0  0.44180  0.55810  0.38060  1.0000 -0.0351600685
C   C70       1.0  0.11630  0.55810  0.11940  1.0000 -0.0351600685
C   C71       1.0  0.44180  0.88370  0.11940  1.0000 -0.0340703836
C   C72       1.0  0.44190  0.55820  0.11940  1.0000 -0.0351600685
C   C73       1.0  0.51330  0.02620  0.52530  1.0000 0.0762791192
C   C74       1.0  0.97380  0.48710  0.52530  1.0000 0.0762791192
C   C75       1.0  0.51290  0.48670  0.52530  1.0000 0.0762791192
C   C76       1.0  0.97380  0.48670  0.97470  1.0000 0.0762791192
C   C77       1.0  0.51290  0.02620  0.97470  1.0000 0.0762791192
C   C78       1.0  0.51330  0.48710  0.97470  1.0000 0.0762791192
C   C79       1.0  0.48670  0.97380  0.47470  1.0000 0.0762791192
C   C80       1.0  0.02620  0.51290  0.47470  1.0000 0.0762791192
C   C81       1.0  0.48710  0.51330  0.47470  1.0000 0.0762791192
C   C82       1.0  0.02620  0.51330  0.02530  1.0000 0.0762791192
C   C83       1.0  0.48710  0.97380  0.02530  1.0000 0.0762791192
C   C84       1.0  0.48670  0.51290  0.02530  1.0000 0.0762791192
C   C85       1.0  0.58410  0.16800  0.66988  1.0000 0.5999893141
C   C86       1.0  0.83200  0.41610  0.66988  1.0000 0.5999893141
C   C87       1.0  0.58390  0.41590  0.66988  1.0000 0.5999893141
C   C88       1.0  0.83200  0.41590  0.83012  1.0000 0.5999893141
C   C89       1.0  0.58390  0.16800  0.83012  1.0000 0.5999893141
C   C90       1.0  0.58410  0.41610  0.83012  1.0000 0.5999893141
C   C91       1.0  0.41590  0.83200  0.33012  1.0000 0.5999893141
C   C92       1.0  0.16800  0.58390  0.33012  1.0000 0.5999893141
C   C93       1.0  0.41610  0.58410  0.33012  1.0000 0.5999893141
C   C94       1.0  0.16800  0.58410  0.16988  1.0000 0.5999893141
C   C95       1.0  0.41610  0.83200  0.16988  1.0000 0.5999893141
C   C96       1.0  0.41590  0.58390  0.16988  1.0000 0.5999893141
C   C97       1.0  0.85950  0.13760  0.70420  1.0000 -0.1370413447
C   C98       1.0  0.86240  0.72190  0.70420  1.0000 -0.1370413447
C   C99       1.0  0.27810  0.14050  0.70420  1.0000 -0.1370413447
C   C100      1.0  0.86240  0.14050  0.79580  1.0000 -0.1370413447
C   C101      1.0  0.27810  0.13760  0.79580  1.0000 -0.1370413447
C   C102      1.0  0.85950  0.72190  0.79580  1.0000 -0.1370413447
C   C103      1.0  0.14050  0.86240  0.29580  1.0000 -0.1370413447
C   C104      1.0  0.13760  0.27810  0.29580  1.0000 -0.1370413447
C   C105      1.0  0.72190  0.85950  0.29580  1.0000 -0.1370413447
C   C106      1.0  0.13760  0.85950  0.20420  1.0000 -0.1370413447
C   C107      1.0  0.72190  0.86240  0.20420  1.0000 -0.1370413447
C   C108      1.0  0.14050  0.27810  0.20420  1.0000 -0.1370413447
C   C109      1.0  0.87780  0.12220  0.75000  1.0000 0.0303694096
C   C110      1.0  0.87780  0.75560  0.75000  1.0000 0.0303694096
C   C111      1.0  0.24440  0.12220  0.75000  1.0000 0.0303694096
C   C112      1.0  0.12220  0.87780  0.25000  1.0000 0.0303694096
C   C113      1.0  0.12220  0.24440  0.25000  1.0000 0.0303694096
C   C114      1.0  0.75560  0.87780  0.25000  1.0000 0.0303694096
C   C115      1.0  0.92530  0.07470  0.75000  1.0000 0.6292309704
C   C116      1.0  0.92530  0.85060  0.75000  1.0000 0.6249797585
C   C117      1.0  0.14940  0.07470  0.75000  1.0000 0.6292309704
C   C118      1.0  0.07470  0.92530  0.25000  1.0000 0.6249797585
C   C119      1.0  0.07470  0.14940  0.25000  1.0000 0.6292309704
C   C120      1.0  0.85060  0.92530  0.25000  1.0000 0.6292309704
N   N1        1.0  0.79555  0.20445  0.75000  1.0000 -0.2262135453
N   N2        1.0  0.79555  0.59110  0.75000  1.0000 -0.2241793928
N   N3        1.0  0.40890  0.20445  0.75000  1.0000 -0.2262135453
N   N4        1.0  0.20445  0.79555  0.25000  1.0000 -0.2241793928
N   N5        1.0  0.20445  0.40890  0.25000  1.0000 -0.2262135453
N   N6        1.0  0.59110  0.79555  0.25000  1.0000 -0.2241793928
O   O1        1.0  0.53379  0.18743  0.68827  1.0000 -0.5765031434
O   O2        1.0  0.81257  0.34636  0.68827  1.0000 -0.5765031434
O   O3        1.0  0.65364  0.46621  0.68827  1.0000 -0.5765031434
O   O4        1.0  0.81257  0.46621  0.81173  1.0000 -0.5765031434
O   O5        1.0  0.65364  0.18743  0.81173  1.0000 -0.5765031434
O   O6        1.0  0.53379  0.34636  0.81173  1.0000 -0.5765031434
O   O7        1.0  0.46621  0.81257  0.31173  1.0000 -0.5765031434
O   O8        1.0  0.18743  0.65364  0.31173  1.0000 -0.5765031434
O   O9        1.0  0.34636  0.53379  0.31173  1.0000 -0.5765031434
O   O10       1.0  0.18743  0.53379  0.18827  1.0000 -0.5765031434
O   O11       1.0  0.34636  0.81257  0.18827  1.0000 -0.5765031434
O   O12       1.0  0.46621  0.65364  0.18827  1.0000 -0.5765031434
O   O13       1.0  0.65360  0.18757  0.68829  1.0000 -0.5718869971
O   O14       1.0  0.81243  0.46603  0.68829  1.0000 -0.5718869971
O   O15       1.0  0.53397  0.34640  0.68829  1.0000 -0.5718869971
O   O16       1.0  0.81243  0.34640  0.81171  1.0000 -0.5718869971
O   O17       1.0  0.53397  0.18757  0.81171  1.0000 -0.5718869971
O   O18       1.0  0.65360  0.46603  0.81171  1.0000 -0.5718869971
O   O19       1.0  0.34640  0.81243  0.31171  1.0000 -0.5718869971
O   O20       1.0  0.18757  0.53397  0.31171  1.0000 -0.5718869971
O   O21       1.0  0.46603  0.65360  0.31171  1.0000 -0.5718869971
O   O22       1.0  0.18757  0.65360  0.18829  1.0000 -0.5718869971
O   O23       1.0  0.46603  0.81243  0.18829  1.0000 -0.5718869971
O   O24       1.0  0.34640  0.53397  0.18829  1.0000 -0.5718869971
O   O25       1.0  0.94250  0.05700  0.70120  1.0000 -0.6653047559
O   O26       1.0  0.94300  0.88550  0.70120  1.0000 -0.6639606049
O   O27       1.0  0.11450  0.05750  0.70120  1.0000 -0.6639606049
O   O28       1.0  0.94300  0.05750  0.79880  1.0000 -0.6639606049
O   O29       1.0  0.11450  0.05700  0.79880  1.0000 -0.6639606049
O   O30       1.0  0.94250  0.88550  0.79880  1.0000 -0.6639606049
O   O31       1.0  0.05750  0.94300  0.29880  1.0000 -0.6639606049
O   O32       1.0  0.05700  0.11450  0.29880  1.0000 -0.6639606049
O   O33       1.0  0.88550  0.94250  0.29880  1.0000 -0.6653047559
O   O34       1.0  0.05700  0.94250  0.20120  1.0000 -0.6639606049
O   O35       1.0  0.88550  0.94300  0.20120  1.0000 -0.6653047559
O   O36       1.0  0.05750  0.11450  0.20120  1.0000 -0.6639606049
O   O37       1.0  0.66667  0.33333  0.75000  1.0000 -1.0287720916
O   O38       1.0  0.33333  0.66667  0.25000  1.0000 -1.0287720916
