# DDEC6 charges by PACMAN v1.1 (https://github.com/mtap-research/PACMAN-charge/)
data_2013[Zn][hex]3[ASR]1
_chemical_formula_sum              "Zn12 H144 C216 N8 O48"
_cell_length_a       14.586
_cell_length_b       18.068
_cell_length_c       28.811
_cell_angle_alpha    90
_cell_angle_beta     120.415
_cell_angle_gamma    90

_symmetry_space_group_name_H-M    "P 1"
_symmetry_Int_Tables_number       1

loop_
  _symmetry_equiv_pos_as_xyz
  'x, y, z'

loop_
  _atom_site_type_symbol
  _atom_site_label
  _atom_site_symmetry_multiplicity
  _atom_site_fract_x
  _atom_site_fract_y
  _atom_site_fract_z
  _atom_site_occupancy
  _atom_site_charge
Zn  Zn1       1.0  0.31642  0.43962  0.35593  1.0000 0.8312492696
Zn  Zn2       1.0  0.31642  0.06038  0.85593  1.0000 0.8312492696
Zn  Zn3       1.0  0.35131  0.24682  0.35502  1.0000 1.053508359
Zn  Zn4       1.0  0.35131  0.25318  0.85502  1.0000 1.053508359
Zn  Zn5       1.0  0.39055  0.05273  0.35639  1.0000 0.8312492696
Zn  Zn6       1.0  0.39055  0.44727  0.85639  1.0000 0.8312492696
Zn  Zn7       1.0  0.68358  0.93962  0.14407  1.0000 0.8312492696
Zn  Zn8       1.0  0.68358  0.56038  0.64407  1.0000 0.8312492696
Zn  Zn9       1.0  0.64869  0.74682  0.14498  1.0000 1.053508359
Zn  Zn10      1.0  0.64869  0.75318  0.64498  1.0000 1.053508359
Zn  Zn11      1.0  0.60945  0.55273  0.14361  1.0000 0.8312492696
Zn  Zn12      1.0  0.60945  0.94727  0.64361  1.0000 0.8312492696
H   H1        1.0  0.46440  0.55900  0.42260  1.0000 0.1112841224
H   H2        1.0  0.46440  0.94100  0.92260  1.0000 0.1112841224
H   H3        1.0  0.48530  0.68730  0.42310  1.0000 0.1314399077
H   H4        1.0  0.48530  0.81270  0.92310  1.0000 0.1314399077
H   H5        1.0  0.13170  0.74430  0.28310  1.0000 0.1414581766
H   H6        1.0  0.13170  0.75570  0.78310  1.0000 0.1414581766
H   H7        1.0  0.18520  0.73540  0.24670  1.0000 0.1414581766
H   H8        1.0  0.18520  0.76460  0.74670  1.0000 0.1414581766
H   H9        1.0  0.10700  0.67270  0.24590  1.0000 0.1414581766
H   H10       1.0  0.10700  0.82730  0.74590  1.0000 0.1414581766
H   H11       1.0  0.18880  0.56890  0.28970  1.0000 0.1197861577
H   H12       1.0  0.18880  0.93110  0.78970  1.0000 0.1197861577
H   H13       1.0  0.37970  0.93250  0.42500  1.0000 0.1112841224
H   H14       1.0  0.37970  0.56750  0.92500  1.0000 0.1112841224
H   H15       1.0  0.35350  0.80540  0.42210  1.0000 0.1314399077
H   H16       1.0  0.35350  0.69460  0.92210  1.0000 0.1314399077
H   H17       1.0  0.38620  0.73030  0.27750  1.0000 0.1414581766
H   H18       1.0  0.38620  0.76970  0.77750  1.0000 0.1414581766
H   H19       1.0  0.33970  0.80040  0.23830  1.0000 0.1314399077
H   H20       1.0  0.33970  0.69960  0.73830  1.0000 0.1314399077
H   H21       1.0  0.46430  0.79510  0.28110  1.0000 0.1414581766
H   H22       1.0  0.46430  0.70490  0.78110  1.0000 0.1414581766
H   H23       1.0  0.39330  0.92460  0.29190  1.0000 0.1197861577
H   H24       1.0  0.39330  0.57540  0.79190  1.0000 0.1197861577
H   H25       1.0  0.99040  0.41100  0.32750  1.0000 0.1112841224
H   H26       1.0  0.99040  0.08900  0.82750  1.0000 0.1112841224
H   H27       1.0  0.83920  0.36380  0.32830  1.0000 0.1112841224
H   H28       1.0  0.83920  0.13620  0.82830  1.0000 0.1112841224
H   H29       1.0  0.00010  0.17120  0.39280  1.0000 0.1112841224
H   H30       1.0  0.00010  0.32880  0.89280  1.0000 0.1112841224
H   H31       1.0  0.14470  0.21710  0.38930  1.0000 0.1197861577
H   H32       1.0  0.14470  0.28290  0.88930  1.0000 0.1197861577
H   H33       1.0  0.83660  0.12530  0.35210  1.0000 0.1197861577
H   H34       1.0  0.83660  0.37470  0.85210  1.0000 0.1197861577
H   H35       1.0  0.68230  0.07870  0.34500  1.0000 0.1197861577
H   H36       1.0  0.68230  0.42130  0.84500  1.0000 0.1197861577
H   H37       1.0  0.59430  0.28360  0.36040  1.0000 0.1314399077
H   H38       1.0  0.59430  0.21640  0.86040  1.0000 0.1314399077
H   H39       1.0  0.75260  0.33080  0.36910  1.0000 0.1197861577
H   H40       1.0  0.75260  0.16920  0.86910  1.0000 0.1197861577
H   H41       1.0  0.61810  0.47670  0.49720  1.0000 0.1197861577
H   H42       1.0  0.61810  0.02330  0.99720  1.0000 0.1197861577
H   H43       1.0  0.78690  0.47590  0.57250  1.0000 0.1197861577
H   H44       1.0  0.78690  0.02410  0.07250  1.0000 0.1197861577
H   H45       1.0  0.80770  0.25390  0.55700  1.0000 0.1112841224
H   H46       1.0  0.80770  0.24610  0.05700  1.0000 0.1112841224
H   H47       1.0  0.63770  0.25620  0.47880  1.0000 0.1197861577
H   H48       1.0  0.63770  0.24380  0.97880  1.0000 0.1314399077
H   H49       1.0  0.95950  0.47160  0.61910  1.0000 0.1197861577
H   H50       1.0  0.95950  0.02840  0.11910  1.0000 0.1197861577
H   H51       1.0  0.12280  0.47300  0.69820  1.0000 0.1197861577
H   H52       1.0  0.12280  0.02700  0.19820  1.0000 0.1197861577
H   H53       1.0  0.07000  0.26410  0.72940  1.0000 0.1314399077
H   H54       1.0  0.07000  0.23590  0.22940  1.0000 0.1314399077
H   H55       1.0  0.91940  0.25830  0.64530  1.0000 0.1112841224
H   H56       1.0  0.91940  0.24170  0.14530  1.0000 0.1112841224
H   H57       1.0  0.37520  0.46500  0.22740  1.0000 0.1197861577
H   H58       1.0  0.37520  0.03500  0.72740  1.0000 0.1197861577
H   H59       1.0  0.39510  0.46210  0.15140  1.0000 0.1112841224
H   H60       1.0  0.39510  0.03790  0.65140  1.0000 0.1112841224
H   H61       1.0  0.26630  0.25910  0.11350  1.0000 0.1197861577
H   H62       1.0  0.26630  0.24090  0.61350  1.0000 0.1197861577
H   H63       1.0  0.25780  0.25750  0.19350  1.0000 0.1197861577
H   H64       1.0  0.25780  0.24250  0.69350  1.0000 0.1197861577
H   H65       1.0  0.34660  0.47600  0.07240  1.0000 0.1197861577
H   H66       1.0  0.34660  0.02400  0.57240  1.0000 0.1197861577
H   H67       1.0  0.36710  0.47870  0.99690  1.0000 0.1197861577
H   H68       1.0  0.36710  0.02130  0.49690  1.0000 0.1197861577
H   H69       1.0  0.35830  0.25630  0.99000  1.0000 0.1314399077
H   H70       1.0  0.35830  0.24370  0.49000  1.0000 0.1314399077
H   H71       1.0  0.33770  0.25200  0.06490  1.0000 0.1112841224
H   H72       1.0  0.33770  0.24800  0.56490  1.0000 0.1112841224
H   H73       1.0  0.53560  0.05900  0.07740  1.0000 0.1112841224
H   H74       1.0  0.53560  0.44100  0.57740  1.0000 0.1112841224
H   H75       1.0  0.51470  0.18730  0.07690  1.0000 0.1314399077
H   H76       1.0  0.51470  0.31270  0.57690  1.0000 0.1314399077
H   H77       1.0  0.86830  0.24430  0.21690  1.0000 0.1414581766
H   H78       1.0  0.86830  0.25570  0.71690  1.0000 0.1414581766
H   H79       1.0  0.81480  0.23540  0.25330  1.0000 0.1414581766
H   H80       1.0  0.81480  0.26460  0.75330  1.0000 0.1414581766
H   H81       1.0  0.89300  0.17270  0.25410  1.0000 0.1414581766
H   H82       1.0  0.89300  0.32730  0.75410  1.0000 0.1414581766
H   H83       1.0  0.81120  0.06890  0.21030  1.0000 0.1197861577
H   H84       1.0  0.81120  0.43110  0.71030  1.0000 0.1197861577
H   H85       1.0  0.62030  0.43250  0.07500  1.0000 0.1112841224
H   H86       1.0  0.62030  0.06750  0.57500  1.0000 0.1112841224
H   H87       1.0  0.64650  0.30540  0.07790  1.0000 0.1314399077
H   H88       1.0  0.64650  0.19460  0.57790  1.0000 0.1314399077
H   H89       1.0  0.61380  0.23030  0.22250  1.0000 0.1414581766
H   H90       1.0  0.61380  0.26970  0.72250  1.0000 0.1414581766
H   H91       1.0  0.66030  0.30040  0.26170  1.0000 0.1314399077
H   H92       1.0  0.66030  0.19960  0.76170  1.0000 0.1314399077
H   H93       1.0  0.53570  0.29510  0.21890  1.0000 0.1414581766
H   H94       1.0  0.53570  0.20490  0.71890  1.0000 0.1414581766
H   H95       1.0  0.60670  0.42460  0.20810  1.0000 0.1197861577
H   H96       1.0  0.60670  0.07540  0.70810  1.0000 0.1197861577
H   H97       1.0  0.00960  0.91100  0.17250  1.0000 0.1112841224
H   H98       1.0  0.00960  0.58900  0.67250  1.0000 0.1112841224
H   H99       1.0  0.16080  0.86380  0.17170  1.0000 0.1112841224
H   H100      1.0  0.16080  0.63620  0.67170  1.0000 0.1112841224
H   H101      1.0  0.99990  0.67120  0.10720  1.0000 0.1112841224
H   H102      1.0  0.99990  0.82880  0.60720  1.0000 0.1112841224
H   H103      1.0  0.85530  0.71710  0.11070  1.0000 0.1197861577
H   H104      1.0  0.85530  0.78290  0.61070  1.0000 0.1197861577
H   H105      1.0  0.16340  0.62530  0.14790  1.0000 0.1197861577
H   H106      1.0  0.16340  0.87470  0.64790  1.0000 0.1197861577
H   H107      1.0  0.31770  0.57870  0.15500  1.0000 0.1197861577
H   H108      1.0  0.31770  0.92130  0.65500  1.0000 0.1197861577
H   H109      1.0  0.40570  0.78360  0.13960  1.0000 0.1314399077
H   H110      1.0  0.40570  0.71640  0.63960  1.0000 0.1314399077
H   H111      1.0  0.24740  0.83080  0.13090  1.0000 0.1197861577
H   H112      1.0  0.24740  0.66920  0.63090  1.0000 0.1197861577
H   H113      1.0  0.38190  0.97670  0.00280  1.0000 0.1197861577
H   H114      1.0  0.38190  0.52330  0.50280  1.0000 0.1197861577
H   H115      1.0  0.21310  0.97590  0.92750  1.0000 0.1197861577
H   H116      1.0  0.21310  0.52410  0.42750  1.0000 0.1197861577
H   H117      1.0  0.19230  0.75390  0.94300  1.0000 0.1112841224
H   H118      1.0  0.19230  0.74610  0.44300  1.0000 0.1112841224
H   H119      1.0  0.36230  0.75620  0.02120  1.0000 0.1314399077
H   H120      1.0  0.36230  0.74380  0.52120  1.0000 0.1314399077
H   H121      1.0  0.04050  0.97160  0.88090  1.0000 0.1197861577
H   H122      1.0  0.04050  0.52840  0.38090  1.0000 0.1197861577
H   H123      1.0  0.87720  0.97300  0.80180  1.0000 0.1197861577
H   H124      1.0  0.87720  0.52700  0.30180  1.0000 0.1197861577
H   H125      1.0  0.93000  0.76410  0.77060  1.0000 0.1314399077
H   H126      1.0  0.93000  0.73590  0.27060  1.0000 0.1314399077
H   H127      1.0  0.08060  0.75830  0.85470  1.0000 0.1112841224
H   H128      1.0  0.08060  0.74170  0.35470  1.0000 0.1112841224
H   H129      1.0  0.62480  0.96500  0.27260  1.0000 0.1197861577
H   H130      1.0  0.62480  0.53500  0.77260  1.0000 0.1197861577
H   H131      1.0  0.60490  0.96210  0.34860  1.0000 0.1112841224
H   H132      1.0  0.60490  0.53790  0.84860  1.0000 0.1112841224
H   H133      1.0  0.73370  0.75910  0.38650  1.0000 0.1197861577
H   H134      1.0  0.73370  0.74090  0.88650  1.0000 0.1197861577
H   H135      1.0  0.74220  0.75750  0.30650  1.0000 0.1197861577
H   H136      1.0  0.74220  0.74250  0.80650  1.0000 0.1197861577
H   H137      1.0  0.65340  0.97600  0.42760  1.0000 0.1197861577
H   H138      1.0  0.65340  0.52400  0.92760  1.0000 0.1197861577
H   H139      1.0  0.63290  0.97870  0.50310  1.0000 0.1197861577
H   H140      1.0  0.63290  0.52130  0.00310  1.0000 0.1197861577
H   H141      1.0  0.64170  0.75630  0.51000  1.0000 0.1314399077
H   H142      1.0  0.64170  0.74370  0.01000  1.0000 0.1314399077
H   H143      1.0  0.66230  0.75200  0.43510  1.0000 0.1112841224
H   H144      1.0  0.66230  0.74800  0.93510  1.0000 0.1112841224
C   C1        1.0  0.40990  0.58770  0.39460  1.0000 0.0613492419
C   C2        1.0  0.40990  0.91230  0.89460  1.0000 0.0703350407
C   C3        1.0  0.42350  0.66400  0.39510  1.0000 -0.1790165911
C   C4        1.0  0.42350  0.83600  0.89510  1.0000 -0.1790165911
C   C5        1.0  0.34440  0.70470  0.35370  1.0000 0.0507511301
C   C6        1.0  0.34440  0.79530  0.85370  1.0000 0.0507511301
C   C7        1.0  0.25440  0.66960  0.31390  1.0000 0.0875659054
C   C8        1.0  0.25440  0.83040  0.81390  1.0000 0.0875659054
C   C9        1.0  0.16150  0.70890  0.26840  1.0000 -0.4568282524
C   C10       1.0  0.16150  0.79110  0.76840  1.0000 -0.4568282524
C   C11       1.0  0.24940  0.59360  0.31730  1.0000 0.0140557337
C   C12       1.0  0.24940  0.90640  0.81730  1.0000 0.0140557337
C   C13       1.0  0.37540  0.90450  0.39610  1.0000 0.0613492419
C   C14       1.0  0.37540  0.59550  0.89610  1.0000 0.0613492419
C   C15       1.0  0.36140  0.82890  0.39490  1.0000 -0.185391319
C   C16       1.0  0.36140  0.67110  0.89490  1.0000 -0.185391319
C   C17       1.0  0.35880  0.78660  0.35310  1.0000 0.0613492419
C   C18       1.0  0.35880  0.71340  0.85310  1.0000 0.0613492419
C   C19       1.0  0.37580  0.82300  0.31530  1.0000 0.0875659054
C   C20       1.0  0.37580  0.67700  0.81530  1.0000 0.0875659054
C   C21       1.0  0.39290  0.78380  0.27450  1.0000 -0.4568282524
C   C22       1.0  0.39290  0.71620  0.77450  1.0000 -0.4568282524
C   C23       1.0  0.38510  0.89930  0.31850  1.0000 0.0140557337
C   C24       1.0  0.38510  0.60070  0.81850  1.0000 0.0140557337
C   C25       1.0  0.18100  0.34830  0.36180  1.0000 0.578550416
C   C26       1.0  0.18100  0.15170  0.86180  1.0000 0.578550416
C   C27       1.0  0.08360  0.31890  0.35950  1.0000 -0.0393570825
C   C28       1.0  0.08360  0.18110  0.85950  1.0000 -0.0393570825
C   C29       1.0  0.99200  0.36260  0.34070  1.0000 -0.1008133703
C   C30       1.0  0.99200  0.13740  0.84070  1.0000 -0.1008133703
C   C31       1.0  0.90180  0.33460  0.34160  1.0000 -0.1696447442
C   C32       1.0  0.90180  0.16540  0.84160  1.0000 -0.1696447442
C   C33       1.0  0.90590  0.26350  0.36220  1.0000 0.077784525
C   C34       1.0  0.90590  0.23650  0.86220  1.0000 0.077784525
C   C35       1.0  0.99760  0.21980  0.37970  1.0000 -0.1510612474
C   C36       1.0  0.99760  0.28020  0.87970  1.0000 -0.1510612474
C   C37       1.0  0.08380  0.24750  0.37780  1.0000 -0.0846672391
C   C38       1.0  0.08380  0.25250  0.87780  1.0000 -0.0846672391
C   C39       1.0  0.80870  0.23380  0.36030  1.0000 0.0703350407
C   C40       1.0  0.80870  0.26620  0.86030  1.0000 0.0703350407
C   C41       1.0  0.78760  0.15800  0.35400  1.0000 -0.1510612474
C   C42       1.0  0.78760  0.34200  0.85400  1.0000 -0.1510612474
C   C43       1.0  0.69680  0.13020  0.35040  1.0000 -0.1008133703
C   C44       1.0  0.69680  0.36980  0.85040  1.0000 -0.1008133703
C   C45       1.0  0.62700  0.17630  0.35460  1.0000 -0.025267181
C   C46       1.0  0.62700  0.32370  0.85460  1.0000 -0.025267181
C   C47       1.0  0.64480  0.25110  0.35970  1.0000 -0.0846672391
C   C48       1.0  0.64480  0.24890  0.85970  1.0000 -0.0846672391
C   C49       1.0  0.73830  0.27920  0.36380  1.0000 -0.1510612474
C   C50       1.0  0.73830  0.22080  0.86380  1.0000 -0.1510612474
C   C51       1.0  0.52520  0.14610  0.34890  1.0000 0.5919941169
C   C52       1.0  0.52520  0.35390  0.84890  1.0000 0.5919941169
C   C53       1.0  0.50550  0.36650  0.43020  1.0000 0.5919941169
C   C54       1.0  0.50550  0.13350  0.93020  1.0000 0.5919941169
C   C55       1.0  0.61300  0.36680  0.47890  1.0000 -0.0497225957
C   C56       1.0  0.61300  0.13320  0.97890  1.0000 -0.0497225957
C   C57       1.0  0.65710  0.43170  0.50840  1.0000 -0.1008133703
C   C58       1.0  0.65710  0.06830  0.00840  1.0000 -0.1008133703
C   C59       1.0  0.75700  0.43100  0.55370  1.0000 -0.1429249766
C   C60       1.0  0.75700  0.06900  0.05370  1.0000 -0.1429249766
C   C61       1.0  0.81450  0.36570  0.57240  1.0000 0.077784525
C   C62       1.0  0.81450  0.13430  0.07240  1.0000 0.077784525
C   C63       1.0  0.76990  0.29920  0.54450  1.0000 -0.1696447442
C   C64       1.0  0.76990  0.20080  0.04450  1.0000 -0.1696447442
C   C65       1.0  0.66850  0.30090  0.49770  1.0000 -0.1008133703
C   C66       1.0  0.66850  0.19910  0.99770  1.0000 -0.1008133703
C   C67       1.0  0.91980  0.36510  0.62310  1.0000 0.077784525
C   C68       1.0  0.91980  0.13490  0.12310  1.0000 0.077784525
C   C69       1.0  0.98330  0.42820  0.64070  1.0000 -0.1510612474
C   C70       1.0  0.98330  0.07180  0.14070  1.0000 -0.1510612474
C   C71       1.0  0.07930  0.43010  0.68830  1.0000 -0.1008133703
C   C72       1.0  0.07930  0.06990  0.18830  1.0000 -0.1008133703
C   C73       1.0  0.11090  0.36860  0.72120  1.0000 -0.0234091604
C   C74       1.0  0.11090  0.13140  0.22120  1.0000 -0.0234091604
C   C75       1.0  0.04930  0.30560  0.70600  1.0000 -0.0906299391
C   C76       1.0  0.04930  0.19440  0.20600  1.0000 -0.0906299391
C   C77       1.0  0.95810  0.30340  0.65690  1.0000 -0.1510612474
C   C78       1.0  0.95810  0.19660  0.15690  1.0000 -0.1510612474
C   C79       1.0  0.21030  0.37180  0.77710  1.0000 0.6021794853
C   C80       1.0  0.21030  0.12820  0.27710  1.0000 0.6021794853
C   C81       1.0  0.31240  0.36180  0.26860  1.0000 0.5919941169
C   C82       1.0  0.31240  0.13820  0.76860  1.0000 0.5919941169
C   C83       1.0  0.32100  0.36230  0.22010  1.0000 -0.0497225957
C   C84       1.0  0.32100  0.13770  0.72010  1.0000 -0.0497225957
C   C85       1.0  0.35610  0.42160  0.20590  1.0000 -0.0906299391
C   C86       1.0  0.35610  0.07840  0.70590  1.0000 -0.0906299391
C   C87       1.0  0.36510  0.42060  0.15920  1.0000 -0.1581980875
C   C88       1.0  0.36510  0.07940  0.65920  1.0000 -0.1581980875
C   C89       1.0  0.33180  0.36170  0.12550  1.0000 0.077784525
C   C90       1.0  0.33180  0.13830  0.62550  1.0000 0.077784525
C   C91       1.0  0.29070  0.30040  0.13720  1.0000 -0.1581980875
C   C92       1.0  0.29070  0.19960  0.63720  1.0000 -0.1581980875
C   C93       1.0  0.28530  0.29960  0.18490  1.0000 -0.0846672391
C   C94       1.0  0.28530  0.20040  0.68490  1.0000 -0.0846672391
C   C95       1.0  0.33970  0.36370  0.07610  1.0000 0.077784525
C   C96       1.0  0.33970  0.13630  0.57610  1.0000 0.077784525
C   C97       1.0  0.34840  0.43110  0.05570  1.0000 -0.1510612474
C   C98       1.0  0.34840  0.06890  0.55570  1.0000 -0.1510612474
C   C99       1.0  0.35980  0.43240  0.01040  1.0000 -0.1008133703
C   C100      1.0  0.35980  0.06760  0.51040  1.0000 -0.1008133703
C   C101      1.0  0.36060  0.36890  0.98500  1.0000 -0.0393570825
C   C102      1.0  0.36060  0.13110  0.48500  1.0000 -0.0393570825
C   C103      1.0  0.35450  0.30100  0.00630  1.0000 -0.1008133703
C   C104      1.0  0.35450  0.19900  0.50630  1.0000 -0.1051465916
C   C105      1.0  0.34310  0.29850  0.05100  1.0000 -0.1510612474
C   C106      1.0  0.34310  0.20150  0.55100  1.0000 -0.1510612474
C   C107      1.0  0.37680  0.37060  0.93760  1.0000 0.5919941169
C   C108      1.0  0.37680  0.12940  0.43760  1.0000 0.5919941169
C   C109      1.0  0.59010  0.08770  0.10540  1.0000 0.0613492419
C   C110      1.0  0.59010  0.41230  0.60540  1.0000 0.0703350407
C   C111      1.0  0.57650  0.16400  0.10490  1.0000 -0.1790165911
C   C112      1.0  0.57650  0.33600  0.60490  1.0000 -0.1790165911
C   C113      1.0  0.65560  0.20470  0.14630  1.0000 0.0507511301
C   C114      1.0  0.65560  0.29530  0.64630  1.0000 0.0507511301
C   C115      1.0  0.74560  0.16960  0.18610  1.0000 0.0875659054
C   C116      1.0  0.74560  0.33040  0.68610  1.0000 0.0875659054
C   C117      1.0  0.83850  0.20890  0.23160  1.0000 -0.4568282524
C   C118      1.0  0.83850  0.29110  0.73160  1.0000 -0.4568282524
C   C119      1.0  0.75060  0.09360  0.18270  1.0000 0.0140557337
C   C120      1.0  0.75060  0.40640  0.68270  1.0000 0.0140557337
C   C121      1.0  0.62460  0.40450  0.10390  1.0000 0.0613492419
C   C122      1.0  0.62460  0.09550  0.60390  1.0000 0.0613492419
C   C123      1.0  0.63860  0.32890  0.10510  1.0000 -0.185391319
C   C124      1.0  0.63860  0.17110  0.60510  1.0000 -0.185391319
C   C125      1.0  0.64120  0.28660  0.14690  1.0000 0.0613492419
C   C126      1.0  0.64120  0.21340  0.64690  1.0000 0.0613492419
C   C127      1.0  0.62420  0.32300  0.18470  1.0000 0.0875659054
C   C128      1.0  0.62420  0.17700  0.68470  1.0000 0.0875659054
C   C129      1.0  0.60710  0.28380  0.22550  1.0000 -0.4568282524
C   C130      1.0  0.60710  0.21620  0.72550  1.0000 -0.4568282524
C   C131      1.0  0.61490  0.39930  0.18150  1.0000 0.0140557337
C   C132      1.0  0.61490  0.10070  0.68150  1.0000 0.0140557337
C   C133      1.0  0.81900  0.84830  0.13820  1.0000 0.578550416
C   C134      1.0  0.81900  0.65170  0.63820  1.0000 0.578550416
C   C135      1.0  0.91640  0.81890  0.14050  1.0000 -0.0393570825
C   C136      1.0  0.91640  0.68110  0.64050  1.0000 -0.0393570825
C   C137      1.0  0.00800  0.86260  0.15930  1.0000 -0.1008133703
C   C138      1.0  0.00800  0.63740  0.65930  1.0000 -0.1008133703
C   C139      1.0  0.09820  0.83460  0.15840  1.0000 -0.1696447442
C   C140      1.0  0.09820  0.66540  0.65840  1.0000 -0.1696447442
C   C141      1.0  0.09410  0.76350  0.13780  1.0000 0.077784525
C   C142      1.0  0.09410  0.73650  0.63780  1.0000 0.077784525
C   C143      1.0  0.00240  0.71980  0.12030  1.0000 -0.1510612474
C   C144      1.0  0.00240  0.78020  0.62030  1.0000 -0.1510612474
C   C145      1.0  0.91620  0.74750  0.12220  1.0000 -0.0846672391
C   C146      1.0  0.91620  0.75250  0.62220  1.0000 -0.0846672391
C   C147      1.0  0.19130  0.73380  0.13970  1.0000 0.0703350407
C   C148      1.0  0.19130  0.76620  0.63970  1.0000 0.0703350407
C   C149      1.0  0.21240  0.65800  0.14600  1.0000 -0.1510612474
C   C150      1.0  0.21240  0.84200  0.64600  1.0000 -0.1510612474
C   C151      1.0  0.30320  0.63020  0.14960  1.0000 -0.1008133703
C   C152      1.0  0.30320  0.86980  0.64960  1.0000 -0.1008133703
C   C153      1.0  0.37300  0.67630  0.14540  1.0000 -0.0234091604
C   C154      1.0  0.37300  0.82370  0.64540  1.0000 -0.025267181
C   C155      1.0  0.35520  0.75110  0.14030  1.0000 -0.0846672391
C   C156      1.0  0.35520  0.74890  0.64030  1.0000 -0.0846672391
C   C157      1.0  0.26170  0.77920  0.13620  1.0000 -0.1510612474
C   C158      1.0  0.26170  0.72080  0.63620  1.0000 -0.1510612474
C   C159      1.0  0.47480  0.64610  0.15110  1.0000 0.5919941169
C   C160      1.0  0.47480  0.85390  0.65110  1.0000 0.5919941169
C   C161      1.0  0.49450  0.86650  0.06980  1.0000 0.5919941169
C   C162      1.0  0.49450  0.63350  0.56980  1.0000 0.5919941169
C   C163      1.0  0.38700  0.86680  0.02110  1.0000 -0.0497225957
C   C164      1.0  0.38700  0.63320  0.52110  1.0000 -0.0497225957
C   C165      1.0  0.34290  0.93170  0.99160  1.0000 -0.1008133703
C   C166      1.0  0.34290  0.56830  0.49160  1.0000 -0.1008133703
C   C167      1.0  0.24300  0.93100  0.94630  1.0000 -0.1429249766
C   C168      1.0  0.24300  0.56900  0.44630  1.0000 -0.1429249766
C   C169      1.0  0.18550  0.86570  0.92760  1.0000 0.077784525
C   C170      1.0  0.18550  0.63430  0.42760  1.0000 0.077784525
C   C171      1.0  0.23010  0.79920  0.95550  1.0000 -0.1696447442
C   C172      1.0  0.23010  0.70080  0.45550  1.0000 -0.1696447442
C   C173      1.0  0.33150  0.80090  0.00230  1.0000 -0.1008133703
C   C174      1.0  0.33150  0.69910  0.50230  1.0000 -0.1008133703
C   C175      1.0  0.08020  0.86510  0.87690  1.0000 0.077784525
C   C176      1.0  0.08020  0.63490  0.37690  1.0000 0.077784525
C   C177      1.0  0.01670  0.92820  0.85930  1.0000 -0.1510612474
C   C178      1.0  0.01670  0.57180  0.35930  1.0000 -0.1510612474
C   C179      1.0  0.92070  0.93010  0.81170  1.0000 -0.1008133703
C   C180      1.0  0.92070  0.56990  0.31170  1.0000 -0.1008133703
C   C181      1.0  0.88910  0.86860  0.77880  1.0000 -0.0234091604
C   C182      1.0  0.88910  0.63140  0.27880  1.0000 -0.0234091604
C   C183      1.0  0.95070  0.80560  0.79400  1.0000 -0.0906299391
C   C184      1.0  0.95070  0.69440  0.29400  1.0000 -0.0906299391
C   C185      1.0  0.04190  0.80340  0.84310  1.0000 -0.1510612474
C   C186      1.0  0.04190  0.69660  0.34310  1.0000 -0.1510612474
C   C187      1.0  0.78970  0.87180  0.72290  1.0000 0.6021794853
C   C188      1.0  0.78970  0.62820  0.22290  1.0000 0.6021794853
C   C189      1.0  0.68760  0.86180  0.23140  1.0000 0.5919941169
C   C190      1.0  0.68760  0.63820  0.73140  1.0000 0.5919941169
C   C191      1.0  0.67900  0.86230  0.27990  1.0000 -0.0497225957
C   C192      1.0  0.67900  0.63770  0.77990  1.0000 -0.0497225957
C   C193      1.0  0.64390  0.92160  0.29410  1.0000 -0.0906299391
C   C194      1.0  0.64390  0.57840  0.79410  1.0000 -0.0906299391
C   C195      1.0  0.63490  0.92060  0.34080  1.0000 -0.1581980875
C   C196      1.0  0.63490  0.57940  0.84080  1.0000 -0.1581980875
C   C197      1.0  0.66820  0.86170  0.37450  1.0000 0.077784525
C   C198      1.0  0.66820  0.63830  0.87450  1.0000 0.077784525
C   C199      1.0  0.70930  0.80040  0.36280  1.0000 -0.1581980875
C   C200      1.0  0.70930  0.69960  0.86280  1.0000 -0.1581980875
C   C201      1.0  0.71470  0.79960  0.31510  1.0000 -0.0846672391
C   C202      1.0  0.71470  0.70040  0.81510  1.0000 -0.0846672391
C   C203      1.0  0.66030  0.86370  0.42390  1.0000 0.077784525
C   C204      1.0  0.66030  0.63630  0.92390  1.0000 0.077784525
C   C205      1.0  0.65160  0.93110  0.44430  1.0000 -0.1510612474
C   C206      1.0  0.65160  0.56890  0.94430  1.0000 -0.1510612474
C   C207      1.0  0.64020  0.93240  0.48960  1.0000 -0.1008133703
C   C208      1.0  0.64020  0.56760  0.98960  1.0000 -0.1008133703
C   C209      1.0  0.63940  0.86890  0.51500  1.0000 -0.0393570825
C   C210      1.0  0.63940  0.63110  0.01500  1.0000 -0.0393570825
C   C211      1.0  0.64550  0.80100  0.49370  1.0000 -0.1051465916
C   C212      1.0  0.64550  0.69900  0.99370  1.0000 -0.1051465916
C   C213      1.0  0.65690  0.79850  0.44900  1.0000 -0.1510612474
C   C214      1.0  0.65690  0.70150  0.94900  1.0000 -0.1510612474
C   C215      1.0  0.62320  0.87060  0.56240  1.0000 0.5919941169
C   C216      1.0  0.62320  0.62940  0.06240  1.0000 0.5919941169
N   N1        1.0  0.32340  0.55309  0.35640  1.0000 -0.2317742231
N   N2        1.0  0.32340  0.94691  0.85640  1.0000 -0.2317742231
N   N3        1.0  0.38300  0.93920  0.35680  1.0000 -0.2363258573
N   N4        1.0  0.38300  0.56080  0.85680  1.0000 -0.2363258573
N   N5        1.0  0.67660  0.05309  0.14360  1.0000 -0.2317742231
N   N6        1.0  0.67660  0.44691  0.64360  1.0000 -0.2317742231
N   N7        1.0  0.61700  0.43920  0.14320  1.0000 -0.2363258573
N   N8        1.0  0.61700  0.06080  0.64320  1.0000 -0.2363258573
O   O1        1.0  0.17930  0.41460  0.34890  1.0000 -0.5307321422
O   O2        1.0  0.17930  0.08540  0.84890  1.0000 -0.5307321422
O   O3        1.0  0.26191  0.30830  0.37951  1.0000 -0.569555563
O   O4        1.0  0.26191  0.19170  0.87951  1.0000 -0.569555563
O   O5        1.0  0.52150  0.07830  0.35760  1.0000 -0.5400762381
O   O6        1.0  0.52150  0.42170  0.85760  1.0000 -0.5400762381
O   O7        1.0  0.44774  0.18890  0.33333  1.0000 -0.5605366352
O   O8        1.0  0.44774  0.31110  0.83334  1.0000 -0.5605366352
O   O9        1.0  0.44876  0.42510  0.42266  1.0000 -0.569555563
O   O10       1.0  0.44876  0.07490  0.92266  1.0000 -0.569555563
O   O11       1.0  0.48194  0.31600  0.39784  1.0000 -0.5307321422
O   O12       1.0  0.48194  0.18400  0.89784  1.0000 -0.5307321422
O   O13       1.0  0.26681  0.42970  0.78721  1.0000 -0.549429697
O   O14       1.0  0.26681  0.07030  0.28721  1.0000 -0.549429697
O   O15       1.0  0.22380  0.32480  0.81220  1.0000 -0.569555563
O   O16       1.0  0.22380  0.17520  0.31220  1.0000 -0.569555563
O   O17       1.0  0.32268  0.42200  0.29068  1.0000 -0.5211046162
O   O18       1.0  0.32268  0.07800  0.79068  1.0000 -0.5211046162
O   O19       1.0  0.28793  0.30180  0.28233  1.0000 -0.5605366352
O   O20       1.0  0.28793  0.19820  0.78233  1.0000 -0.5605366352
O   O21       1.0  0.37737  0.43180  0.91917  1.0000 -0.5307321422
O   O22       1.0  0.37737  0.06820  0.41917  1.0000 -0.5307321422
O   O23       1.0  0.40855  0.31100  0.92535  1.0000 -0.5839851322
O   O24       1.0  0.40855  0.18900  0.42535  1.0000 -0.5839851322
O   O25       1.0  0.82070  0.91460  0.15110  1.0000 -0.5307321422
O   O26       1.0  0.82070  0.58540  0.65110  1.0000 -0.5307321422
O   O27       1.0  0.73809  0.80830  0.12049  1.0000 -0.569555563
O   O28       1.0  0.73809  0.69170  0.62049  1.0000 -0.569555563
O   O29       1.0  0.47850  0.57830  0.14240  1.0000 -0.5400762381
O   O30       1.0  0.47850  0.92170  0.64240  1.0000 -0.5400762381
O   O31       1.0  0.55226  0.68890  0.16666  1.0000 -0.5605366352
O   O32       1.0  0.55226  0.81110  0.66667  1.0000 -0.5605366352
O   O33       1.0  0.55124  0.92510  0.07734  1.0000 -0.569555563
O   O34       1.0  0.55124  0.57490  0.57734  1.0000 -0.569555563
O   O35       1.0  0.51806  0.81600  0.10216  1.0000 -0.5307321422
O   O36       1.0  0.51806  0.68400  0.60216  1.0000 -0.5307321422
O   O37       1.0  0.73319  0.92970  0.71279  1.0000 -0.549429697
O   O38       1.0  0.73319  0.57030  0.21279  1.0000 -0.549429697
O   O39       1.0  0.77620  0.82480  0.68780  1.0000 -0.569555563
O   O40       1.0  0.77620  0.67520  0.18780  1.0000 -0.569555563
O   O41       1.0  0.67732  0.92200  0.20932  1.0000 -0.5211046162
O   O42       1.0  0.67732  0.57800  0.70932  1.0000 -0.5211046162
O   O43       1.0  0.71207  0.80180  0.21767  1.0000 -0.5605366352
O   O44       1.0  0.71207  0.69820  0.71767  1.0000 -0.5605366352
O   O45       1.0  0.62263  0.93180  0.58083  1.0000 -0.5307321422
O   O46       1.0  0.62263  0.56820  0.08083  1.0000 -0.5307321422
O   O47       1.0  0.59145  0.81100  0.57465  1.0000 -0.5839851322
O   O48       1.0  0.59145  0.68900  0.07465  1.0000 -0.5839851322
