# DDEC6 charges by PACMAN v1.1 (https://github.com/mtap-research/PACMAN-charge/)
data_2013[Co][sqc]3[ASR]1
_chemical_formula_sum              "Co2 H20 C24 N4 O6 F2"
_cell_length_a       9.6503
_cell_length_b       9.6503
_cell_length_c       11.409
_cell_angle_alpha    82.9086
_cell_angle_beta     97.0914
_cell_angle_gamma    135.398

_symmetry_space_group_name_H-M    "P 1"
_symmetry_Int_Tables_number       1

loop_
  _symmetry_equiv_pos_as_xyz
  'x, y, z'

loop_
  _atom_site_type_symbol
  _atom_site_label
  _atom_site_symmetry_multiplicity
  _atom_site_fract_x
  _atom_site_fract_y
  _atom_site_fract_z
  _atom_site_occupancy
  _atom_site_charge
Co  Co1       1.0  0.90284  0.40476  0.50310  1.0000 0.9379312772
Co  Co2       1.0  0.40476  0.90284  0.49690  1.0000 0.9379312772
H   H1        1.0  0.16040  0.13300  0.39030  1.0000 0.3388617415
H   H2        1.0  0.13300  0.16040  0.60970  1.0000 0.3388617415
H   H3        1.0  0.87440  0.58860  0.26980  1.0000 0.1092529971
H   H4        1.0  0.58860  0.87440  0.73020  1.0000 0.1092529971
H   H5        1.0  0.87220  0.59180  0.06810  1.0000 0.1273430714
H   H6        1.0  0.59180  0.87220  0.93190  1.0000 0.1273430714
H   H7        1.0  0.93790  0.22110  0.11590  1.0000 0.1273430714
H   H8        1.0  0.22110  0.93790  0.88410  1.0000 0.1273430714
H   H9        1.0  0.93940  0.22960  0.31550  1.0000 0.1092529971
H   H10       1.0  0.22960  0.93940  0.68450  1.0000 0.1092529971
H   H11       1.0  0.10310  0.39930  0.73320  1.0000 0.1092529971
H   H12       1.0  0.39930  0.10310  0.26680  1.0000 0.1092529971
H   H13       1.0  0.10280  0.38760  0.93290  1.0000 0.1273430714
H   H14       1.0  0.38760  0.10280  0.06710  1.0000 0.1273430714
H   H15       1.0  0.70110  0.41510  0.88920  1.0000 0.1210144464
H   H16       1.0  0.41510  0.70110  0.11080  1.0000 0.1210144464
H   H17       1.0  0.70490  0.41090  0.69000  1.0000 0.1092529971
H   H18       1.0  0.41090  0.70490  0.31000  1.0000 0.1092529971
H   H19       1.0  0.79570  0.79130  0.39820  1.0000 0.1210144464
H   H20       1.0  0.79130  0.79570  0.60180  1.0000 0.1210144464
C   C1        1.0  0.88590  0.51310  0.23800  1.0000 0.0905618758
C   C2        1.0  0.51310  0.88590  0.76200  1.0000 0.0905618758
C   C3        1.0  0.88590  0.51690  0.11660  1.0000 -0.2101319652
C   C4        1.0  0.51690  0.88590  0.88340  1.0000 -0.2101319652
C   C5        1.0  0.90680  0.40660  0.06680  1.0000 0.0905618758
C   C6        1.0  0.40660  0.90680  0.93320  1.0000 0.0905618758
C   C7        1.0  0.92500  0.29720  0.14480  1.0000 -0.2043609243
C   C8        1.0  0.29720  0.92500  0.85520  1.0000 -0.2043609243
C   C9        1.0  0.92400  0.30160  0.26500  1.0000 0.0971685297
C   C10       1.0  0.30160  0.92400  0.73500  1.0000 0.0971685297
C   C11       1.0  0.01890  0.39890  0.76570  1.0000 0.0762461725
C   C12       1.0  0.39890  0.01890  0.23430  1.0000 0.0762461725
C   C13       1.0  0.02310  0.39610  0.88570  1.0000 -0.2043609243
C   C14       1.0  0.39610  0.02310  0.11430  1.0000 -0.2043609243
C   C15       1.0  0.90650  0.40630  0.93730  1.0000 0.0905618758
C   C16       1.0  0.40630  0.90650  0.06270  1.0000 0.0905618758
C   C17       1.0  0.78330  0.41050  0.85960  1.0000 -0.2101319652
C   C18       1.0  0.41050  0.78330  0.14040  1.0000 -0.2101319652
C   C19       1.0  0.78660  0.40780  0.73970  1.0000 0.0971685297
C   C20       1.0  0.40780  0.78660  0.26030  1.0000 0.0971685297
C   C21       1.0  0.01020  0.80100  0.46750  1.0000 0.551166721
C   C22       1.0  0.80100  0.01020  0.53250  1.0000 0.551166721
C   C23       1.0  0.92420  0.88880  0.44070  1.0000 -0.0102934191
C   C24       1.0  0.88880  0.92420  0.55930  1.0000 -0.0102934191
N   N1        1.0  0.89990  0.40110  0.69050  1.0000 -0.2321677055
N   N2        1.0  0.40110  0.89990  0.30950  1.0000 -0.2321677055
N   N3        1.0  0.90200  0.40480  0.31230  1.0000 -0.2321677055
N   N4        1.0  0.40480  0.90200  0.68770  1.0000 -0.2321677055
O   O1        1.0  0.88460  0.61500  0.48900  1.0000 -0.5733868997
O   O2        1.0  0.61500  0.88460  0.51100  1.0000 -0.5733868997
O   O3        1.0  0.19290  0.91890  0.46530  1.0000 -0.5472383421
O   O4        1.0  0.91890  0.19290  0.53470  1.0000 -0.5472383421
O   O5        1.0  0.04400  0.06400  0.36880  1.0000 -0.4428194683
O   O6        1.0  0.06400  0.04400  0.63120  1.0000 -0.4428194683
F   F1        1.0  0.60679  0.20021  0.48940  1.0000 -0.5642393749
F   F2        1.0  0.20021  0.60679  0.51060  1.0000 -0.5642393749
