# DDEC6 charges by PACMAN v1.1 (https://github.com/mtap-research/PACMAN-charge/)
data_2013[Cd][nan]3[ASR]10
_chemical_formula_sum              "Cd16 H88 C136 N16 O64"
_cell_length_a       18.0861
_cell_length_b       14.2083
_cell_length_c       19.298
_cell_angle_alpha    90
_cell_angle_beta     97.836
_cell_angle_gamma    90

_symmetry_space_group_name_H-M    "P 1"
_symmetry_Int_Tables_number       1

loop_
  _symmetry_equiv_pos_as_xyz
  'x, y, z'

loop_
  _atom_site_type_symbol
  _atom_site_label
  _atom_site_symmetry_multiplicity
  _atom_site_fract_x
  _atom_site_fract_y
  _atom_site_fract_z
  _atom_site_occupancy
  _atom_site_charge
Cd  Cd1       1.0  0.83660  0.20498  0.56284  1.0000 0.8994515773
Cd  Cd2       1.0  0.16340  0.20498  0.93716  1.0000 0.8994515773
Cd  Cd3       1.0  0.16340  0.79502  0.43716  1.0000 0.8994515773
Cd  Cd4       1.0  0.83660  0.79502  0.06284  1.0000 0.8994515773
Cd  Cd5       1.0  0.67088  0.20187  0.37555  1.0000 0.9928454321
Cd  Cd6       1.0  0.32912  0.20187  0.12445  1.0000 0.9928454321
Cd  Cd7       1.0  0.32912  0.79813  0.62445  1.0000 0.9928454321
Cd  Cd8       1.0  0.67088  0.79813  0.87555  1.0000 0.9928454321
Cd  Cd9       1.0  0.48807  0.13352  0.97796  1.0000 0.9806157064
Cd  Cd10      1.0  0.51193  0.13352  0.52204  1.0000 0.9806157064
Cd  Cd11      1.0  0.51193  0.86648  0.02204  1.0000 0.9806157064
Cd  Cd12      1.0  0.48807  0.86648  0.47796  1.0000 0.9806157064
Cd  Cd13      1.0  0.59974  0.27014  0.16445  1.0000 0.8994515773
Cd  Cd14      1.0  0.40026  0.27014  0.33555  1.0000 0.8994515773
Cd  Cd15      1.0  0.40026  0.72986  0.83555  1.0000 0.8994515773
Cd  Cd16      1.0  0.59974  0.72986  0.66445  1.0000 0.8994515773
H   H1        1.0  0.92640  0.03330  0.39310  1.0000 0.1190795512
H   H2        1.0  0.07360  0.03330  0.10690  1.0000 0.1190795512
H   H3        1.0  0.07360  0.96670  0.60690  1.0000 0.1190795512
H   H4        1.0  0.92640  0.96670  0.89310  1.0000 0.1190795512
H   H5        1.0  0.94350  0.96390  0.28720  1.0000 0.1305177243
H   H6        1.0  0.05650  0.96390  0.21280  1.0000 0.1305177243
H   H7        1.0  0.05650  0.03610  0.71280  1.0000 0.1305177243
H   H8        1.0  0.94350  0.03610  0.78720  1.0000 0.1305177243
H   H9        1.0  0.71900  0.95870  0.23200  1.0000 0.1305177243
H   H10       1.0  0.28100  0.95870  0.26800  1.0000 0.1305177243
H   H11       1.0  0.28100  0.04130  0.76800  1.0000 0.1305177243
H   H12       1.0  0.71900  0.04130  0.73200  1.0000 0.1305177243
H   H13       1.0  0.63840  0.91260  0.39350  1.0000 0.1523349495
H   H14       1.0  0.36160  0.91260  0.10650  1.0000 0.1523349495
H   H15       1.0  0.36160  0.08740  0.60650  1.0000 0.1523349495
H   H16       1.0  0.63840  0.08740  0.89350  1.0000 0.1523349495
H   H17       1.0  0.70760  0.96140  0.44050  1.0000 0.1523349495
H   H18       1.0  0.29240  0.96140  0.05950  1.0000 0.1523349495
H   H19       1.0  0.29240  0.03860  0.55950  1.0000 0.1523349495
H   H20       1.0  0.70760  0.03860  0.94050  1.0000 0.1523349495
H   H21       1.0  0.62130  0.95890  0.26520  1.0000 0.1400948836
H   H22       1.0  0.37870  0.95890  0.23480  1.0000 0.1400948836
H   H23       1.0  0.37870  0.04110  0.73480  1.0000 0.1400948836
H   H24       1.0  0.62130  0.04110  0.76520  1.0000 0.1400948836
H   H25       1.0  0.56710  0.01480  0.30970  1.0000 0.1523349495
H   H26       1.0  0.43290  0.01480  0.19030  1.0000 0.1523349495
H   H27       1.0  0.43290  0.98520  0.69030  1.0000 0.1523349495
H   H28       1.0  0.56710  0.98520  0.80970  1.0000 0.1523349495
H   H29       1.0  0.68660  0.34600  0.92840  1.0000 0.1305177243
H   H30       1.0  0.31340  0.34600  0.57160  1.0000 0.1305177243
H   H31       1.0  0.31340  0.65400  0.07160  1.0000 0.1305177243
H   H32       1.0  0.68660  0.65400  0.42840  1.0000 0.1305177243
H   H33       1.0  0.76160  0.47910  0.94110  1.0000 0.1305177243
H   H34       1.0  0.23840  0.47910  0.55890  1.0000 0.1305177243
H   H35       1.0  0.23840  0.52090  0.05890  1.0000 0.1305177243
H   H36       1.0  0.76160  0.52090  0.44110  1.0000 0.1305177243
H   H37       1.0  0.65940  0.56290  0.10340  1.0000 0.1305177243
H   H38       1.0  0.34060  0.56290  0.39660  1.0000 0.1305177243
H   H39       1.0  0.34060  0.43710  0.89660  1.0000 0.1305177243
H   H40       1.0  0.65940  0.43710  0.60340  1.0000 0.1305177243
H   H41       1.0  0.45770  0.47230  0.07420  1.0000 0.1400948836
H   H42       1.0  0.54230  0.47230  0.42580  1.0000 0.1400948836
H   H43       1.0  0.54230  0.52770  0.92580  1.0000 0.1400948836
H   H44       1.0  0.45770  0.52770  0.57420  1.0000 0.1400948836
H   H45       1.0  0.48690  0.39760  0.02230  1.0000 0.1305177243
H   H46       1.0  0.51310  0.39760  0.47770  1.0000 0.1305177243
H   H47       1.0  0.51310  0.60240  0.97770  1.0000 0.1305177243
H   H48       1.0  0.48690  0.60240  0.52230  1.0000 0.1305177243
H   H49       1.0  0.56750  0.55610  0.15030  1.0000 0.1400948836
H   H50       1.0  0.43250  0.55610  0.34970  1.0000 0.1400948836
H   H51       1.0  0.43250  0.44390  0.84970  1.0000 0.1400948836
H   H52       1.0  0.56750  0.44390  0.65030  1.0000 0.1400948836
H   H53       1.0  0.51630  0.48470  0.18670  1.0000 0.1400948836
H   H54       1.0  0.48370  0.48470  0.31330  1.0000 0.1400948836
H   H55       1.0  0.48370  0.51530  0.81330  1.0000 0.1400948836
H   H56       1.0  0.51630  0.51530  0.68670  1.0000 0.1400948836
H   H57       1.0  0.70140  0.11320  0.09600  1.0000 0.1190795512
H   H58       1.0  0.29860  0.11320  0.40400  1.0000 0.1190795512
H   H59       1.0  0.29860  0.88680  0.90400  1.0000 0.1190795512
H   H60       1.0  0.70140  0.88680  0.59600  1.0000 0.1190795512
H   H61       1.0  0.81370  0.09320  0.05340  1.0000 0.1400948836
H   H62       1.0  0.18630  0.09320  0.44660  1.0000 0.1400948836
H   H63       1.0  0.18630  0.90680  0.94660  1.0000 0.1400948836
H   H64       1.0  0.81370  0.90680  0.55340  1.0000 0.1400948836
H   H65       1.0  0.86630  0.36100  0.11190  1.0000 0.1305177243
H   H66       1.0  0.13370  0.36100  0.38810  1.0000 0.1305177243
H   H67       1.0  0.13370  0.63900  0.88810  1.0000 0.1305177243
H   H68       1.0  0.86630  0.63900  0.61190  1.0000 0.1305177243
H   H69       1.0  0.75570  0.36950  0.15850  1.0000 0.1122784023
H   H70       1.0  0.24430  0.36950  0.34150  1.0000 0.1122784023
H   H71       1.0  0.24430  0.63050  0.84150  1.0000 0.1122784023
H   H72       1.0  0.75570  0.63050  0.65850  1.0000 0.1122784023
H   H73       1.0  0.89390  0.11670  0.97580  1.0000 0.1305177243
H   H74       1.0  0.10610  0.11670  0.52420  1.0000 0.1305177243
H   H75       1.0  0.10610  0.88330  0.02420  1.0000 0.1305177243
H   H76       1.0  0.89390  0.88330  0.47580  1.0000 0.1305177243
H   H77       1.0  0.00260  0.11890  0.92530  1.0000 0.1122784023
H   H78       1.0  0.99740  0.11890  0.57470  1.0000 0.1122784023
H   H79       1.0  0.99740  0.88110  0.07470  1.0000 0.1122784023
H   H80       1.0  0.00260  0.88110  0.42530  1.0000 0.1122784023
H   H81       1.0  0.08780  0.31010  0.05480  1.0000 0.1305177243
H   H82       1.0  0.91220  0.31010  0.44520  1.0000 0.1305177243
H   H83       1.0  0.91220  0.68990  0.94520  1.0000 0.1305177243
H   H84       1.0  0.08780  0.68990  0.55480  1.0000 0.1305177243
H   H85       1.0  0.98380  0.31210  0.11020  1.0000 0.1305177243
H   H86       1.0  0.01620  0.31210  0.38980  1.0000 0.1305177243
H   H87       1.0  0.01620  0.68790  0.88980  1.0000 0.1305177243
H   H88       1.0  0.98380  0.68790  0.61020  1.0000 0.1305177243
C   C1        1.0  0.80950  0.08090  0.44720  1.0000 0.5467769962
C   C2        1.0  0.19050  0.08090  0.05280  1.0000 0.5467769962
C   C3        1.0  0.19050  0.91910  0.55280  1.0000 0.5467769962
C   C4        1.0  0.80950  0.91910  0.94720  1.0000 0.5467769962
C   C5        1.0  0.81330  0.03500  0.37730  1.0000 -0.1100201168
C   C6        1.0  0.18670  0.03500  0.12270  1.0000 -0.1100201168
C   C7        1.0  0.18670  0.96500  0.62270  1.0000 -0.1100201168
C   C8        1.0  0.81330  0.96500  0.87730  1.0000 -0.1100201168
C   C9        1.0  0.88410  0.01720  0.36050  1.0000 -0.1100201168
C   C10       1.0  0.11590  0.01720  0.13950  1.0000 -0.1100201168
C   C11       1.0  0.11590  0.98280  0.63950  1.0000 -0.1100201168
C   C12       1.0  0.88410  0.98280  0.86050  1.0000 -0.1215247769
C   C13       1.0  0.89470  0.97690  0.29760  1.0000 -0.1100201168
C   C14       1.0  0.10530  0.97690  0.20240  1.0000 -0.1100201168
C   C15       1.0  0.10530  0.02310  0.70240  1.0000 -0.1100201168
C   C16       1.0  0.89470  0.02310  0.79760  1.0000 -0.1100201168
C   C17       1.0  0.83230  0.95580  0.24980  1.0000 0.0202563705
C   C18       1.0  0.16770  0.95580  0.25020  1.0000 0.0202563705
C   C19       1.0  0.16770  0.04420  0.75020  1.0000 0.0202563705
C   C20       1.0  0.83230  0.04420  0.74980  1.0000 0.0202563705
C   C21       1.0  0.84180  0.90550  0.18150  1.0000 0.540391938
C   C22       1.0  0.15820  0.90550  0.31850  1.0000 0.540391938
C   C23       1.0  0.15820  0.09450  0.81850  1.0000 0.540391938
C   C24       1.0  0.84180  0.09450  0.68150  1.0000 0.540391938
C   C25       1.0  0.76100  0.97330  0.26550  1.0000 -0.1959352035
C   C26       1.0  0.23900  0.97330  0.23450  1.0000 -0.1959352035
C   C27       1.0  0.23900  0.02670  0.73450  1.0000 -0.1959352035
C   C28       1.0  0.76100  0.02670  0.76550  1.0000 -0.1959352035
C   C29       1.0  0.75010  0.01150  0.32900  1.0000 0.1305177243
C   C30       1.0  0.24990  0.01150  0.17100  1.0000 0.1305177243
C   C31       1.0  0.24990  0.98850  0.67100  1.0000 0.1305177243
C   C32       1.0  0.75010  0.98850  0.82900  1.0000 0.1305177243
C   C33       1.0  0.66040  0.97390  0.40950  1.0000 -0.2785326678
C   C34       1.0  0.33960  0.97390  0.09050  1.0000 -0.2785326678
C   C35       1.0  0.33960  0.02610  0.59050  1.0000 -0.2785326678
C   C36       1.0  0.66040  0.02610  0.90950  1.0000 -0.2785326678
C   C37       1.0  0.60690  0.02530  0.45070  1.0000 0.6102991563
C   C38       1.0  0.39310  0.02530  0.04930  1.0000 0.6102991563
C   C39       1.0  0.39310  0.97470  0.54930  1.0000 0.6102991563
C   C40       1.0  0.60690  0.97470  0.95070  1.0000 0.6102991563
C   C41       1.0  0.61480  0.01860  0.29020  1.0000 -0.2865487177
C   C42       1.0  0.38520  0.01860  0.20980  1.0000 -0.2865487177
C   C43       1.0  0.38520  0.98140  0.70980  1.0000 -0.2865487177
C   C44       1.0  0.61480  0.98140  0.79020  1.0000 -0.2865487177
C   C45       1.0  0.61100  0.09890  0.23880  1.0000 0.5963875364
C   C46       1.0  0.38900  0.09890  0.26120  1.0000 0.5963875364
C   C47       1.0  0.38900  0.90110  0.76120  1.0000 0.5963875364
C   C48       1.0  0.61100  0.90110  0.73880  1.0000 0.5963875364
C   C49       1.0  0.58550  0.28260  0.99610  1.0000 0.540391938
C   C50       1.0  0.41450  0.28260  0.50390  1.0000 0.540391938
C   C51       1.0  0.41450  0.71740  0.00390  1.0000 0.540391938
C   C52       1.0  0.58550  0.71740  0.49610  1.0000 0.540391938
C   C53       1.0  0.62760  0.37360  0.00870  1.0000 -0.1215247769
C   C54       1.0  0.37240  0.37360  0.49130  1.0000 -0.1215247769
C   C55       1.0  0.37240  0.62640  0.99130  1.0000 -0.1215247769
C   C56       1.0  0.62760  0.62640  0.50870  1.0000 -0.1215247769
C   C57       1.0  0.68080  0.39010  0.96430  1.0000 -0.0927596826
C   C58       1.0  0.31920  0.39010  0.53570  1.0000 -0.0927596826
C   C59       1.0  0.31920  0.60990  0.03570  1.0000 -0.0927596826
C   C60       1.0  0.68080  0.60990  0.46430  1.0000 -0.0927596826
C   C61       1.0  0.72520  0.46920  0.97150  1.0000 -0.1100201168
C   C62       1.0  0.27480  0.46920  0.52850  1.0000 -0.1100201168
C   C63       1.0  0.27480  0.53080  0.02850  1.0000 -0.1100201168
C   C64       1.0  0.72520  0.53080  0.47150  1.0000 -0.1100201168
C   C65       1.0  0.71660  0.53360  0.02250  1.0000 0.0202563705
C   C66       1.0  0.28340  0.53360  0.47750  1.0000 0.0202563705
C   C67       1.0  0.28340  0.46640  0.97750  1.0000 0.0202563705
C   C68       1.0  0.71660  0.46640  0.52250  1.0000 0.0202563705
C   C69       1.0  0.76210  0.62310  0.02800  1.0000 0.5467769962
C   C70       1.0  0.23790  0.62310  0.47200  1.0000 0.5467769962
C   C71       1.0  0.23790  0.37690  0.97200  1.0000 0.5467769962
C   C72       1.0  0.76210  0.37690  0.52800  1.0000 0.5467769962
C   C73       1.0  0.66400  0.51850  0.06740  1.0000 -0.1959352035
C   C74       1.0  0.33600  0.51850  0.43260  1.0000 -0.1959352035
C   C75       1.0  0.33600  0.48150  0.93260  1.0000 -0.1959352035
C   C76       1.0  0.66400  0.48150  0.56740  1.0000 -0.1959352035
C   C77       1.0  0.61760  0.43980  0.06090  1.0000 0.1400948836
C   C78       1.0  0.38240  0.43980  0.43910  1.0000 0.1400948836
C   C79       1.0  0.38240  0.56020  0.93910  1.0000 0.1400948836
C   C80       1.0  0.61760  0.56020  0.56090  1.0000 0.1400948836
C   C81       1.0  0.48550  0.41260  0.07220  1.0000 -0.2663475711
C   C82       1.0  0.51450  0.41260  0.42780  1.0000 -0.2663475711
C   C83       1.0  0.51450  0.58740  0.92780  1.0000 -0.2663475711
C   C84       1.0  0.48550  0.58740  0.57220  1.0000 -0.2663475711
C   C85       1.0  0.44410  0.33500  0.10470  1.0000 0.6102991563
C   C86       1.0  0.55590  0.33500  0.39530  1.0000 0.6102991563
C   C87       1.0  0.55590  0.66500  0.89530  1.0000 0.6102991563
C   C88       1.0  0.44410  0.66500  0.60470  1.0000 0.6102991563
C   C89       1.0  0.56390  0.49060  0.16710  1.0000 -0.2785326678
C   C90       1.0  0.43610  0.49060  0.33290  1.0000 -0.2785326678
C   C91       1.0  0.43610  0.50940  0.83290  1.0000 -0.2785326678
C   C92       1.0  0.56390  0.50940  0.66710  1.0000 -0.2785326678
C   C93       1.0  0.62810  0.47280  0.22510  1.0000 0.5963875364
C   C94       1.0  0.37190  0.47280  0.27490  1.0000 0.5963875364
C   C95       1.0  0.37190  0.52720  0.77490  1.0000 0.5963875364
C   C96       1.0  0.62810  0.52720  0.72510  1.0000 0.5963875364
C   C97       1.0  0.73630  0.16350  0.10050  1.0000 0.0793775182
C   C98       1.0  0.26370  0.16350  0.39950  1.0000 0.0793775182
C   C99       1.0  0.26370  0.83650  0.89950  1.0000 0.0793775182
C   C100      1.0  0.73630  0.83650  0.60050  1.0000 0.0793775182
C   C101      1.0  0.80240  0.15160  0.07360  1.0000 -0.1834577174
C   C102      1.0  0.19760  0.15160  0.42640  1.0000 -0.1834577174
C   C103      1.0  0.19760  0.84840  0.92640  1.0000 -0.1834577174
C   C104      1.0  0.80240  0.84840  0.57360  1.0000 -0.1834577174
C   C105      1.0  0.85260  0.22670  0.07640  1.0000 0.1190795512
C   C106      1.0  0.14740  0.22670  0.42360  1.0000 0.1190795512
C   C107      1.0  0.14740  0.77330  0.92360  1.0000 0.1190795512
C   C108      1.0  0.85260  0.77330  0.57640  1.0000 0.1190795512
C   C109      1.0  0.83370  0.30830  0.10860  1.0000 -0.1834577174
C   C110      1.0  0.16630  0.30830  0.39140  1.0000 -0.1834577174
C   C111      1.0  0.16630  0.69170  0.89140  1.0000 -0.1834577174
C   C112      1.0  0.83370  0.69170  0.60860  1.0000 -0.1834577174
C   C113      1.0  0.76730  0.31290  0.13610  1.0000 0.0895897236
C   C114      1.0  0.23270  0.31290  0.36390  1.0000 0.0895897236
C   C115      1.0  0.23270  0.68710  0.86390  1.0000 0.0895897236
C   C116      1.0  0.76730  0.68710  0.63610  1.0000 0.0895897236
C   C117      1.0  0.93200  0.16060  0.99180  1.0000 -0.1834577174
C   C118      1.0  0.06800  0.16060  0.50820  1.0000 -0.1834577174
C   C119      1.0  0.06800  0.83940  0.00820  1.0000 -0.1834577174
C   C120      1.0  0.93200  0.83940  0.49180  1.0000 -0.1834577174
C   C121      1.0  0.99770  0.16210  0.96200  1.0000 0.1046144079
C   C122      1.0  0.00230  0.16210  0.53800  1.0000 0.1046144079
C   C123      1.0  0.00230  0.83790  0.03800  1.0000 0.1046144079
C   C124      1.0  0.99770  0.83790  0.46200  1.0000 0.1046144079
C   C125      1.0  0.04660  0.27180  0.03680  1.0000 0.0664731797
C   C126      1.0  0.95340  0.27180  0.46320  1.0000 0.0664731797
C   C127      1.0  0.95340  0.72820  0.96320  1.0000 0.0664731797
C   C128      1.0  0.04660  0.72820  0.53680  1.0000 0.0664731797
C   C129      1.0  0.98440  0.27430  0.06960  1.0000 -0.194625153
C   C130      1.0  0.01560  0.27430  0.43040  1.0000 -0.194625153
C   C131      1.0  0.01560  0.72570  0.93040  1.0000 -0.1959352035
C   C132      1.0  0.98440  0.72570  0.56960  1.0000 -0.194625153
C   C133      1.0  0.92230  0.22200  0.04390  1.0000 0.1122784023
C   C134      1.0  0.07770  0.22200  0.45610  1.0000 0.1122784023
C   C135      1.0  0.07770  0.77800  0.95610  1.0000 0.1122784023
C   C136      1.0  0.92230  0.77800  0.54390  1.0000 0.1122784023
N   N1        1.0  0.67660  0.02910  0.34800  1.0000 -0.0927596826
N   N2        1.0  0.32340  0.02910  0.15200  1.0000 -0.0927596826
N   N3        1.0  0.32340  0.97090  0.65200  1.0000 -0.0927596826
N   N4        1.0  0.67660  0.97090  0.84800  1.0000 -0.0927596826
N   N5        1.0  0.56240  0.42600  0.10710  1.0000 -0.1040573444
N   N6        1.0  0.43760  0.42600  0.39290  1.0000 -0.1040573444
N   N7        1.0  0.43760  0.57400  0.89290  1.0000 -0.1040573444
N   N8        1.0  0.56240  0.57400  0.60710  1.0000 -0.1040573444
N   N9        1.0  0.71850  0.24220  0.13270  1.0000 -0.246114264
N   N10       1.0  0.28150  0.24220  0.36730  1.0000 -0.246114264
N   N11       1.0  0.28150  0.75780  0.86730  1.0000 -0.246114264
N   N12       1.0  0.71850  0.75780  0.63270  1.0000 -0.246114264
N   N13       1.0  0.05310  0.21910  0.98120  1.0000 -0.2254066605
N   N14       1.0  0.94690  0.21910  0.51880  1.0000 -0.2249702055
N   N15       1.0  0.94690  0.78090  0.01880  1.0000 -0.2249702055
N   N16       1.0  0.05310  0.78090  0.48120  1.0000 -0.2254066605
O   O1        1.0  0.76670  0.15160  0.45149  1.0000 -0.5617130437
O   O2        1.0  0.23330  0.15160  0.04851  1.0000 -0.5617130437
O   O3        1.0  0.23330  0.84840  0.54851  1.0000 -0.5617130437
O   O4        1.0  0.76670  0.84840  0.95149  1.0000 -0.5617130437
O   O5        1.0  0.85150  0.05150  0.49846  1.0000 -0.5191998024
O   O6        1.0  0.14850  0.05150  0.00154  1.0000 -0.5191998024
O   O7        1.0  0.14850  0.94850  0.50154  1.0000 -0.5191998024
O   O8        1.0  0.85150  0.94850  0.99846  1.0000 -0.5191998024
O   O9        1.0  0.90460  0.89200  0.16630  1.0000 -0.5476440329
O   O10       1.0  0.09540  0.89200  0.33370  1.0000 -0.5476440329
O   O11       1.0  0.09540  0.10800  0.83370  1.0000 -0.5476440329
O   O12       1.0  0.90460  0.10800  0.66630  1.0000 -0.5476440329
O   O13       1.0  0.78440  0.87820  0.14410  1.0000 -0.5191998024
O   O14       1.0  0.21560  0.87820  0.35590  1.0000 -0.5191998024
O   O15       1.0  0.21560  0.12180  0.85590  1.0000 -0.5191998024
O   O16       1.0  0.78440  0.12180  0.64410  1.0000 -0.5191998024
O   O17       1.0  0.59020  0.10920  0.43680  1.0000 -0.5279886264
O   O18       1.0  0.40980  0.10920  0.06320  1.0000 -0.5279886264
O   O19       1.0  0.40980  0.89080  0.56320  1.0000 -0.5279886264
O   O20       1.0  0.59020  0.89080  0.93680  1.0000 -0.5279886264
O   O21       1.0  0.58210  0.98130  0.49923  1.0000 -0.5617130437
O   O22       1.0  0.41790  0.98130  0.00077  1.0000 -0.5617130437
O   O23       1.0  0.41790  0.01870  0.50077  1.0000 -0.5617130437
O   O24       1.0  0.58210  0.01870  0.99923  1.0000 -0.5617130437
O   O25       1.0  0.63480  0.17860  0.26088  1.0000 -0.5423267622
O   O26       1.0  0.36520  0.17860  0.23912  1.0000 -0.5423267622
O   O27       1.0  0.36520  0.82140  0.73912  1.0000 -0.5423267622
O   O28       1.0  0.63480  0.82140  0.76088  1.0000 -0.5423267622
O   O29       1.0  0.58150  0.08860  0.17746  1.0000 -0.5191998024
O   O30       1.0  0.41850  0.08860  0.32254  1.0000 -0.5191998024
O   O31       1.0  0.41850  0.91140  0.82254  1.0000 -0.5191998024
O   O32       1.0  0.58150  0.91140  0.67746  1.0000 -0.5191998024
O   O33       1.0  0.57650  0.24740  0.93660  1.0000 -0.5279886264
O   O34       1.0  0.42350  0.24740  0.56340  1.0000 -0.5279886264
O   O35       1.0  0.42350  0.75260  0.06340  1.0000 -0.5279886264
O   O36       1.0  0.57650  0.75260  0.43660  1.0000 -0.5279886264
O   O37       1.0  0.55980  0.24150  0.04669  1.0000 -0.5663812298
O   O38       1.0  0.44020  0.24150  0.45331  1.0000 -0.5663812298
O   O39       1.0  0.44020  0.75850  0.95331  1.0000 -0.5663812298
O   O40       1.0  0.55980  0.75850  0.54669  1.0000 -0.5663812298
O   O41       1.0  0.80770  0.63460  0.98650  1.0000 -0.5617130437
O   O42       1.0  0.19230  0.63460  0.51350  1.0000 -0.5617130437
O   O43       1.0  0.19230  0.36540  0.01350  1.0000 -0.5617130437
O   O44       1.0  0.80770  0.36540  0.48650  1.0000 -0.5617130437
O   O45       1.0  0.74900  0.68300  0.07060  1.0000 -0.5191998024
O   O46       1.0  0.25100  0.68300  0.42940  1.0000 -0.5191998024
O   O47       1.0  0.25100  0.31700  0.92940  1.0000 -0.5191998024
O   O48       1.0  0.74900  0.31700  0.57060  1.0000 -0.5191998024
O   O49       1.0  0.47230  0.29230  0.15760  1.0000 -0.5191998024
O   O50       1.0  0.52770  0.29230  0.34240  1.0000 -0.5191998024
O   O51       1.0  0.52770  0.70770  0.84240  1.0000 -0.5191998024
O   O52       1.0  0.47230  0.70770  0.65760  1.0000 -0.5191998024
O   O53       1.0  0.37920  0.31930  0.07390  1.0000 -0.5191998024
O   O54       1.0  0.62080  0.31930  0.42610  1.0000 -0.5191998024
O   O55       1.0  0.62080  0.68070  0.92610  1.0000 -0.5191998024
O   O56       1.0  0.37920  0.68070  0.57390  1.0000 -0.5191998024
O   O57       1.0  0.65430  0.38960  0.23220  1.0000 -0.5785502333
O   O58       1.0  0.34570  0.38960  0.26780  1.0000 -0.5785502333
O   O59       1.0  0.34570  0.61040  0.76780  1.0000 -0.5785502333
O   O60       1.0  0.65430  0.61040  0.73220  1.0000 -0.5785502333
O   O61       1.0  0.64910  0.53760  0.26430  1.0000 -0.504249974
O   O62       1.0  0.35090  0.53760  0.23570  1.0000 -0.504249974
O   O63       1.0  0.35090  0.46240  0.73570  1.0000 -0.504249974
O   O64       1.0  0.64910  0.46240  0.76430  1.0000 -0.504249974
