# DDEC6 charges by PACMAN v1.1 (https://github.com/mtap-research/PACMAN-charge/)
data_2013[Zr][reo]3[ASR]2
_chemical_formula_sum              "Zr36 H48 C144 S24 O144"
_cell_length_a       27.5984
_cell_length_b       27.5984
_cell_length_c       27.5984
_cell_angle_alpha    60
_cell_angle_beta     60
_cell_angle_gamma    60

_symmetry_space_group_name_H-M    "P 1"
_symmetry_Int_Tables_number       1

loop_
  _symmetry_equiv_pos_as_xyz
  'x, y, z'

loop_
  _atom_site_type_symbol
  _atom_site_label
  _atom_site_symmetry_multiplicity
  _atom_site_fract_x
  _atom_site_fract_y
  _atom_site_fract_z
  _atom_site_occupancy
  _atom_site_charge
Zr  Zr1       1.0  0.10942  0.98127  0.45466  1.0000 2.418686299
Zr  Zr2       1.0  0.98127  0.10941  0.45466  1.0000 2.418686299
Zr  Zr3       1.0  0.45466  0.45466  0.10941  1.0000 2.418686299
Zr  Zr4       1.0  0.45466  0.45466  0.98127  1.0000 2.418686299
Zr  Zr5       1.0  0.45466  0.10942  0.98127  1.0000 2.418686299
Zr  Zr6       1.0  0.45466  0.98127  0.10941  1.0000 2.418686299
Zr  Zr7       1.0  0.10942  0.45466  0.45466  1.0000 2.418686299
Zr  Zr8       1.0  0.98127  0.45466  0.45466  1.0000 2.418686299
Zr  Zr9       1.0  0.98127  0.45466  0.10941  1.0000 2.418686299
Zr  Zr10      1.0  0.10942  0.45466  0.98127  1.0000 2.418686299
Zr  Zr11      1.0  0.45466  0.10941  0.45466  1.0000 2.418686299
Zr  Zr12      1.0  0.45466  0.98127  0.45466  1.0000 2.418686299
Zr  Zr13      1.0  0.89058  0.01874  0.54534  1.0000 2.418686299
Zr  Zr14      1.0  0.01873  0.89059  0.54534  1.0000 2.418686299
Zr  Zr15      1.0  0.54534  0.54534  0.01874  1.0000 2.418686299
Zr  Zr16      1.0  0.54534  0.54534  0.89059  1.0000 2.418686299
Zr  Zr17      1.0  0.54534  0.89059  0.54534  1.0000 2.418686299
Zr  Zr18      1.0  0.54534  0.01874  0.54534  1.0000 2.418686299
Zr  Zr19      1.0  0.89058  0.54534  0.01874  1.0000 2.418686299
Zr  Zr20      1.0  0.01874  0.54534  0.89059  1.0000 2.418686299
Zr  Zr21      1.0  0.01874  0.54534  0.54534  1.0000 2.418686299
Zr  Zr22      1.0  0.89058  0.54534  0.54534  1.0000 2.418686299
Zr  Zr23      1.0  0.54534  0.89058  0.01874  1.0000 2.418686299
Zr  Zr24      1.0  0.54534  0.01873  0.89059  1.0000 2.418686299
Zr  Zr25      1.0  0.00000  0.00000  0.41106  1.0000 2.3097204611
Zr  Zr26      1.0  0.00000  0.00000  0.58894  1.0000 2.3032905913
Zr  Zr27      1.0  0.41106  0.58894  0.00000  1.0000 2.3097204611
Zr  Zr28      1.0  0.58894  0.41106  0.00000  1.0000 2.3032905913
Zr  Zr29      1.0  0.41106  0.00000  0.00000  1.0000 2.3097204611
Zr  Zr30      1.0  0.58894  0.00000  0.00000  1.0000 2.3097204611
Zr  Zr31      1.0  0.00000  0.41106  0.58894  1.0000 2.3032905913
Zr  Zr32      1.0  1.00000  0.58894  0.41106  1.0000 2.3032905913
Zr  Zr33      1.0  0.00000  0.41106  0.00000  1.0000 2.3032905913
Zr  Zr34      1.0  0.00000  0.58894  0.00000  1.0000 2.3032905913
Zr  Zr35      1.0  0.58894  0.00000  0.41106  1.0000 2.3097204611
Zr  Zr36      1.0  0.41106  0.00000  0.58894  1.0000 2.3032905913
H   H1        1.0  0.99670  0.13070  0.21850  1.0000 0.1200962642
H   H2        1.0  0.13070  0.99670  0.65410  1.0000 0.1200962642
H   H3        1.0  0.21850  0.65410  0.99670  1.0000 0.1200962642
H   H4        1.0  0.65410  0.21850  0.13070  1.0000 0.1200962642
H   H5        1.0  0.21850  0.99670  0.13070  1.0000 0.1200962642
H   H6        1.0  0.65410  0.13070  0.99670  1.0000 0.1200962642
H   H7        1.0  0.99670  0.21850  0.65410  1.0000 0.1200962642
H   H8        1.0  0.13070  0.65410  0.21850  1.0000 0.1200962642
H   H9        1.0  0.13070  0.21850  0.99670  1.0000 0.1200962642
H   H10       1.0  0.99670  0.65410  0.13070  1.0000 0.1200962642
H   H11       1.0  0.65410  0.99670  0.21850  1.0000 0.1200962642
H   H12       1.0  0.21850  0.13070  0.65410  1.0000 0.1200962642
H   H13       1.0  0.00330  0.86930  0.34590  1.0000 0.1200962642
H   H14       1.0  0.86930  0.00330  0.78150  1.0000 0.1200962642
H   H15       1.0  0.78150  0.34590  0.86930  1.0000 0.1200962642
H   H16       1.0  0.34590  0.78150  0.00330  1.0000 0.1200962642
H   H17       1.0  0.78150  0.00330  0.34590  1.0000 0.1200962642
H   H18       1.0  0.34590  0.86930  0.78150  1.0000 0.1200962642
H   H19       1.0  0.00330  0.78150  0.86930  1.0000 0.1200962642
H   H20       1.0  0.86930  0.34590  0.00330  1.0000 0.1200962642
H   H21       1.0  0.86930  0.78150  0.34590  1.0000 0.1200962642
H   H22       1.0  0.00330  0.34590  0.78150  1.0000 0.1200962642
H   H23       1.0  0.34590  0.00330  0.86930  1.0000 0.1200962642
H   H24       1.0  0.78150  0.86930  0.00330  1.0000 0.1200962642
H   H25       1.0  0.00330  0.86930  0.78150  1.0000 0.1200962642
H   H26       1.0  0.86930  0.00330  0.34590  1.0000 0.1200962642
H   H27       1.0  0.78150  0.34590  0.00330  1.0000 0.1200962642
H   H28       1.0  0.34590  0.78150  0.86930  1.0000 0.1200962642
H   H29       1.0  0.78150  0.00330  0.86930  1.0000 0.1200962642
H   H30       1.0  0.34590  0.86930  0.00330  1.0000 0.1200962642
H   H31       1.0  0.00330  0.78150  0.34590  1.0000 0.1200962642
H   H32       1.0  0.86930  0.34590  0.78150  1.0000 0.1200962642
H   H33       1.0  0.86930  0.78150  0.00330  1.0000 0.1200962642
H   H34       1.0  0.00330  0.34590  0.86930  1.0000 0.1200962642
H   H35       1.0  0.34590  0.00330  0.78150  1.0000 0.1200962642
H   H36       1.0  0.78150  0.86930  0.34590  1.0000 0.1200962642
H   H37       1.0  0.99670  0.13070  0.65410  1.0000 0.1200962642
H   H38       1.0  0.13070  0.99670  0.21850  1.0000 0.1200962642
H   H39       1.0  0.21850  0.65410  0.13070  1.0000 0.1200962642
H   H40       1.0  0.65410  0.21850  0.99670  1.0000 0.1200962642
H   H41       1.0  0.21850  0.99670  0.65410  1.0000 0.1200962642
H   H42       1.0  0.65410  0.13070  0.21850  1.0000 0.1200962642
H   H43       1.0  0.99670  0.21850  0.13070  1.0000 0.1200962642
H   H44       1.0  0.13070  0.65410  0.99670  1.0000 0.1200962642
H   H45       1.0  0.13070  0.21850  0.65410  1.0000 0.1200962642
H   H46       1.0  0.99670  0.65410  0.21850  1.0000 0.1200962642
H   H47       1.0  0.65410  0.99670  0.13070  1.0000 0.1200962642
H   H48       1.0  0.21850  0.13070  0.99670  1.0000 0.1200962642
C   C1        1.0  0.98043  0.13433  0.32579  1.0000 0.637960723
C   C2        1.0  0.13433  0.98043  0.55945  1.0000 0.637960723
C   C3        1.0  0.32579  0.55945  0.98043  1.0000 0.637960723
C   C4        1.0  0.55945  0.32579  0.13433  1.0000 0.637960723
C   C5        1.0  0.32579  0.98043  0.13433  1.0000 0.637960723
C   C6        1.0  0.55945  0.13433  0.98043  1.0000 0.637960723
C   C7        1.0  0.98043  0.32579  0.55945  1.0000 0.637960723
C   C8        1.0  0.13433  0.55945  0.32579  1.0000 0.637960723
C   C9        1.0  0.13433  0.32579  0.98043  1.0000 0.637960723
C   C10       1.0  0.98043  0.55945  0.13433  1.0000 0.637960723
C   C11       1.0  0.55945  0.98043  0.32579  1.0000 0.637960723
C   C12       1.0  0.32579  0.13433  0.55945  1.0000 0.637960723
C   C13       1.0  0.01957  0.86567  0.44055  1.0000 0.637960723
C   C14       1.0  0.86567  0.01957  0.67421  1.0000 0.637960723
C   C15       1.0  0.67421  0.44055  0.86567  1.0000 0.637960723
C   C16       1.0  0.44055  0.67421  0.01957  1.0000 0.637960723
C   C17       1.0  0.67421  0.01957  0.44055  1.0000 0.637960723
C   C18       1.0  0.44055  0.86567  0.67421  1.0000 0.637960723
C   C19       1.0  0.01957  0.67421  0.86567  1.0000 0.637960723
C   C20       1.0  0.86567  0.44055  0.01957  1.0000 0.637960723
C   C21       1.0  0.86567  0.67421  0.44055  1.0000 0.637960723
C   C22       1.0  0.01957  0.44055  0.67421  1.0000 0.637960723
C   C23       1.0  0.44055  0.01957  0.86567  1.0000 0.637960723
C   C24       1.0  0.67421  0.86567  0.01957  1.0000 0.637960723
C   C25       1.0  0.01957  0.86567  0.67421  1.0000 0.637960723
C   C26       1.0  0.86567  0.01957  0.44055  1.0000 0.637960723
C   C27       1.0  0.67421  0.44055  0.01957  1.0000 0.637960723
C   C28       1.0  0.44055  0.67421  0.86567  1.0000 0.637960723
C   C29       1.0  0.67421  0.01957  0.86567  1.0000 0.637960723
C   C30       1.0  0.44055  0.86567  0.01957  1.0000 0.637960723
C   C31       1.0  0.01957  0.67421  0.44055  1.0000 0.637960723
C   C32       1.0  0.86567  0.44055  0.67421  1.0000 0.637960723
C   C33       1.0  0.86567  0.67421  0.01957  1.0000 0.637960723
C   C34       1.0  0.01957  0.44055  0.86567  1.0000 0.637960723
C   C35       1.0  0.44055  0.01957  0.67421  1.0000 0.637960723
C   C36       1.0  0.67421  0.86567  0.44055  1.0000 0.637960723
C   C37       1.0  0.98043  0.13433  0.55945  1.0000 0.637960723
C   C38       1.0  0.13433  0.98043  0.32579  1.0000 0.637960723
C   C39       1.0  0.32579  0.55945  0.13433  1.0000 0.637960723
C   C40       1.0  0.55945  0.32579  0.98043  1.0000 0.637960723
C   C41       1.0  0.32579  0.98043  0.55945  1.0000 0.637960723
C   C42       1.0  0.55945  0.13433  0.32579  1.0000 0.637960723
C   C43       1.0  0.98043  0.32579  0.13433  1.0000 0.637960723
C   C44       1.0  0.13433  0.55945  0.98043  1.0000 0.637960723
C   C45       1.0  0.13433  0.32579  0.55945  1.0000 0.637960723
C   C46       1.0  0.98043  0.55945  0.32579  1.0000 0.637960723
C   C47       1.0  0.55945  0.98043  0.13433  1.0000 0.637960723
C   C48       1.0  0.32579  0.13433  0.98043  1.0000 0.637960723
C   C49       1.0  0.98290  0.17694  0.26512  1.0000 -0.1677495324
C   C50       1.0  0.17694  0.98290  0.57504  1.0000 -0.1677495324
C   C51       1.0  0.26512  0.57504  0.98290  1.0000 -0.1677495324
C   C52       1.0  0.57504  0.26512  0.17694  1.0000 -0.1677495324
C   C53       1.0  0.26512  0.98290  0.17694  1.0000 -0.1677495324
C   C54       1.0  0.57504  0.17694  0.98290  1.0000 -0.1677495324
C   C55       1.0  0.98290  0.26512  0.57504  1.0000 -0.1677495324
C   C56       1.0  0.17694  0.57504  0.26512  1.0000 -0.1677495324
C   C57       1.0  0.17694  0.26512  0.98290  1.0000 -0.1677495324
C   C58       1.0  0.98290  0.57504  0.17694  1.0000 -0.1677495324
C   C59       1.0  0.57504  0.98290  0.26512  1.0000 -0.1677495324
C   C60       1.0  0.26512  0.17694  0.57504  1.0000 -0.1677495324
C   C61       1.0  0.01710  0.82306  0.42496  1.0000 -0.1677495324
C   C62       1.0  0.82306  0.01710  0.73488  1.0000 -0.1677495324
C   C63       1.0  0.73488  0.42496  0.82306  1.0000 -0.1677495324
C   C64       1.0  0.42496  0.73488  0.01710  1.0000 -0.1677495324
C   C65       1.0  0.73488  0.01710  0.42496  1.0000 -0.1677495324
C   C66       1.0  0.42496  0.82306  0.73488  1.0000 -0.1677495324
C   C67       1.0  0.01710  0.73488  0.82306  1.0000 -0.1677495324
C   C68       1.0  0.82306  0.42496  0.01710  1.0000 -0.1677495324
C   C69       1.0  0.82306  0.73488  0.42496  1.0000 -0.1677495324
C   C70       1.0  0.01710  0.42496  0.73488  1.0000 -0.1677495324
C   C71       1.0  0.42496  0.01710  0.82306  1.0000 -0.1677495324
C   C72       1.0  0.73488  0.82306  0.01710  1.0000 -0.1677495324
C   C73       1.0  0.01710  0.82306  0.73488  1.0000 -0.1677495324
C   C74       1.0  0.82306  0.01710  0.42496  1.0000 -0.1677495324
C   C75       1.0  0.73488  0.42496  0.01710  1.0000 -0.1677495324
C   C76       1.0  0.42496  0.73488  0.82306  1.0000 -0.1677495324
C   C77       1.0  0.73488  0.01710  0.82306  1.0000 -0.1677495324
C   C78       1.0  0.42496  0.82306  0.01710  1.0000 -0.1677495324
C   C79       1.0  0.01710  0.73488  0.42496  1.0000 -0.1677495324
C   C80       1.0  0.82306  0.42496  0.73488  1.0000 -0.1677495324
C   C81       1.0  0.82306  0.73488  0.01710  1.0000 -0.1677495324
C   C82       1.0  0.01710  0.42496  0.82306  1.0000 -0.1677495324
C   C83       1.0  0.42496  0.01710  0.73488  1.0000 -0.1677495324
C   C84       1.0  0.73488  0.82306  0.42496  1.0000 -0.1677495324
C   C85       1.0  0.98290  0.17694  0.57504  1.0000 -0.1677495324
C   C86       1.0  0.17694  0.98290  0.26512  1.0000 -0.1677495324
C   C87       1.0  0.26512  0.57504  0.17694  1.0000 -0.1677495324
C   C88       1.0  0.57504  0.26512  0.98290  1.0000 -0.1677495324
C   C89       1.0  0.26512  0.98290  0.57504  1.0000 -0.1677495324
C   C90       1.0  0.57504  0.17694  0.26512  1.0000 -0.1677495324
C   C91       1.0  0.98290  0.26512  0.17694  1.0000 -0.1677495324
C   C92       1.0  0.17694  0.57504  0.98290  1.0000 -0.1677495324
C   C93       1.0  0.17694  0.26512  0.57504  1.0000 -0.1677495324
C   C94       1.0  0.98290  0.57504  0.26512  1.0000 -0.1677495324
C   C95       1.0  0.57504  0.98290  0.17694  1.0000 -0.1677495324
C   C96       1.0  0.26512  0.17694  0.98290  1.0000 -0.1677495324
C   C97       1.0  0.99150  0.16710  0.21750  1.0000 -0.11603365
C   C98       1.0  0.16710  0.99150  0.62390  1.0000 -0.11603365
C   C99       1.0  0.21750  0.62390  0.99150  1.0000 -0.11603365
C   C100      1.0  0.62390  0.21750  0.16710  1.0000 -0.11603365
C   C101      1.0  0.21750  0.99150  0.16710  1.0000 -0.11603365
C   C102      1.0  0.62390  0.16710  0.99150  1.0000 -0.11603365
C   C103      1.0  0.99150  0.21750  0.62390  1.0000 -0.11603365
C   C104      1.0  0.16710  0.62390  0.21750  1.0000 -0.11603365
C   C105      1.0  0.16710  0.21750  0.99150  1.0000 -0.11603365
C   C106      1.0  0.99150  0.62390  0.16710  1.0000 -0.11603365
C   C107      1.0  0.62390  0.99150  0.21750  1.0000 -0.11603365
C   C108      1.0  0.21750  0.16710  0.62390  1.0000 -0.11603365
C   C109      1.0  0.00850  0.83290  0.37610  1.0000 -0.11603365
C   C110      1.0  0.83290  0.00850  0.78250  1.0000 -0.11603365
C   C111      1.0  0.78250  0.37610  0.83290  1.0000 -0.11603365
C   C112      1.0  0.37610  0.78250  0.00850  1.0000 -0.11603365
C   C113      1.0  0.78250  0.00850  0.37610  1.0000 -0.11603365
C   C114      1.0  0.37610  0.83290  0.78250  1.0000 -0.11603365
C   C115      1.0  0.00850  0.78250  0.83290  1.0000 -0.11603365
C   C116      1.0  0.83290  0.37610  0.00850  1.0000 -0.11603365
C   C117      1.0  0.83290  0.78250  0.37610  1.0000 -0.11603365
C   C118      1.0  0.00850  0.37610  0.78250  1.0000 -0.11603365
C   C119      1.0  0.37610  0.00850  0.83290  1.0000 -0.11603365
C   C120      1.0  0.78250  0.83290  0.00850  1.0000 -0.11603365
C   C121      1.0  0.00850  0.83290  0.78250  1.0000 -0.11603365
C   C122      1.0  0.83290  0.00850  0.37610  1.0000 -0.11603365
C   C123      1.0  0.78250  0.37610  0.00850  1.0000 -0.11603365
C   C124      1.0  0.37610  0.78250  0.83290  1.0000 -0.11603365
C   C125      1.0  0.78250  0.00850  0.83290  1.0000 -0.11603365
C   C126      1.0  0.37610  0.83290  0.00850  1.0000 -0.11603365
C   C127      1.0  0.00850  0.78250  0.37610  1.0000 -0.11603365
C   C128      1.0  0.83290  0.37610  0.78250  1.0000 -0.11603365
C   C129      1.0  0.83290  0.78250  0.00850  1.0000 -0.11603365
C   C130      1.0  0.00850  0.37610  0.83290  1.0000 -0.11603365
C   C131      1.0  0.37610  0.00850  0.78250  1.0000 -0.11603365
C   C132      1.0  0.78250  0.83290  0.37610  1.0000 -0.11603365
C   C133      1.0  0.99150  0.16710  0.62390  1.0000 -0.11603365
C   C134      1.0  0.16710  0.99150  0.21750  1.0000 -0.11603365
C   C135      1.0  0.21750  0.62390  0.16710  1.0000 -0.11603365
C   C136      1.0  0.62390  0.21750  0.99150  1.0000 -0.11603365
C   C137      1.0  0.21750  0.99150  0.62390  1.0000 -0.11603365
C   C138      1.0  0.62390  0.16710  0.21750  1.0000 -0.11603365
C   C139      1.0  0.99150  0.21750  0.16710  1.0000 -0.11603365
C   C140      1.0  0.16710  0.62390  0.99150  1.0000 -0.11603365
C   C141      1.0  0.16710  0.21750  0.62390  1.0000 -0.11603365
C   C142      1.0  0.99150  0.62390  0.21750  1.0000 -0.11603365
C   C143      1.0  0.62390  0.99150  0.16710  1.0000 -0.11603365
C   C144      1.0  0.21750  0.16710  0.99150  1.0000 -0.11603365
S   S1        1.0  0.97293  0.24891  0.24891  1.0000 0.2112689634
S   S2        1.0  0.24891  0.97293  0.52925  1.0000 0.2112689634
S   S3        1.0  0.24891  0.52925  0.97293  1.0000 0.2112689634
S   S4        1.0  0.52925  0.24891  0.24891  1.0000 0.2112689634
S   S5        1.0  0.24891  0.97293  0.24891  1.0000 0.2112689634
S   S6        1.0  0.52925  0.24891  0.97293  1.0000 0.2112689634
S   S7        1.0  0.97293  0.24891  0.52925  1.0000 0.2112689634
S   S8        1.0  0.24891  0.52925  0.24891  1.0000 0.2112689634
S   S9        1.0  0.24891  0.24891  0.97293  1.0000 0.2112689634
S   S10       1.0  0.97293  0.52925  0.24891  1.0000 0.2112689634
S   S11       1.0  0.52925  0.97293  0.24891  1.0000 0.2112689634
S   S12       1.0  0.24891  0.24891  0.52925  1.0000 0.2112689634
S   S13       1.0  0.02707  0.75109  0.47075  1.0000 0.2232927218
S   S14       1.0  0.75109  0.02707  0.75109  1.0000 0.2112689634
S   S15       1.0  0.75109  0.47075  0.75109  1.0000 0.2112689634
S   S16       1.0  0.47075  0.75109  0.02707  1.0000 0.2112689634
S   S17       1.0  0.75109  0.02707  0.47075  1.0000 0.2112689634
S   S18       1.0  0.47075  0.75109  0.75109  1.0000 0.2112689634
S   S19       1.0  0.02707  0.75109  0.75109  1.0000 0.2112689634
S   S20       1.0  0.75109  0.47075  0.02707  1.0000 0.2266939416
S   S21       1.0  0.75109  0.75109  0.47075  1.0000 0.2232927218
S   S22       1.0  0.02707  0.47075  0.75109  1.0000 0.2112689634
S   S23       1.0  0.47075  0.02707  0.75109  1.0000 0.2112689634
S   S24       1.0  0.75109  0.75109  0.02707  1.0000 0.2112689634
O   O1        1.0  0.98601  0.08233  0.33541  1.0000 -0.5844817024
O   O2        1.0  0.08233  0.98601  0.59625  1.0000 -0.5844817024
O   O3        1.0  0.33541  0.59625  0.98601  1.0000 -0.5844817024
O   O4        1.0  0.59625  0.33541  0.08233  1.0000 -0.5844817024
O   O5        1.0  0.33541  0.98601  0.08233  1.0000 -0.5844817024
O   O6        1.0  0.59625  0.08233  0.98601  1.0000 -0.5859917932
O   O7        1.0  0.98601  0.33541  0.59625  1.0000 -0.5844817024
O   O8        1.0  0.08233  0.59625  0.33541  1.0000 -0.5844817024
O   O9        1.0  0.08233  0.33541  0.98601  1.0000 -0.5844817024
O   O10       1.0  0.98601  0.59625  0.08233  1.0000 -0.5844817024
O   O11       1.0  0.59625  0.98601  0.33541  1.0000 -0.5844817024
O   O12       1.0  0.33541  0.08233  0.59625  1.0000 -0.5844817024
O   O13       1.0  0.01399  0.91767  0.40375  1.0000 -0.5859917932
O   O14       1.0  0.91767  0.01399  0.66459  1.0000 -0.5844817024
O   O15       1.0  0.66459  0.40375  0.91767  1.0000 -0.5859917932
O   O16       1.0  0.40375  0.66459  0.01399  1.0000 -0.5844817024
O   O17       1.0  0.66459  0.01399  0.40375  1.0000 -0.5844817024
O   O18       1.0  0.40375  0.91767  0.66459  1.0000 -0.5859917932
O   O19       1.0  0.01399  0.66459  0.91767  1.0000 -0.5859917932
O   O20       1.0  0.91767  0.40375  0.01399  1.0000 -0.5844817024
O   O21       1.0  0.91767  0.66459  0.40375  1.0000 -0.5844817024
O   O22       1.0  0.01399  0.40375  0.66459  1.0000 -0.5844817024
O   O23       1.0  0.40375  0.01399  0.91767  1.0000 -0.5844817024
O   O24       1.0  0.66459  0.91767  0.01399  1.0000 -0.5844817024
O   O25       1.0  0.01399  0.91767  0.66459  1.0000 -0.5844817024
O   O26       1.0  0.91767  0.01399  0.40375  1.0000 -0.5844817024
O   O27       1.0  0.66459  0.40375  0.01399  1.0000 -0.5844817024
O   O28       1.0  0.40375  0.66459  0.91767  1.0000 -0.5859917932
O   O29       1.0  0.66459  0.01399  0.91767  1.0000 -0.5844817024
O   O30       1.0  0.40375  0.91767  0.01399  1.0000 -0.5859917932
O   O31       1.0  0.01399  0.66459  0.40375  1.0000 -0.5844817024
O   O32       1.0  0.91767  0.40375  0.66459  1.0000 -0.5844817024
O   O33       1.0  0.91767  0.66459  0.01399  1.0000 -0.5859917932
O   O34       1.0  0.01399  0.40375  0.91767  1.0000 -0.5859917932
O   O35       1.0  0.40375  0.01399  0.66459  1.0000 -0.5844817024
O   O36       1.0  0.66459  0.91767  0.40375  1.0000 -0.5844817024
O   O37       1.0  0.98601  0.08233  0.59625  1.0000 -0.5844817024
O   O38       1.0  0.08233  0.98601  0.33541  1.0000 -0.5844817024
O   O39       1.0  0.33541  0.59625  0.08233  1.0000 -0.5844817024
O   O40       1.0  0.59625  0.33541  0.98601  1.0000 -0.5844817024
O   O41       1.0  0.33541  0.98601  0.59625  1.0000 -0.5859917932
O   O42       1.0  0.59625  0.08233  0.33541  1.0000 -0.5844817024
O   O43       1.0  0.98601  0.33541  0.08233  1.0000 -0.5844817024
O   O44       1.0  0.08233  0.59625  0.98601  1.0000 -0.5859917932
O   O45       1.0  0.08233  0.33541  0.59625  1.0000 -0.5844817024
O   O46       1.0  0.98601  0.59625  0.33541  1.0000 -0.5844817024
O   O47       1.0  0.59625  0.98601  0.08233  1.0000 -0.5844817024
O   O48       1.0  0.33541  0.08233  0.98601  1.0000 -0.5844817024
O   O49       1.0  0.04440  0.04440  0.41292  1.0000 -1.1602018137
O   O50       1.0  0.04440  0.04440  0.49828  1.0000 -1.1602018137
O   O51       1.0  0.41292  0.49828  0.04440  1.0000 -1.1602018137
O   O52       1.0  0.49828  0.41292  0.04440  1.0000 -1.1602018137
O   O53       1.0  0.41292  0.04440  0.04440  1.0000 -1.1602018137
O   O54       1.0  0.49828  0.04440  0.04440  1.0000 -1.1602018137
O   O55       1.0  0.04440  0.41292  0.49828  1.0000 -1.1602018137
O   O56       1.0  0.04440  0.49828  0.41292  1.0000 -1.1602018137
O   O57       1.0  0.04440  0.41292  0.04440  1.0000 -1.1602018137
O   O58       1.0  0.04440  0.49828  0.04440  1.0000 -1.1602018137
O   O59       1.0  0.49828  0.04440  0.41292  1.0000 -1.1544101154
O   O60       1.0  0.41292  0.04440  0.49828  1.0000 -1.1602018137
O   O61       1.0  0.95560  0.95560  0.50172  1.0000 -1.1602018137
O   O62       1.0  0.95560  0.95560  0.58708  1.0000 -1.1602018137
O   O63       1.0  0.58708  0.50172  0.95560  1.0000 -1.1602018137
O   O64       1.0  0.50172  0.58708  0.95560  1.0000 -1.1544101154
O   O65       1.0  0.58708  0.95560  0.50172  1.0000 -1.1544101154
O   O66       1.0  0.50172  0.95560  0.58708  1.0000 -1.1602018137
O   O67       1.0  0.95560  0.58708  0.95560  1.0000 -1.1602018137
O   O68       1.0  0.95560  0.50172  0.95560  1.0000 -1.1602018137
O   O69       1.0  0.95560  0.58708  0.50172  1.0000 -1.1602018137
O   O70       1.0  0.95560  0.50172  0.58708  1.0000 -1.1602018137
O   O71       1.0  0.50172  0.95560  0.95560  1.0000 -1.1602018137
O   O72       1.0  0.58708  0.95560  0.95560  1.0000 -1.1602018137
O   O73       1.0  0.97488  0.15278  0.36238  1.0000 -0.6214314429
O   O74       1.0  0.15278  0.97488  0.50996  1.0000 -0.6214314429
O   O75       1.0  0.36238  0.50996  0.97488  1.0000 -0.6214314429
O   O76       1.0  0.50996  0.36238  0.15278  1.0000 -0.6214314429
O   O77       1.0  0.36238  0.97488  0.15278  1.0000 -0.6214314429
O   O78       1.0  0.50996  0.15278  0.97488  1.0000 -0.6214314429
O   O79       1.0  0.97488  0.36238  0.50996  1.0000 -0.6214314429
O   O80       1.0  0.15278  0.50996  0.36238  1.0000 -0.6214314429
O   O81       1.0  0.15278  0.36238  0.97488  1.0000 -0.6214314429
O   O82       1.0  0.97488  0.50996  0.15278  1.0000 -0.6214314429
O   O83       1.0  0.50996  0.97488  0.36238  1.0000 -0.6214314429
O   O84       1.0  0.36238  0.15278  0.50996  1.0000 -0.6214314429
O   O85       1.0  0.02512  0.84722  0.49004  1.0000 -0.625709565
O   O86       1.0  0.84722  0.02512  0.63762  1.0000 -0.6214314429
O   O87       1.0  0.63762  0.49004  0.84722  1.0000 -0.6214314429
O   O88       1.0  0.49004  0.63762  0.02512  1.0000 -0.6214314429
O   O89       1.0  0.63762  0.02512  0.49004  1.0000 -0.6214314429
O   O90       1.0  0.49004  0.84722  0.63762  1.0000 -0.6214314429
O   O91       1.0  0.02512  0.63762  0.84722  1.0000 -0.6214314429
O   O92       1.0  0.84722  0.49004  0.02512  1.0000 -0.6214314429
O   O93       1.0  0.84722  0.63762  0.49004  1.0000 -0.6214314429
O   O94       1.0  0.02512  0.49004  0.63762  1.0000 -0.6214314429
O   O95       1.0  0.49004  0.02512  0.84722  1.0000 -0.6214314429
O   O96       1.0  0.63762  0.84722  0.02512  1.0000 -0.6214314429
O   O97       1.0  0.02512  0.84722  0.63762  1.0000 -0.6214314429
O   O98       1.0  0.84722  0.02512  0.49004  1.0000 -0.6214314429
O   O99       1.0  0.63762  0.49004  0.02512  1.0000 -0.6214314429
O   O100      1.0  0.49004  0.63762  0.84722  1.0000 -0.6214314429
O   O101      1.0  0.63762  0.02512  0.84722  1.0000 -0.6214314429
O   O102      1.0  0.49004  0.84722  0.02512  1.0000 -0.6214314429
O   O103      1.0  0.02512  0.63762  0.49004  1.0000 -0.6214314429
O   O104      1.0  0.84722  0.49004  0.63762  1.0000 -0.6214314429
O   O105      1.0  0.84722  0.63762  0.02512  1.0000 -0.6214314429
O   O106      1.0  0.02512  0.49004  0.84722  1.0000 -0.6214314429
O   O107      1.0  0.49004  0.02512  0.63762  1.0000 -0.6214314429
O   O108      1.0  0.63762  0.84722  0.49004  1.0000 -0.6214314429
O   O109      1.0  0.97488  0.15278  0.50996  1.0000 -0.6214314429
O   O110      1.0  0.15278  0.97488  0.36238  1.0000 -0.6214314429
O   O111      1.0  0.36238  0.50996  0.15278  1.0000 -0.6214314429
O   O112      1.0  0.50996  0.36238  0.97488  1.0000 -0.6214314429
O   O113      1.0  0.36238  0.97488  0.50996  1.0000 -0.6214314429
O   O114      1.0  0.50996  0.15278  0.36238  1.0000 -0.6214314429
O   O115      1.0  0.97488  0.36238  0.15278  1.0000 -0.6214314429
O   O116      1.0  0.15278  0.50996  0.97488  1.0000 -0.6214314429
O   O117      1.0  0.15278  0.36238  0.50996  1.0000 -0.6214314429
O   O118      1.0  0.97488  0.50996  0.36238  1.0000 -0.6214314429
O   O119      1.0  0.50996  0.97488  0.15278  1.0000 -0.6214314429
O   O120      1.0  0.36238  0.15278  0.97488  1.0000 -0.6214314429
O   O121      1.0  0.06312  0.93688  0.54328  1.0000 -1.1602018137
O   O122      1.0  0.93688  0.06312  0.45672  1.0000 -1.1602018137
O   O123      1.0  0.54328  0.45672  0.06312  1.0000 -1.1602018137
O   O124      1.0  0.45672  0.54328  0.93688  1.0000 -1.1602018137
O   O125      1.0  0.54328  0.06312  0.93688  1.0000 -1.1602018137
O   O126      1.0  0.45672  0.93688  0.06312  1.0000 -1.1602018137
O   O127      1.0  0.06312  0.54328  0.45672  1.0000 -1.1602018137
O   O128      1.0  0.93688  0.45672  0.54328  1.0000 -1.1602018137
O   O129      1.0  0.93688  0.54328  0.06312  1.0000 -1.1602018137
O   O130      1.0  0.06312  0.45672  0.93688  1.0000 -1.1602018137
O   O131      1.0  0.45672  0.06312  0.54328  1.0000 -1.1602018137
O   O132      1.0  0.54328  0.93688  0.45672  1.0000 -1.1692747191
O   O133      1.0  0.93688  0.06312  0.54328  1.0000 -1.1602018137
O   O134      1.0  0.06312  0.93688  0.45672  1.0000 -1.1602018137
O   O135      1.0  0.45672  0.54328  0.06312  1.0000 -1.1692747191
O   O136      1.0  0.54328  0.45672  0.93688  1.0000 -1.1602018137
O   O137      1.0  0.45672  0.93688  0.54328  1.0000 -1.1602018137
O   O138      1.0  0.54328  0.06312  0.45672  1.0000 -1.1602018137
O   O139      1.0  0.93688  0.45672  0.06312  1.0000 -1.1602018137
O   O140      1.0  0.06312  0.54328  0.93688  1.0000 -1.1602018137
O   O141      1.0  0.06312  0.45672  0.54328  1.0000 -1.1602018137
O   O142      1.0  0.93688  0.54328  0.45672  1.0000 -1.1602018137
O   O143      1.0  0.54328  0.93688  0.06312  1.0000 -1.1602018137
O   O144      1.0  0.45672  0.06312  0.93688  1.0000 -1.1602018137
