# DDEC6 charges by PACMAN v1.1 (https://github.com/mtap-research/PACMAN-charge/)
data_2013[Co][nan]3[ASR]11
_chemical_formula_sum              "Co20 H152 C216 O96"
_cell_length_a       14.3747
_cell_length_b       18.633
_cell_length_c       23.957
_cell_angle_alpha    90
_cell_angle_beta     90
_cell_angle_gamma    90

_symmetry_space_group_name_H-M    "P 1"
_symmetry_Int_Tables_number       1

loop_
  _symmetry_equiv_pos_as_xyz
  'x, y, z'

loop_
  _atom_site_type_symbol
  _atom_site_label
  _atom_site_symmetry_multiplicity
  _atom_site_fract_x
  _atom_site_fract_y
  _atom_site_fract_z
  _atom_site_occupancy
  _atom_site_charge
Co  Co1       1.0  0.81533  0.17536  0.42887  1.0000 0.9831740706
Co  Co2       1.0  0.18467  0.67536  0.57113  1.0000 0.9831740706
Co  Co3       1.0  0.31533  0.17536  0.07113  1.0000 0.9831740706
Co  Co4       1.0  0.68467  0.67536  0.92887  1.0000 0.9831740706
Co  Co5       1.0  0.61975  0.23587  0.49911  1.0000 1.0959580093
Co  Co6       1.0  0.38025  0.73587  0.50089  1.0000 1.0959580093
Co  Co7       1.0  0.11975  0.23587  0.00089  1.0000 1.0959580093
Co  Co8       1.0  0.88025  0.73587  0.99911  1.0000 1.0959580093
Co  Co9       1.0  0.42317  0.29905  0.56836  1.0000 0.9940263181
Co  Co10      1.0  0.57683  0.79905  0.43164  1.0000 0.9940263181
Co  Co11      1.0  0.92317  0.29905  0.93164  1.0000 0.9940263181
Co  Co12      1.0  0.07683  0.79905  0.06836  1.0000 0.9940263181
Co  Co13      1.0  0.94303  0.28922  0.59399  1.0000 0.9394149779
Co  Co14      1.0  0.05697  0.78922  0.40601  1.0000 0.9394149779
Co  Co15      1.0  0.44303  0.28922  0.90601  1.0000 0.9394149779
Co  Co16      1.0  0.55697  0.78922  0.09399  1.0000 0.9394149779
Co  Co17      1.0  0.30086  0.18236  0.40684  1.0000 0.9394149779
Co  Co18      1.0  0.69914  0.68236  0.59316  1.0000 0.9394149779
Co  Co19      1.0  0.80086  0.18236  0.09316  1.0000 0.9394149779
Co  Co20      1.0  0.19914  0.68236  0.90684  1.0000 0.9394149779
H   H1        1.0  0.76540  0.16620  0.20080  1.0000 0.3601850121
H   H2        1.0  0.23460  0.66620  0.79920  1.0000 0.3601850121
H   H3        1.0  0.26540  0.16620  0.29920  1.0000 0.3601850121
H   H4        1.0  0.73460  0.66620  0.70080  1.0000 0.3601850121
H   H5        1.0  0.48030  0.30330  0.79950  1.0000 0.3601850121
H   H6        1.0  0.51970  0.80330  0.20050  1.0000 0.3601850121
H   H7        1.0  0.98030  0.30330  0.70050  1.0000 0.3601850121
H   H8        1.0  0.01970  0.80330  0.29950  1.0000 0.3601850121
H   H9        1.0  0.28080  0.44080  0.51850  1.0000 0.1400297007
H   H10       1.0  0.71920  0.94080  0.48150  1.0000 0.1400297007
H   H11       1.0  0.78080  0.44080  0.98150  1.0000 0.1400297007
H   H12       1.0  0.21920  0.94080  0.01850  1.0000 0.1400297007
H   H13       1.0  0.37090  0.39850  0.36330  1.0000 0.1228736535
H   H14       1.0  0.62910  0.89850  0.63670  1.0000 0.1228736535
H   H15       1.0  0.87090  0.39850  0.13670  1.0000 0.1228736535
H   H16       1.0  0.12910  0.89850  0.86330  1.0000 0.1228736535
H   H17       1.0  0.33890  0.60170  0.41150  1.0000 0.1299497079
H   H18       1.0  0.66110  0.10170  0.58850  1.0000 0.1299497079
H   H19       1.0  0.83890  0.60170  0.08850  1.0000 0.1299497079
H   H20       1.0  0.16110  0.10170  0.91150  1.0000 0.1299497079
H   H21       1.0  0.38750  0.58050  0.31830  1.0000 0.1400297007
H   H22       1.0  0.61250  0.08050  0.68170  1.0000 0.1400297007
H   H23       1.0  0.88750  0.58050  0.18170  1.0000 0.1400297007
H   H24       1.0  0.11250  0.08050  0.81830  1.0000 0.1400297007
H   H25       1.0  0.45080  0.51240  0.31260  1.0000 0.1400297007
H   H26       1.0  0.54920  0.01240  0.68740  1.0000 0.1400297007
H   H27       1.0  0.95080  0.51240  0.18740  1.0000 0.1400297007
H   H28       1.0  0.04920  0.01240  0.81260  1.0000 0.1400297007
H   H29       1.0  0.34710  0.50980  0.29250  1.0000 0.1400297007
H   H30       1.0  0.65290  0.00980  0.70750  1.0000 0.1400297007
H   H31       1.0  0.84710  0.50980  0.20750  1.0000 0.1400297007
H   H32       1.0  0.15290  0.00980  0.79250  1.0000 0.1400297007
H   H33       1.0  0.75920  0.19360  0.65300  1.0000 0.1400297007
H   H34       1.0  0.24080  0.69360  0.34700  1.0000 0.1400297007
H   H35       1.0  0.25920  0.19360  0.84700  1.0000 0.1400297007
H   H36       1.0  0.74080  0.69360  0.15300  1.0000 0.1400297007
H   H37       1.0  0.74760  0.19340  0.82060  1.0000 0.1400297007
H   H38       1.0  0.25240  0.69340  0.17940  1.0000 0.1400297007
H   H39       1.0  0.24760  0.19340  0.67940  1.0000 0.1400297007
H   H40       1.0  0.75240  0.69340  0.32060  1.0000 0.1400297007
H   H41       1.0  0.53970  0.27990  0.73120  1.0000 0.1228736535
H   H42       1.0  0.46030  0.77990  0.26880  1.0000 0.1228736535
H   H43       1.0  0.03970  0.27990  0.76880  1.0000 0.1228736535
H   H44       1.0  0.96030  0.77990  0.23120  1.0000 0.1228736535
H   H45       1.0  0.88230  0.14340  0.77730  1.0000 0.1501700356
H   H46       1.0  0.11770  0.64340  0.22270  1.0000 0.1501700356
H   H47       1.0  0.38230  0.14340  0.72270  1.0000 0.1501700356
H   H48       1.0  0.61770  0.64340  0.27730  1.0000 0.1501700356
H   H49       1.0  0.86150  0.10610  0.72000  1.0000 0.1501700356
H   H50       1.0  0.13850  0.60610  0.28000  1.0000 0.1501700356
H   H51       1.0  0.36150  0.10610  0.78000  1.0000 0.1501700356
H   H52       1.0  0.63850  0.60610  0.22000  1.0000 0.1501700356
H   H53       1.0  0.90940  0.18170  0.72130  1.0000 0.1400297007
H   H54       1.0  0.09060  0.68170  0.27870  1.0000 0.1400297007
H   H55       1.0  0.40940  0.18170  0.77870  1.0000 0.1400297007
H   H56       1.0  0.59060  0.68170  0.22130  1.0000 0.1400297007
H   H57       1.0  0.47870  0.28310  0.34170  1.0000 0.1400297007
H   H58       1.0  0.52130  0.78310  0.65830  1.0000 0.1400297007
H   H59       1.0  0.97870  0.28310  0.15830  1.0000 0.1400297007
H   H60       1.0  0.02130  0.78310  0.84170  1.0000 0.1400297007
H   H61       1.0  0.49490  0.27580  0.17580  1.0000 0.1400297007
H   H62       1.0  0.50510  0.77580  0.82420  1.0000 0.1400297007
H   H63       1.0  0.99490  0.27580  0.32420  1.0000 0.1400297007
H   H64       1.0  0.00510  0.77580  0.67580  1.0000 0.1400297007
H   H65       1.0  0.70160  0.19320  0.26870  1.0000 0.1228736535
H   H66       1.0  0.29840  0.69320  0.73130  1.0000 0.1228736535
H   H67       1.0  0.20160  0.19320  0.23130  1.0000 0.1228736535
H   H68       1.0  0.79840  0.69320  0.76870  1.0000 0.1228736535
H   H69       1.0  0.36330  0.32380  0.21320  1.0000 0.1501700356
H   H70       1.0  0.63670  0.82380  0.78680  1.0000 0.1501700356
H   H71       1.0  0.86330  0.32380  0.28680  1.0000 0.1501700356
H   H72       1.0  0.13670  0.82380  0.71320  1.0000 0.1501700356
H   H73       1.0  0.33190  0.28780  0.26930  1.0000 0.1400297007
H   H74       1.0  0.66810  0.78780  0.73070  1.0000 0.1400297007
H   H75       1.0  0.83190  0.28780  0.23070  1.0000 0.1400297007
H   H76       1.0  0.16810  0.78780  0.76930  1.0000 0.1400297007
H   H77       1.0  0.37830  0.36400  0.27000  1.0000 0.1501700356
H   H78       1.0  0.62170  0.86400  0.73000  1.0000 0.1501700356
H   H79       1.0  0.87830  0.36400  0.23000  1.0000 0.1501700356
H   H80       1.0  0.12170  0.86400  0.77000  1.0000 0.1501700356
H   H81       1.0  0.59070  0.37460  0.41300  1.0000 0.1299497079
H   H82       1.0  0.40930  0.87460  0.58700  1.0000 0.1299497079
H   H83       1.0  0.09070  0.37460  0.08700  1.0000 0.1299497079
H   H84       1.0  0.90930  0.87460  0.91300  1.0000 0.1299497079
H   H85       1.0  0.62190  0.58070  0.36880  1.0000 0.1299497079
H   H86       1.0  0.37810  0.08070  0.63120  1.0000 0.1299497079
H   H87       1.0  0.12190  0.58070  0.13120  1.0000 0.1299497079
H   H88       1.0  0.87810  0.08070  0.86880  1.0000 0.1299497079
H   H89       1.0  0.51080  0.53130  0.51840  1.0000 0.1400297007
H   H90       1.0  0.48920  0.03130  0.48160  1.0000 0.1400297007
H   H91       1.0  0.01080  0.53130  0.98160  1.0000 0.1400297007
H   H92       1.0  0.98920  0.03130  0.01840  1.0000 0.1400297007
H   H93       1.0  0.64600  0.39910  0.32310  1.0000 0.1400297007
H   H94       1.0  0.35400  0.89910  0.67690  1.0000 0.1400297007
H   H95       1.0  0.14600  0.39910  0.17690  1.0000 0.1400297007
H   H96       1.0  0.85400  0.89910  0.82310  1.0000 0.1400297007
H   H97       1.0  0.60380  0.46860  0.29620  1.0000 0.1400297007
H   H98       1.0  0.39620  0.96860  0.70380  1.0000 0.1400297007
H   H99       1.0  0.10380  0.46860  0.20380  1.0000 0.1400297007
H   H100      1.0  0.89620  0.96860  0.79620  1.0000 0.1400297007
H   H101      1.0  0.70650  0.46890  0.31840  1.0000 0.1400297007
H   H102      1.0  0.29350  0.96890  0.68160  1.0000 0.1400297007
H   H103      1.0  0.20650  0.46890  0.18160  1.0000 0.1400297007
H   H104      1.0  0.79350  0.96890  0.81840  1.0000 0.1400297007
H   H105      1.0  0.17240  0.10060  0.56680  1.0000 0.1400297007
H   H106      1.0  0.82760  0.60060  0.43320  1.0000 0.1400297007
H   H107      1.0  0.67240  0.10060  0.93320  1.0000 0.1400297007
H   H108      1.0  0.32760  0.60060  0.06680  1.0000 0.1400297007
H   H109      1.0  0.13100  0.90100  0.62440  1.0000 0.1299497079
H   H110      1.0  0.86900  0.40100  0.37560  1.0000 0.1299497079
H   H111      1.0  0.63100  0.90100  0.87560  1.0000 0.1299497079
H   H112      1.0  0.36900  0.40100  0.12440  1.0000 0.1299497079
H   H113      1.0  0.24590  0.93030  0.47340  1.0000 0.1400297007
H   H114      1.0  0.75410  0.43030  0.52660  1.0000 0.1400297007
H   H115      1.0  0.74590  0.93030  0.02660  1.0000 0.1400297007
H   H116      1.0  0.25410  0.43030  0.97340  1.0000 0.1400297007
H   H117      1.0  0.11350  0.08910  0.65660  1.0000 0.1400297007
H   H118      1.0  0.88650  0.58910  0.34340  1.0000 0.1400297007
H   H119      1.0  0.61350  0.08910  0.84340  1.0000 0.1400297007
H   H120      1.0  0.38650  0.58910  0.15660  1.0000 0.1400297007
H   H121      1.0  0.05030  0.02160  0.66600  1.0000 0.1400297007
H   H122      1.0  0.94970  0.52160  0.33400  1.0000 0.1400297007
H   H123      1.0  0.55030  0.02160  0.83400  1.0000 0.1400297007
H   H124      1.0  0.44970  0.52160  0.16600  1.0000 0.1400297007
H   H125      1.0  0.15230  0.02250  0.68910  1.0000 0.1299497079
H   H126      1.0  0.84770  0.52250  0.31090  1.0000 0.1400297007
H   H127      1.0  0.65230  0.02250  0.81090  1.0000 0.1299497079
H   H128      1.0  0.34770  0.52250  0.18910  1.0000 0.1400297007
H   H129      1.0  0.96900  0.04610  0.46780  1.0000 0.1400297007
H   H130      1.0  0.03100  0.54610  0.53220  1.0000 0.1400297007
H   H131      1.0  0.46900  0.04610  0.03220  1.0000 0.1400297007
H   H132      1.0  0.53100  0.54610  0.96780  1.0000 0.1400297007
H   H133      1.0  0.87830  0.06660  0.62480  1.0000 0.1228736535
H   H134      1.0  0.12170  0.56660  0.37520  1.0000 0.1228736535
H   H135      1.0  0.37830  0.06660  0.87520  1.0000 0.1228736535
H   H136      1.0  0.62170  0.56660  0.12480  1.0000 0.1228736535
H   H137      1.0  0.94150  0.87210  0.56480  1.0000 0.1400297007
H   H138      1.0  0.05850  0.37210  0.43520  1.0000 0.1400297007
H   H139      1.0  0.44150  0.87210  0.93520  1.0000 0.1400297007
H   H140      1.0  0.55850  0.37210  0.06480  1.0000 0.1400297007
H   H141      1.0  0.88330  0.87870  0.65730  1.0000 0.1400297007
H   H142      1.0  0.11670  0.37870  0.34270  1.0000 0.1400297007
H   H143      1.0  0.38330  0.87870  0.84270  1.0000 0.1400297007
H   H144      1.0  0.61670  0.37870  0.15730  1.0000 0.1400297007
H   H145      1.0  0.91390  0.94880  0.68850  1.0000 0.1400297007
H   H146      1.0  0.08610  0.44880  0.31150  1.0000 0.1400297007
H   H147      1.0  0.41390  0.94880  0.81150  1.0000 0.1400297007
H   H148      1.0  0.58610  0.44880  0.18850  1.0000 0.1400297007
H   H149      1.0  0.81160  0.94080  0.66667  1.0000 0.1400297007
H   H150      1.0  0.18840  0.44080  0.33333  1.0000 0.1400297007
H   H151      1.0  0.31160  0.94080  0.83333  1.0000 0.1400297007
H   H152      1.0  0.68840  0.44080  0.16667  1.0000 0.1400297007
C   C1        1.0  0.27200  0.58280  0.51350  1.0000 0.5692138422
C   C2        1.0  0.72800  0.08280  0.48650  1.0000 0.5692138422
C   C3        1.0  0.77200  0.58280  0.98650  1.0000 0.5692138422
C   C4        1.0  0.22800  0.08280  0.01350  1.0000 0.5692138422
C   C5        1.0  0.30560  0.53003  0.47246  1.0000 -0.0186032204
C   C6        1.0  0.69440  0.03003  0.52754  1.0000 -0.0186032204
C   C7        1.0  0.80560  0.53003  0.02754  1.0000 -0.0186032204
C   C8        1.0  0.19440  0.03003  0.97246  1.0000 -0.0186032204
C   C9        1.0  0.30100  0.45658  0.48372  1.0000 -0.1170750057
C   C10       1.0  0.69900  0.95658  0.51628  1.0000 -0.1170750057
C   C11       1.0  0.80100  0.45658  0.01628  1.0000 -0.1170750057
C   C12       1.0  0.19900  0.95658  0.98372  1.0000 -0.1170750057
C   C13       1.0  0.32660  0.40692  0.44317  1.0000 -0.0186032204
C   C14       1.0  0.67340  0.90692  0.55683  1.0000 -0.0186032204
C   C15       1.0  0.82660  0.40692  0.05683  1.0000 -0.0186032204
C   C16       1.0  0.17340  0.90692  0.94317  1.0000 -0.0186032204
C   C17       1.0  0.35460  0.43160  0.39059  1.0000 -0.1806969197
C   C18       1.0  0.64540  0.93160  0.60941  1.0000 -0.1806969197
C   C19       1.0  0.85460  0.43160  0.10941  1.0000 -0.1806969197
C   C20       1.0  0.14540  0.93160  0.89059  1.0000 -0.1806969197
C   C21       1.0  0.35850  0.50410  0.37825  1.0000 0.1720849712
C   C22       1.0  0.64150  0.00410  0.62175  1.0000 0.1720849712
C   C23       1.0  0.85850  0.50410  0.12175  1.0000 0.1720849712
C   C24       1.0  0.14150  0.00410  0.87825  1.0000 0.1720849712
C   C25       1.0  0.33510  0.55280  0.41916  1.0000 -0.1689804466
C   C26       1.0  0.66490  0.05280  0.58084  1.0000 -0.1689804466
C   C27       1.0  0.83510  0.55280  0.08084  1.0000 -0.1689804466
C   C28       1.0  0.16490  0.05280  0.91916  1.0000 -0.1689804466
C   C29       1.0  0.38880  0.52900  0.31997  1.0000 -0.4770536126
C   C30       1.0  0.61120  0.02900  0.68003  1.0000 -0.4770536126
C   C31       1.0  0.88880  0.52900  0.18003  1.0000 -0.4770536126
C   C32       1.0  0.11120  0.02900  0.81997  1.0000 -0.4770536126
C   C33       1.0  0.59930  0.25732  0.62834  1.0000 0.6002714782
C   C34       1.0  0.40070  0.75732  0.37166  1.0000 0.6002714782
C   C35       1.0  0.09930  0.25732  0.87166  1.0000 0.6002714782
C   C36       1.0  0.90070  0.75732  0.12834  1.0000 0.6002714782
C   C37       1.0  0.64300  0.23760  0.68345  1.0000 -0.0025247375
C   C38       1.0  0.35700  0.73760  0.31655  1.0000 -0.0025247375
C   C39       1.0  0.14300  0.23760  0.81655  1.0000 -0.0025247375
C   C40       1.0  0.85700  0.73760  0.18345  1.0000 -0.0025247375
C   C41       1.0  0.72810  0.20460  0.68599  1.0000 -0.1604595322
C   C42       1.0  0.27190  0.70460  0.31401  1.0000 -0.1604595322
C   C43       1.0  0.22810  0.20460  0.81401  1.0000 -0.1604595322
C   C44       1.0  0.77190  0.70460  0.18599  1.0000 -0.1604595322
C   C45       1.0  0.76940  0.18710  0.73750  1.0000 0.179007098
C   C46       1.0  0.23060  0.68710  0.26250  1.0000 0.179007098
C   C47       1.0  0.26940  0.18710  0.76250  1.0000 0.179007098
C   C48       1.0  0.73060  0.68710  0.23750  1.0000 0.179007098
C   C49       1.0  0.72160  0.20460  0.78610  1.0000 -0.1604595322
C   C50       1.0  0.27840  0.70460  0.21390  1.0000 -0.1604595322
C   C51       1.0  0.22160  0.20460  0.71390  1.0000 -0.1604595322
C   C52       1.0  0.77840  0.70460  0.28610  1.0000 -0.1604595322
C   C53       1.0  0.63580  0.23840  0.78387  1.0000 -0.0517341626
C   C54       1.0  0.36420  0.73840  0.21613  1.0000 -0.0517341626
C   C55       1.0  0.13580  0.23840  0.71613  1.0000 -0.0517341626
C   C56       1.0  0.86420  0.73840  0.28387  1.0000 -0.0517341626
C   C57       1.0  0.59650  0.25610  0.73267  1.0000 -0.1604595322
C   C58       1.0  0.40350  0.75610  0.26733  1.0000 -0.1604595322
C   C59       1.0  0.09650  0.25610  0.76733  1.0000 -0.1604595322
C   C60       1.0  0.90350  0.75610  0.23267  1.0000 -0.1604595322
C   C61       1.0  0.58740  0.25780  0.83656  1.0000 0.5692138422
C   C62       1.0  0.41260  0.75780  0.16344  1.0000 0.5692138422
C   C63       1.0  0.08740  0.25780  0.66344  1.0000 0.5692138422
C   C64       1.0  0.91260  0.75780  0.33656  1.0000 0.5692138422
C   C65       1.0  0.86440  0.15130  0.73917  1.0000 -0.4706067195
C   C66       1.0  0.13560  0.65130  0.26083  1.0000 -0.4706067195
C   C67       1.0  0.36440  0.15130  0.76083  1.0000 -0.4706067195
C   C68       1.0  0.63560  0.65130  0.23917  1.0000 -0.4706067195
C   C69       1.0  0.63980  0.21680  0.36969  1.0000 0.6002714782
C   C70       1.0  0.36020  0.71680  0.63031  1.0000 0.6002714782
C   C71       1.0  0.13980  0.21680  0.13031  1.0000 0.6002714782
C   C72       1.0  0.86020  0.71680  0.86969  1.0000 0.6002714782
C   C73       1.0  0.59730  0.23430  0.31409  1.0000 0.0007713739
C   C74       1.0  0.40270  0.73430  0.68591  1.0000 0.0007713739
C   C75       1.0  0.09730  0.23430  0.18591  1.0000 0.0007713739
C   C76       1.0  0.90270  0.73430  0.81409  1.0000 0.0007713739
C   C77       1.0  0.51040  0.26940  0.30954  1.0000 -0.1604595322
C   C78       1.0  0.48960  0.76940  0.69046  1.0000 -0.1604595322
C   C79       1.0  0.01040  0.26940  0.19046  1.0000 -0.1604595322
C   C80       1.0  0.98960  0.76940  0.80954  1.0000 -0.1604595322
C   C81       1.0  0.47200  0.28360  0.25778  1.0000 0.1720849712
C   C82       1.0  0.52800  0.78360  0.74222  1.0000 0.1720849712
C   C83       1.0  0.97200  0.28360  0.24222  1.0000 0.1720849712
C   C84       1.0  0.02800  0.78360  0.75778  1.0000 0.1720849712
C   C85       1.0  0.52020  0.26540  0.21061  1.0000 -0.1499304102
C   C86       1.0  0.47980  0.76540  0.78939  1.0000 -0.1499304102
C   C87       1.0  0.02020  0.26540  0.28939  1.0000 -0.1499304102
C   C88       1.0  0.97980  0.76540  0.71061  1.0000 -0.1499304102
C   C89       1.0  0.64420  0.21610  0.26619  1.0000 -0.1689804466
C   C90       1.0  0.35580  0.71610  0.73381  1.0000 -0.1689804466
C   C91       1.0  0.14420  0.21610  0.23381  1.0000 -0.1689804466
C   C92       1.0  0.85580  0.71610  0.76619  1.0000 -0.1689804466
C   C93       1.0  0.37790  0.31790  0.25200  1.0000 -0.4621539266
C   C94       1.0  0.62210  0.81790  0.74800  1.0000 -0.4621539266
C   C95       1.0  0.87790  0.31790  0.24800  1.0000 -0.4621539266
C   C96       1.0  0.12210  0.81790  0.75200  1.0000 -0.4621539266
C   C97       1.0  0.51350  0.38984  0.51274  1.0000 0.5752966552
C   C98       1.0  0.48650  0.88984  0.48726  1.0000 0.5752966552
C   C99       1.0  0.01350  0.38984  0.98726  1.0000 0.5752966552
C   C100      1.0  0.98650  0.88984  0.01274  1.0000 0.5752966552
C   C101      1.0  0.54790  0.44493  0.47240  1.0000 -0.0090645073
C   C102      1.0  0.45210  0.94493  0.52760  1.0000 -0.0090645073
C   C103      1.0  0.04790  0.44493  0.02760  1.0000 -0.0090645073
C   C104      1.0  0.95210  0.94493  0.97240  1.0000 -0.0090645073
C   C105      1.0  0.58420  0.42320  0.42093  1.0000 -0.1604595322
C   C106      1.0  0.41580  0.92320  0.57907  1.0000 -0.1604595322
C   C107      1.0  0.08420  0.42320  0.07907  1.0000 -0.1604595322
C   C108      1.0  0.91580  0.92320  0.92093  1.0000 -0.1604595322
C   C109      1.0  0.61080  0.47440  0.38128  1.0000 0.1720849712
C   C110      1.0  0.38920  0.97440  0.61872  1.0000 0.1720849712
C   C111      1.0  0.11080  0.47440  0.11872  1.0000 0.1720849712
C   C112      1.0  0.88920  0.97440  0.88128  1.0000 0.1720849712
C   C113      1.0  0.60210  0.54640  0.39443  1.0000 -0.1689804466
C   C114      1.0  0.39790  0.04640  0.60557  1.0000 -0.1689804466
C   C115      1.0  0.10210  0.54640  0.10557  1.0000 -0.1689804466
C   C116      1.0  0.89790  0.04640  0.89443  1.0000 -0.1689804466
C   C117      1.0  0.56430  0.56870  0.44551  1.0000 -0.0090645073
C   C118      1.0  0.43570  0.06870  0.55449  1.0000 -0.0090645073
C   C119      1.0  0.06430  0.56870  0.05449  1.0000 -0.0090645073
C   C120      1.0  0.93570  0.06870  0.94551  1.0000 -0.0090645073
C   C121      1.0  0.53660  0.51718  0.48452  1.0000 -0.1170750057
C   C122      1.0  0.46340  0.01718  0.51548  1.0000 -0.1170750057
C   C123      1.0  0.03660  0.51718  0.01548  1.0000 -0.1170750057
C   C124      1.0  0.96340  0.01718  0.98452  1.0000 -0.1170750057
C   C125      1.0  0.64490  0.45060  0.32457  1.0000 -0.4770536126
C   C126      1.0  0.35510  0.95060  0.67543  1.0000 -0.4770536126
C   C127      1.0  0.14490  0.45060  0.17543  1.0000 -0.4770536126
C   C128      1.0  0.85510  0.95060  0.82457  1.0000 -0.4770536126
C   C129      1.0  0.54700  0.64680  0.45690  1.0000 0.5878179519
C   C130      1.0  0.45300  0.14680  0.54310  1.0000 0.5878179519
C   C131      1.0  0.04700  0.64680  0.04310  1.0000 0.5878179519
C   C132      1.0  0.95300  0.14680  0.95690  1.0000 0.5878179519
C   C133      1.0  0.65800  0.21120  0.16210  1.0000 0.5692138422
C   C134      1.0  0.34200  0.71120  0.83790  1.0000 0.5692138422
C   C135      1.0  0.15800  0.21120  0.33790  1.0000 0.5692138422
C   C136      1.0  0.84200  0.71120  0.66210  1.0000 0.5692138422
C   C137      1.0  0.60660  0.23150  0.21379  1.0000 -0.0517341626
C   C138      1.0  0.39340  0.73150  0.78621  1.0000 -0.0517341626
C   C139      1.0  0.10660  0.23150  0.28621  1.0000 -0.0517341626
C   C140      1.0  0.89340  0.73150  0.71379  1.0000 -0.0517341626
C   C141      1.0  0.32170  0.32760  0.45590  1.0000 0.5878179519
C   C142      1.0  0.67830  0.82760  0.54410  1.0000 0.5878179519
C   C143      1.0  0.82170  0.32760  0.04410  1.0000 0.5878179519
C   C144      1.0  0.17830  0.82760  0.95590  1.0000 0.5878179519
C   C145      1.0  0.24360  0.07000  0.46566  1.0000 0.5596714093
C   C146      1.0  0.75640  0.57000  0.53434  1.0000 0.5596714093
C   C147      1.0  0.74360  0.07000  0.03434  1.0000 0.5596714093
C   C148      1.0  0.25640  0.57000  0.96566  1.0000 0.5596714093
C   C149      1.0  0.21170  0.02290  0.51263  1.0000 -0.0090645073
C   C150      1.0  0.78830  0.52290  0.48737  1.0000 -0.0090645073
C   C151      1.0  0.71170  0.02290  0.98737  1.0000 -0.0090645073
C   C152      1.0  0.28830  0.52290  0.01263  1.0000 -0.0090645073
C   C153      1.0  0.17640  0.05120  0.56229  1.0000 -0.1604595322
C   C154      1.0  0.82360  0.55120  0.43771  1.0000 -0.1604595322
C   C155      1.0  0.67640  0.05120  0.93771  1.0000 -0.1604595322
C   C156      1.0  0.32360  0.55120  0.06229  1.0000 -0.1604595322
C   C157      1.0  0.14730  0.00600  0.60491  1.0000 0.1720849712
C   C158      1.0  0.85270  0.50600  0.39509  1.0000 0.1720849712
C   C159      1.0  0.64730  0.00600  0.89509  1.0000 0.1720849712
C   C160      1.0  0.35270  0.50600  0.10491  1.0000 0.1720849712
C   C161      1.0  0.15380  0.93180  0.59710  1.0000 -0.1689804466
C   C162      1.0  0.84620  0.43180  0.40290  1.0000 -0.1689804466
C   C163      1.0  0.65380  0.93180  0.90290  1.0000 -0.1689804466
C   C164      1.0  0.34620  0.43180  0.09710  1.0000 -0.1689804466
C   C165      1.0  0.19350  0.90360  0.54951  1.0000 -0.0186032204
C   C166      1.0  0.80650  0.40360  0.45049  1.0000 -0.0186032204
C   C167      1.0  0.69350  0.90360  0.95049  1.0000 -0.0186032204
C   C168      1.0  0.30650  0.40360  0.04951  1.0000 -0.0186032204
C   C169      1.0  0.22130  0.94920  0.50612  1.0000 -0.1098910944
C   C170      1.0  0.77870  0.44920  0.49388  1.0000 -0.1098910944
C   C171      1.0  0.72130  0.94920  0.99388  1.0000 -0.1098910944
C   C172      1.0  0.27870  0.44920  0.00612  1.0000 -0.1098910944
C   C173      1.0  0.11270  0.03770  0.65908  1.0000 -0.4770536126
C   C174      1.0  0.88730  0.53770  0.34092  1.0000 -0.4770536126
C   C175      1.0  0.61270  0.03770  0.84092  1.0000 -0.4770536126
C   C176      1.0  0.38730  0.53770  0.15908  1.0000 -0.4770536126
C   C177      1.0  0.99590  0.90570  0.46214  1.0000 0.5596714093
C   C178      1.0  0.00410  0.40570  0.53786  1.0000 0.5596714093
C   C179      1.0  0.49590  0.90570  0.03786  1.0000 0.5596714093
C   C180      1.0  0.50410  0.40570  0.96214  1.0000 0.5596714093
C   C181      1.0  0.96070  0.95250  0.50823  1.0000 -0.0090645073
C   C182      1.0  0.03930  0.45250  0.49177  1.0000 -0.0090645073
C   C183      1.0  0.46070  0.95250  0.99177  1.0000 -0.0090645073
C   C184      1.0  0.53930  0.45250  0.00823  1.0000 -0.0090645073
C   C185      1.0  0.95400  0.02540  0.50194  1.0000 -0.1008475871
C   C186      1.0  0.04600  0.52540  0.49806  1.0000 -0.1008475871
C   C187      1.0  0.45400  0.02540  0.99806  1.0000 -0.1008475871
C   C188      1.0  0.54600  0.52540  0.00194  1.0000 -0.1008475871
C   C189      1.0  0.92540  0.06890  0.54535  1.0000 -0.0404176192
C   C190      1.0  0.07460  0.56890  0.45465  1.0000 -0.0404176192
C   C191      1.0  0.42540  0.06890  0.95465  1.0000 -0.0404176192
C   C192      1.0  0.57460  0.56890  0.04535  1.0000 -0.0404176192
C   C193      1.0  0.89930  0.03770  0.59577  1.0000 -0.1689804466
C   C194      1.0  0.10070  0.53770  0.40423  1.0000 -0.1689804466
C   C195      1.0  0.39930  0.03770  0.90423  1.0000 -0.1689804466
C   C196      1.0  0.60070  0.53770  0.09577  1.0000 -0.1689804466
C   C197      1.0  0.90420  0.96350  0.60344  1.0000 0.179007098
C   C198      1.0  0.09580  0.46350  0.39656  1.0000 0.179007098
C   C199      1.0  0.40420  0.96350  0.89656  1.0000 0.179007098
C   C200      1.0  0.59580  0.46350  0.10344  1.0000 0.179007098
C   C201      1.0  0.93610  0.92140  0.55998  1.0000 -0.1499304102
C   C202      1.0  0.06390  0.42140  0.44002  1.0000 -0.1499304102
C   C203      1.0  0.43610  0.92140  0.94002  1.0000 -0.1499304102
C   C204      1.0  0.56390  0.42140  0.05998  1.0000 -0.1499304102
C   C205      1.0  0.87560  0.92980  0.65918  1.0000 -0.4770536126
C   C206      1.0  0.12440  0.42980  0.34082  1.0000 -0.4770536126
C   C207      1.0  0.37560  0.92980  0.84082  1.0000 -0.4770536126
C   C208      1.0  0.62440  0.42980  0.15918  1.0000 -0.4770536126
C   C209      1.0  0.21170  0.82460  0.54343  1.0000 0.5878179519
C   C210      1.0  0.78830  0.32460  0.45657  1.0000 0.5878179519
C   C211      1.0  0.71170  0.82460  0.95657  1.0000 0.5878179519
C   C212      1.0  0.28830  0.32460  0.04343  1.0000 0.5878179519
C   C213      1.0  0.92290  0.14800  0.53852  1.0000 0.5878179519
C   C214      1.0  0.07710  0.64800  0.46148  1.0000 0.5878179519
C   C215      1.0  0.42290  0.14800  0.96148  1.0000 0.5878179519
C   C216      1.0  0.57710  0.64800  0.03852  1.0000 0.5878179519
O   O1        1.0  0.27939  0.65007  0.50398  1.0000 -0.5928236769
O   O2        1.0  0.72061  0.15007  0.49602  1.0000 -0.5928236769
O   O3        1.0  0.77939  0.65007  0.99602  1.0000 -0.5928236769
O   O4        1.0  0.22061  0.15007  0.00398  1.0000 -0.5928236769
O   O5        1.0  0.23120  0.56281  0.55689  1.0000 -0.4893525095
O   O6        1.0  0.76880  0.06281  0.44311  1.0000 -0.4893525095
O   O7        1.0  0.73120  0.56281  0.94311  1.0000 -0.4893525095
O   O8        1.0  0.26880  0.06281  0.05689  1.0000 -0.4893525095
O   O9        1.0  0.63910  0.23515  0.58489  1.0000 -0.5514826478
O   O10       1.0  0.36090  0.73515  0.41511  1.0000 -0.5514826478
O   O11       1.0  0.13910  0.23515  0.91511  1.0000 -0.5514826478
O   O12       1.0  0.86090  0.73515  0.08489  1.0000 -0.5514826478
O   O13       1.0  0.52418  0.29258  0.63055  1.0000 -0.5587456873
O   O14       1.0  0.47582  0.79258  0.36945  1.0000 -0.5587456873
O   O15       1.0  0.02418  0.29258  0.86945  1.0000 -0.5587456873
O   O16       1.0  0.97582  0.79258  0.13055  1.0000 -0.5587456873
O   O17       1.0  0.71270  0.17867  0.36844  1.0000 -0.5514826478
O   O18       1.0  0.28730  0.67867  0.63156  1.0000 -0.5514826478
O   O19       1.0  0.21270  0.17867  0.13156  1.0000 -0.5514826478
O   O20       1.0  0.78730  0.67867  0.86844  1.0000 -0.5514826478
O   O21       1.0  0.59951  0.23830  0.41270  1.0000 -0.5392809519
O   O22       1.0  0.40049  0.73830  0.58730  1.0000 -0.5392809519
O   O23       1.0  0.09951  0.23830  0.08730  1.0000 -0.5392809519
O   O24       1.0  0.90049  0.73830  0.91270  1.0000 -0.5392809519
O   O25       1.0  0.52156  0.32338  0.50158  1.0000 -0.5928236769
O   O26       1.0  0.47844  0.82338  0.49842  1.0000 -0.5928236769
O   O27       1.0  0.02156  0.32338  0.99842  1.0000 -0.5928236769
O   O28       1.0  0.97844  0.82338  0.00158  1.0000 -0.5928236769
O   O29       1.0  0.46962  0.40915  0.55561  1.0000 -0.5089712591
O   O30       1.0  0.53038  0.90915  0.44439  1.0000 -0.5089712591
O   O31       1.0  0.96962  0.40915  0.94439  1.0000 -0.5089712591
O   O32       1.0  0.03038  0.90915  0.05561  1.0000 -0.5089712591
O   O33       1.0  0.25220  0.13715  0.47579  1.0000 -0.5392809519
O   O34       1.0  0.74780  0.63715  0.52421  1.0000 -0.5392809519
O   O35       1.0  0.75220  0.13715  0.02421  1.0000 -0.5392809519
O   O36       1.0  0.24780  0.63715  0.97579  1.0000 -0.5392809519
O   O37       1.0  0.26150  0.04445  0.41884  1.0000 -0.5514826478
O   O38       1.0  0.73850  0.54445  0.58116  1.0000 -0.5514826478
O   O39       1.0  0.76150  0.04445  0.08116  1.0000 -0.5514826478
O   O40       1.0  0.23850  0.54445  0.91884  1.0000 -0.5514826478
O   O41       1.0  0.73960  0.18309  0.16772  1.0000 -0.4706067195
O   O42       1.0  0.26040  0.68309  0.83228  1.0000 -0.4706067195
O   O43       1.0  0.23960  0.18309  0.33228  1.0000 -0.4706067195
O   O44       1.0  0.76040  0.68309  0.66772  1.0000 -0.4706067195
O   O45       1.0  0.62580  0.22370  0.11582  1.0000 -0.4377091677
O   O46       1.0  0.37420  0.72370  0.88418  1.0000 -0.4377091677
O   O47       1.0  0.12580  0.22370  0.38418  1.0000 -0.4377091677
O   O48       1.0  0.87420  0.72370  0.61582  1.0000 -0.4377091677
O   O49       1.0  0.31453  0.30737  0.50512  1.0000 -0.5334319325
O   O50       1.0  0.68547  0.80737  0.49488  1.0000 -0.5334319325
O   O51       1.0  0.81453  0.30737  0.99488  1.0000 -0.5334319325
O   O52       1.0  0.18547  0.80737  0.00512  1.0000 -0.5334319325
O   O53       1.0  0.32370  0.28684  0.41408  1.0000 -0.5587456873
O   O54       1.0  0.67630  0.78684  0.58592  1.0000 -0.5587456873
O   O55       1.0  0.82370  0.28684  0.08592  1.0000 -0.5587456873
O   O56       1.0  0.17630  0.78684  0.91408  1.0000 -0.5587456873
O   O57       1.0  0.58850  0.69127  0.42624  1.0000 -0.5587456873
O   O58       1.0  0.41150  0.19127  0.57376  1.0000 -0.5587456873
O   O59       1.0  0.08850  0.69127  0.07376  1.0000 -0.5587456873
O   O60       1.0  0.91150  0.19127  0.92624  1.0000 -0.5587456873
O   O61       1.0  0.49026  0.66257  0.49469  1.0000 -0.5763829798
O   O62       1.0  0.50974  0.16257  0.50531  1.0000 -0.5763829798
O   O63       1.0  0.99026  0.66257  0.00531  1.0000 -0.5763829798
O   O64       1.0  0.00974  0.16257  0.99469  1.0000 -0.5763829798
O   O65       1.0  0.00830  0.83935  0.47258  1.0000 -0.5514826478
O   O66       1.0  0.99170  0.33935  0.52742  1.0000 -0.5514826478
O   O67       1.0  0.50830  0.83935  0.02742  1.0000 -0.5514826478
O   O68       1.0  0.49170  0.33935  0.97258  1.0000 -0.5514826478
O   O69       1.0  0.01120  0.93150  0.41538  1.0000 -0.5334319325
O   O70       1.0  0.98880  0.43150  0.58462  1.0000 -0.5392809519
O   O71       1.0  0.51120  0.93150  0.08462  1.0000 -0.5392809519
O   O72       1.0  0.48880  0.43150  0.91538  1.0000 -0.5392809519
O   O73       1.0  0.17360  0.78314  0.57701  1.0000 -0.5392809519
O   O74       1.0  0.82640  0.28314  0.42299  1.0000 -0.5392809519
O   O75       1.0  0.67360  0.78314  0.92299  1.0000 -0.5392809519
O   O76       1.0  0.32640  0.28314  0.07701  1.0000 -0.5392809519
O   O77       1.0  0.26730  0.80533  0.50561  1.0000 -0.5763829798
O   O78       1.0  0.73270  0.30533  0.49439  1.0000 -0.5763829798
O   O79       1.0  0.76730  0.80533  0.99439  1.0000 -0.5763829798
O   O80       1.0  0.23270  0.30533  0.00561  1.0000 -0.5763829798
O   O81       1.0  0.92477  0.17544  0.49039  1.0000 -0.5392809519
O   O82       1.0  0.07523  0.67544  0.50961  1.0000 -0.5392809519
O   O83       1.0  0.42477  0.17544  0.00961  1.0000 -0.5392809519
O   O84       1.0  0.57523  0.67544  0.99039  1.0000 -0.5392809519
O   O85       1.0  0.92510  0.18505  0.58257  1.0000 -0.5514826478
O   O86       1.0  0.07490  0.68505  0.41743  1.0000 -0.5514826478
O   O87       1.0  0.42510  0.18505  0.91743  1.0000 -0.5514826478
O   O88       1.0  0.57490  0.68505  0.08257  1.0000 -0.5514826478
O   O89       1.0  0.62530  0.24690  0.88252  1.0000 -0.4509822504
O   O90       1.0  0.37470  0.74690  0.11748  1.0000 -0.4509822504
O   O91       1.0  0.12530  0.24690  0.61748  1.0000 -0.4509822504
O   O92       1.0  0.87470  0.74690  0.38252  1.0000 -0.4509822504
O   O93       1.0  0.50610  0.28633  0.83256  1.0000 -0.4706067195
O   O94       1.0  0.49390  0.78633  0.16744  1.0000 -0.4706067195
O   O95       1.0  0.00610  0.28633  0.66744  1.0000 -0.4706067195
O   O96       1.0  0.99390  0.78633  0.33256  1.0000 -0.4706067195
