# DDEC6 charges by PACMAN v1.1 (https://github.com/mtap-research/PACMAN-charge/)
data_2013[Co][nan]3[ASR]13
_chemical_formula_sum              "Co20 H304 C380 N72 O80"
_cell_length_a       17.2061
_cell_length_b       16.2099
_cell_length_c       37.6628
_cell_angle_alpha    90
_cell_angle_beta     112.485
_cell_angle_gamma    90

_symmetry_space_group_name_H-M    "P 1"
_symmetry_Int_Tables_number       1

loop_
  _symmetry_equiv_pos_as_xyz
  'x, y, z'

loop_
  _atom_site_type_symbol
  _atom_site_label
  _atom_site_symmetry_multiplicity
  _atom_site_fract_x
  _atom_site_fract_y
  _atom_site_fract_z
  _atom_site_occupancy
  _atom_site_charge
Co  Co1       1.0  0.10186  0.21872  0.98817  1.0000 0.8407874944
Co  Co2       1.0  0.89814  0.71872  0.51183  1.0000 0.8407874944
Co  Co3       1.0  0.89814  0.78128  0.01183  1.0000 0.8407874944
Co  Co4       1.0  0.10186  0.28128  0.48817  1.0000 0.8407874944
Co  Co5       1.0  0.87909  0.26384  0.98892  1.0000 0.830063762
Co  Co6       1.0  0.12091  0.76384  0.51108  1.0000 0.830063762
Co  Co7       1.0  0.12091  0.73616  0.01108  1.0000 0.830063762
Co  Co8       1.0  0.87909  0.23616  0.48892  1.0000 0.830063762
Co  Co9       1.0  0.73179  0.56911  0.14667  1.0000 0.7816843408
Co  Co10      1.0  0.26821  0.06911  0.35333  1.0000 0.7816843408
Co  Co11      1.0  0.26821  0.43089  0.85333  1.0000 0.7816843408
Co  Co12      1.0  0.73179  0.93089  0.64667  1.0000 0.7816843408
Co  Co13      1.0  0.28825  0.52725  0.33625  1.0000 0.7816843408
Co  Co14      1.0  0.71175  0.02725  0.16375  1.0000 0.7816843408
Co  Co15      1.0  0.71175  0.47275  0.66375  1.0000 0.7816843408
Co  Co16      1.0  0.28825  0.97275  0.83625  1.0000 0.7816843408
Co  Co17      1.0  0.48474  0.24426  0.20507  1.0000 0.830063762
Co  Co18      1.0  0.51526  0.74426  0.29493  1.0000 0.830063762
Co  Co19      1.0  0.51526  0.75574  0.79493  1.0000 0.830063762
Co  Co20      1.0  0.48474  0.25574  0.70507  1.0000 0.830063762
H   H1        1.0  0.98650  0.32930  0.86790  1.0000 0.1197631284
H   H2        1.0  0.01350  0.82930  0.63210  1.0000 0.1197631284
H   H3        1.0  0.01350  0.67070  0.13210  1.0000 0.1197631284
H   H4        1.0  0.98650  0.17070  0.36790  1.0000 0.1197631284
H   H5        1.0  0.89790  0.31000  0.80470  1.0000 0.1197631284
H   H6        1.0  0.10210  0.81000  0.69530  1.0000 0.1197631284
H   H7        1.0  0.10210  0.69000  0.19530  1.0000 0.1197631284
H   H8        1.0  0.89790  0.19000  0.30470  1.0000 0.1197631284
H   H9        1.0  0.71270  0.41440  0.82600  1.0000 0.1292386492
H   H10       1.0  0.28730  0.91440  0.67400  1.0000 0.1292386492
H   H11       1.0  0.28730  0.58560  0.17400  1.0000 0.1292386492
H   H12       1.0  0.71270  0.08560  0.32600  1.0000 0.1292386492
H   H13       1.0  0.79990  0.43440  0.88880  1.0000 0.1197631284
H   H14       1.0  0.20010  0.93440  0.61120  1.0000 0.1197631284
H   H15       1.0  0.20010  0.56560  0.11120  1.0000 0.1197631284
H   H16       1.0  0.79990  0.06560  0.38880  1.0000 0.1197631284
H   H17       1.0  0.92870  0.43060  0.93970  1.0000 0.1494949069
H   H18       1.0  0.07130  0.93060  0.56030  1.0000 0.1494949069
H   H19       1.0  0.07130  0.56940  0.06030  1.0000 0.1494949069
H   H20       1.0  0.92870  0.06940  0.43970  1.0000 0.1494949069
H   H21       1.0  0.00210  0.44800  0.92590  1.0000 0.1494949069
H   H22       1.0  0.99790  0.94800  0.57410  1.0000 0.1494949069
H   H23       1.0  0.99790  0.55200  0.07410  1.0000 0.1494949069
H   H24       1.0  0.00210  0.05200  0.42590  1.0000 0.1494949069
H   H25       1.0  0.76780  0.32450  0.75350  1.0000 0.1393868249
H   H26       1.0  0.23220  0.82450  0.74650  1.0000 0.1393868249
H   H27       1.0  0.23220  0.67550  0.24650  1.0000 0.1393868249
H   H28       1.0  0.76780  0.17550  0.25350  1.0000 0.1393868249
H   H29       1.0  0.71570  0.40060  0.75700  1.0000 0.1393868249
H   H30       1.0  0.28430  0.90060  0.74300  1.0000 0.1393868249
H   H31       1.0  0.28430  0.59940  0.24300  1.0000 0.1393868249
H   H32       1.0  0.71570  0.09940  0.25700  1.0000 0.1393868249
H   H33       1.0  0.02900  0.14970  0.11020  1.0000 0.1197631284
H   H34       1.0  0.97100  0.64970  0.38980  1.0000 0.1197631284
H   H35       1.0  0.97100  0.85030  0.88980  1.0000 0.1197631284
H   H36       1.0  0.02900  0.35030  0.61020  1.0000 0.1197631284
H   H37       1.0  0.13260  0.17220  0.16850  1.0000 0.1113358826
H   H38       1.0  0.86740  0.67220  0.33150  1.0000 0.1113358826
H   H39       1.0  0.86740  0.82780  0.83150  1.0000 0.1113358826
H   H40       1.0  0.13260  0.32780  0.66850  1.0000 0.1113358826
H   H41       1.0  0.28330  0.02410  0.14230  1.0000 0.1292386492
H   H42       1.0  0.71670  0.52410  0.35770  1.0000 0.1292386492
H   H43       1.0  0.71670  0.97590  0.85770  1.0000 0.1292386492
H   H44       1.0  0.28330  0.47590  0.64230  1.0000 0.1292386492
H   H45       1.0  0.18170  0.00330  0.08240  1.0000 0.1197631284
H   H46       1.0  0.81830  0.50330  0.41760  1.0000 0.1197631284
H   H47       1.0  0.81830  0.99670  0.91760  1.0000 0.1197631284
H   H48       1.0  0.18170  0.49670  0.58240  1.0000 0.1197631284
H   H49       1.0  0.03650  0.00520  0.04090  1.0000 0.1494949069
H   H50       1.0  0.96350  0.50520  0.45910  1.0000 0.1494949069
H   H51       1.0  0.96350  0.99480  0.95910  1.0000 0.1494949069
H   H52       1.0  0.03650  0.49480  0.54090  1.0000 0.1494949069
H   H53       1.0  0.97080  0.04030  0.05650  1.0000 0.1494949069
H   H54       1.0  0.02920  0.54030  0.44350  1.0000 0.1494949069
H   H55       1.0  0.02920  0.95970  0.94350  1.0000 0.1494949069
H   H56       1.0  0.97080  0.45970  0.55650  1.0000 0.1494949069
H   H57       1.0  0.25910  0.13910  0.21820  1.0000 0.1393868249
H   H58       1.0  0.74090  0.63910  0.28180  1.0000 0.1393868249
H   H59       1.0  0.74090  0.86090  0.78180  1.0000 0.1393868249
H   H60       1.0  0.25910  0.36090  0.71820  1.0000 0.1393868249
H   H61       1.0  0.30400  0.05760  0.21400  1.0000 0.1393868249
H   H62       1.0  0.69600  0.55760  0.28600  1.0000 0.1393868249
H   H63       1.0  0.69600  0.94240  0.78600  1.0000 0.1393868249
H   H64       1.0  0.30400  0.44240  0.71400  1.0000 0.1393868249
H   H65       1.0  0.24520  0.42320  0.05910  1.0000 0.1113358826
H   H66       1.0  0.75480  0.92320  0.44090  1.0000 0.1113358826
H   H67       1.0  0.75480  0.57680  0.94090  1.0000 0.1113358826
H   H68       1.0  0.24520  0.07680  0.55910  1.0000 0.1113358826
H   H69       1.0  0.38790  0.39820  0.09080  1.0000 0.1197631284
H   H70       1.0  0.61210  0.89820  0.40920  1.0000 0.1197631284
H   H71       1.0  0.61210  0.60180  0.90920  1.0000 0.1197631284
H   H72       1.0  0.38790  0.10180  0.59080  1.0000 0.1197631284
H   H73       1.0  0.43120  0.49690  0.00440  1.0000 0.1113358826
H   H74       1.0  0.56880  0.99690  0.49560  1.0000 0.1113358826
H   H75       1.0  0.56880  0.50310  0.99560  1.0000 0.1113358826
H   H76       1.0  0.43120  0.00310  0.50440  1.0000 0.1113358826
H   H77       1.0  0.29000  0.51860  0.97200  1.0000 0.1113358826
H   H78       1.0  0.71000  0.01860  0.52800  1.0000 0.1113358826
H   H79       1.0  0.71000  0.48140  0.02800  1.0000 0.1113358826
H   H80       1.0  0.29000  0.98140  0.47200  1.0000 0.1113358826
H   H81       1.0  0.12870  0.46230  0.00250  1.0000 0.1494949069
H   H82       1.0  0.87130  0.96230  0.49750  1.0000 0.1494949069
H   H83       1.0  0.87130  0.53770  0.99750  1.0000 0.1494949069
H   H84       1.0  0.12870  0.03770  0.50250  1.0000 0.1494949069
H   H85       1.0  0.14440  0.48930  0.96580  1.0000 0.1393868249
H   H86       1.0  0.85560  0.98930  0.53420  1.0000 0.1393868249
H   H87       1.0  0.85560  0.51070  0.03420  1.0000 0.1393868249
H   H88       1.0  0.14440  0.01070  0.46580  1.0000 0.1393868249
H   H89       1.0  0.54460  0.43360  0.05310  1.0000 0.1292386492
H   H90       1.0  0.45540  0.93360  0.44690  1.0000 0.1292386492
H   H91       1.0  0.45540  0.56640  0.94690  1.0000 0.1292386492
H   H92       1.0  0.54460  0.06640  0.55310  1.0000 0.1292386492
H   H93       1.0  0.52840  0.38000  0.08410  1.0000 0.1197631284
H   H94       1.0  0.47160  0.88000  0.41590  1.0000 0.1197631284
H   H95       1.0  0.47160  0.62000  0.91590  1.0000 0.1197631284
H   H96       1.0  0.52840  0.12000  0.58410  1.0000 0.1197631284
H   H97       1.0  0.89360  0.71360  0.29010  1.0000 0.1113358826
H   H98       1.0  0.10640  0.21360  0.20990  1.0000 0.1113358826
H   H99       1.0  0.10640  0.28640  0.70990  1.0000 0.1113358826
H   H100      1.0  0.89360  0.78640  0.79010  1.0000 0.1113358826
H   H101      1.0  0.02750  0.70730  0.33310  1.0000 0.1197631284
H   H102      1.0  0.97250  0.20730  0.16690  1.0000 0.1197631284
H   H103      1.0  0.97250  0.29270  0.66690  1.0000 0.1197631284
H   H104      1.0  0.02750  0.79270  0.83310  1.0000 0.1197631284
H   H105      1.0  0.10660  0.79960  0.25790  1.0000 0.1197631284
H   H106      1.0  0.89340  0.29960  0.24210  1.0000 0.1197631284
H   H107      1.0  0.89340  0.20040  0.74210  1.0000 0.1197631284
H   H108      1.0  0.10660  0.70040  0.75790  1.0000 0.1197631284
H   H109      1.0  0.97170  0.80610  0.21450  1.0000 0.1113358826
H   H110      1.0  0.02830  0.30610  0.28550  1.0000 0.1113358826
H   H111      1.0  0.02830  0.19390  0.78550  1.0000 0.1113358826
H   H112      1.0  0.97170  0.69390  0.71450  1.0000 0.1113358826
H   H113      1.0  0.79040  0.76810  0.23280  1.0000 0.1292386492
H   H114      1.0  0.20960  0.26810  0.26720  1.0000 0.1292386492
H   H115      1.0  0.20960  0.23190  0.76720  1.0000 0.1292386492
H   H116      1.0  0.79040  0.73190  0.73280  1.0000 0.1292386492
H   H117      1.0  0.81990  0.81210  0.20320  1.0000 0.1292386492
H   H118      1.0  0.18010  0.31210  0.29680  1.0000 0.1292386492
H   H119      1.0  0.18010  0.18790  0.79680  1.0000 0.1292386492
H   H120      1.0  0.81990  0.68790  0.70320  1.0000 0.1292386492
H   H121      1.0  0.20590  0.78670  0.32270  1.0000 0.1393868249
H   H122      1.0  0.79410  0.28670  0.17730  1.0000 0.1393868249
H   H123      1.0  0.79410  0.21330  0.67730  1.0000 0.1393868249
H   H124      1.0  0.20590  0.71330  0.82270  1.0000 0.1393868249
H   H125      1.0  0.17410  0.76040  0.35480  1.0000 0.1292386492
H   H126      1.0  0.82590  0.26040  0.14520  1.0000 0.1292386492
H   H127      1.0  0.82590  0.23960  0.64520  1.0000 0.1292386492
H   H128      1.0  0.17410  0.73960  0.85480  1.0000 0.1292386492
H   H129      1.0  0.22970  0.97270  0.02710  1.0000 0.1292386492
H   H130      1.0  0.77030  0.47270  0.47290  1.0000 0.1292386492
H   H131      1.0  0.77030  0.02730  0.97290  1.0000 0.1292386492
H   H132      1.0  0.22970  0.52730  0.52710  1.0000 0.1292386492
H   H133      1.0  0.33740  0.90990  0.07640  1.0000 0.1197631284
H   H134      1.0  0.66260  0.40990  0.42360  1.0000 0.1197631284
H   H135      1.0  0.66260  0.09010  0.92360  1.0000 0.1197631284
H   H136      1.0  0.33740  0.59010  0.57640  1.0000 0.1197631284
H   H137      1.0  0.49160  0.95770  0.02570  1.0000 0.1197631284
H   H138      1.0  0.50840  0.45770  0.47430  1.0000 0.1197631284
H   H139      1.0  0.50840  0.04230  0.97430  1.0000 0.1197631284
H   H140      1.0  0.49160  0.54230  0.52570  1.0000 0.1197631284
H   H141      1.0  0.38560  0.01510  0.97490  1.0000 0.1197631284
H   H142      1.0  0.61440  0.51510  0.52510  1.0000 0.1197631284
H   H143      1.0  0.61440  0.98490  0.02510  1.0000 0.1197631284
H   H144      1.0  0.38560  0.48490  0.47490  1.0000 0.1197631284
H   H145      1.0  0.18320  0.99320  0.95010  1.0000 0.1393868249
H   H146      1.0  0.81680  0.49320  0.54990  1.0000 0.1393868249
H   H147      1.0  0.81680  0.00680  0.04990  1.0000 0.1393868249
H   H148      1.0  0.18320  0.50680  0.45010  1.0000 0.1393868249
H   H149      1.0  0.24560  0.05320  0.94210  1.0000 0.1393868249
H   H150      1.0  0.75440  0.55320  0.55790  1.0000 0.1393868249
H   H151      1.0  0.75440  0.94680  0.05790  1.0000 0.1393868249
H   H152      1.0  0.24560  0.44680  0.44210  1.0000 0.1393868249
H   H153      1.0  0.47700  0.84060  0.09850  1.0000 0.1292386492
H   H154      1.0  0.52300  0.34060  0.40150  1.0000 0.1292386492
H   H155      1.0  0.52300  0.15940  0.90150  1.0000 0.1292386492
H   H156      1.0  0.47700  0.65940  0.59850  1.0000 0.1292386492
H   H157      1.0  0.53640  0.85930  0.07660  1.0000 0.1197631284
H   H158      1.0  0.46360  0.35930  0.42340  1.0000 0.1197631284
H   H159      1.0  0.46360  0.14070  0.92340  1.0000 0.1197631284
H   H160      1.0  0.53640  0.64070  0.57660  1.0000 0.1197631284
H   H161      1.0  0.00340  0.37470  0.08920  1.0000 0.1494949069
H   H162      1.0  0.99660  0.87470  0.41080  1.0000 0.1494949069
H   H163      1.0  0.99660  0.62530  0.91080  1.0000 0.1494949069
H   H164      1.0  0.00340  0.12530  0.58920  1.0000 0.1494949069
H   H165      1.0  0.05690  0.45440  0.19670  1.0000 0.1393868249
H   H166      1.0  0.94310  0.95440  0.30330  1.0000 0.1393868249
H   H167      1.0  0.94310  0.54560  0.80330  1.0000 0.1393868249
H   H168      1.0  0.05690  0.04560  0.69670  1.0000 0.1393868249
H   H169      1.0  0.24050  0.36020  0.16690  1.0000 0.1494949069
H   H170      1.0  0.75950  0.86020  0.33310  1.0000 0.1494949069
H   H171      1.0  0.75950  0.63980  0.83310  1.0000 0.1494949069
H   H172      1.0  0.24050  0.13980  0.66690  1.0000 0.1494949069
H   H173      1.0  0.05540  0.34400  0.04500  1.0000 0.1292386492
H   H174      1.0  0.94460  0.84400  0.45500  1.0000 0.1292386492
H   H175      1.0  0.94460  0.65600  0.95500  1.0000 0.1292386492
H   H176      1.0  0.05540  0.15600  0.54500  1.0000 0.1292386492
H   H177      1.0  0.26760  0.27250  0.12760  1.0000 0.1393868249
H   H178      1.0  0.73240  0.77250  0.37240  1.0000 0.1393868249
H   H179      1.0  0.73240  0.72750  0.87240  1.0000 0.1393868249
H   H180      1.0  0.26760  0.22750  0.62760  1.0000 0.1393868249
H   H181      1.0  0.26090  0.21500  0.06650  1.0000 0.1197631284
H   H182      1.0  0.73910  0.71500  0.43350  1.0000 0.1197631284
H   H183      1.0  0.73910  0.78500  0.93350  1.0000 0.1197631284
H   H184      1.0  0.26090  0.28500  0.56650  1.0000 0.1197631284
H   H185      1.0  0.93240  0.53280  0.16650  1.0000 0.1197631284
H   H186      1.0  0.06760  0.03280  0.33350  1.0000 0.1197631284
H   H187      1.0  0.06760  0.46720  0.83350  1.0000 0.1197631284
H   H188      1.0  0.93240  0.96720  0.66650  1.0000 0.1197631284
H   H189      1.0  0.86530  0.35530  0.08860  1.0000 0.1393868249
H   H190      1.0  0.13470  0.85530  0.41140  1.0000 0.1393868249
H   H191      1.0  0.13470  0.64470  0.91140  1.0000 0.1393868249
H   H192      1.0  0.86530  0.14470  0.58860  1.0000 0.1393868249
H   H193      1.0  0.74070  0.42080  0.09070  1.0000 0.1292386492
H   H194      1.0  0.25930  0.92080  0.40930  1.0000 0.1292386492
H   H195      1.0  0.25930  0.57920  0.90930  1.0000 0.1292386492
H   H196      1.0  0.74070  0.07920  0.59070  1.0000 0.1292386492
H   H197      1.0  0.15580  0.48860  0.25200  1.0000 0.1197631284
H   H198      1.0  0.84420  0.98860  0.24800  1.0000 0.1197631284
H   H199      1.0  0.84420  0.51140  0.74800  1.0000 0.1197631284
H   H200      1.0  0.15580  0.01140  0.75200  1.0000 0.1197631284
H   H201      1.0  0.32590  0.35920  0.22820  1.0000 0.1393868249
H   H202      1.0  0.67410  0.85920  0.27180  1.0000 0.1393868249
H   H203      1.0  0.67410  0.64080  0.77180  1.0000 0.1393868249
H   H204      1.0  0.32590  0.14080  0.72820  1.0000 0.1393868249
H   H205      1.0  0.38640  0.40430  0.29510  1.0000 0.1494949069
H   H206      1.0  0.61360  0.90430  0.20490  1.0000 0.1494949069
H   H207      1.0  0.61360  0.59570  0.70490  1.0000 0.1494949069
H   H208      1.0  0.38640  0.09570  0.79510  1.0000 0.1494949069
H   H209      1.0  0.53570  0.27610  0.97150  1.0000 0.1494949069
H   H210      1.0  0.46430  0.77610  0.52850  1.0000 0.1494949069
H   H211      1.0  0.46430  0.72390  0.02850  1.0000 0.1494949069
H   H212      1.0  0.53570  0.22390  0.47150  1.0000 0.1494949069
H   H213      1.0  0.37380  0.24520  0.02380  1.0000 0.1393868249
H   H214      1.0  0.62620  0.74520  0.47620  1.0000 0.1393868249
H   H215      1.0  0.62620  0.75480  0.97620  1.0000 0.1393868249
H   H216      1.0  0.37380  0.25480  0.52380  1.0000 0.1393868249
H   H217      1.0  0.61960  0.19860  0.08150  1.0000 0.159557361
H   H218      1.0  0.38040  0.69860  0.41850  1.0000 0.159557361
H   H219      1.0  0.38040  0.80140  0.91850  1.0000 0.159557361
H   H220      1.0  0.61960  0.30140  0.58150  1.0000 0.159557361
H   H221      1.0  0.67480  0.28110  0.97910  1.0000 0.1197631284
H   H222      1.0  0.32520  0.78110  0.52090  1.0000 0.1197631284
H   H223      1.0  0.32520  0.71890  0.02090  1.0000 0.1197631284
H   H224      1.0  0.67480  0.21890  0.47910  1.0000 0.1197631284
H   H225      1.0  0.74020  0.16790  0.07910  1.0000 0.1393868249
H   H226      1.0  0.25980  0.66790  0.42090  1.0000 0.1393868249
H   H227      1.0  0.25980  0.83210  0.92090  1.0000 0.1393868249
H   H228      1.0  0.74020  0.33210  0.57910  1.0000 0.1393868249
H   H229      1.0  0.85950  0.17530  0.06120  1.0000 0.1292386492
H   H230      1.0  0.14050  0.67530  0.43880  1.0000 0.1292386492
H   H231      1.0  0.14050  0.82470  0.93880  1.0000 0.1292386492
H   H232      1.0  0.85950  0.32470  0.56120  1.0000 0.1292386492
H   H233      1.0  0.42720  0.34580  0.92500  1.0000 0.1197631284
H   H234      1.0  0.57280  0.84580  0.57500  1.0000 0.1197631284
H   H235      1.0  0.57280  0.65420  0.07500  1.0000 0.1197631284
H   H236      1.0  0.42720  0.15420  0.42500  1.0000 0.1197631284
H   H237      1.0  0.26730  0.26140  0.96870  1.0000 0.1393868249
H   H238      1.0  0.73270  0.76140  0.53130  1.0000 0.1393868249
H   H239      1.0  0.73270  0.73860  0.03130  1.0000 0.1393868249
H   H240      1.0  0.26730  0.23860  0.46870  1.0000 0.1393868249
H   H241      1.0  0.19030  0.33350  0.90910  1.0000 0.1292386492
H   H242      1.0  0.80970  0.83350  0.59090  1.0000 0.1292386492
H   H243      1.0  0.80970  0.66650  0.09090  1.0000 0.1292386492
H   H244      1.0  0.19030  0.16650  0.40910  1.0000 0.1292386492
H   H245      1.0  0.55010  0.27770  0.13280  1.0000 0.1197631284
H   H246      1.0  0.44990  0.77770  0.36720  1.0000 0.1197631284
H   H247      1.0  0.44990  0.72230  0.86720  1.0000 0.1197631284
H   H248      1.0  0.55010  0.22230  0.63280  1.0000 0.1197631284
H   H249      1.0  0.38090  0.11620  0.07080  1.0000 0.1393868249
H   H250      1.0  0.61910  0.61620  0.42920  1.0000 0.1393868249
H   H251      1.0  0.61910  0.88380  0.92920  1.0000 0.1393868249
H   H252      1.0  0.38090  0.38380  0.57080  1.0000 0.1393868249
H   H253      1.0  0.37420  0.12670  0.13380  1.0000 0.1197631284
H   H254      1.0  0.62580  0.62670  0.36620  1.0000 0.1197631284
H   H255      1.0  0.62580  0.87330  0.86620  1.0000 0.1197631284
H   H256      1.0  0.37420  0.37330  0.63380  1.0000 0.1197631284
H   H257      1.0  0.95400  0.45410  0.28450  1.0000 0.1393868249
H   H258      1.0  0.04600  0.95410  0.21550  1.0000 0.1393868249
H   H259      1.0  0.04600  0.54590  0.71550  1.0000 0.1393868249
H   H260      1.0  0.95400  0.04590  0.78450  1.0000 0.1393868249
H   H261      1.0  0.99490  0.36280  0.38960  1.0000 0.159557361
H   H262      1.0  0.00510  0.86280  0.11040  1.0000 0.159557361
H   H263      1.0  0.00510  0.63720  0.61040  1.0000 0.159557361
H   H264      1.0  0.99490  0.13720  0.88960  1.0000 0.159557361
H   H265      1.0  0.75970  0.38630  0.31130  1.0000 0.1393868249
H   H266      1.0  0.24030  0.88630  0.18870  1.0000 0.1393868249
H   H267      1.0  0.24030  0.61370  0.68870  1.0000 0.1393868249
H   H268      1.0  0.75970  0.11370  0.81130  1.0000 0.1393868249
H   H269      1.0  0.85840  0.52290  0.23480  1.0000 0.1113358826
H   H270      1.0  0.14160  0.02290  0.26520  1.0000 0.1113358826
H   H271      1.0  0.14160  0.47710  0.76520  1.0000 0.1113358826
H   H272      1.0  0.85840  0.97710  0.73480  1.0000 0.1113358826
H   H273      1.0  0.68310  0.38050  0.24590  1.0000 0.1393868249
H   H274      1.0  0.31690  0.88050  0.25410  1.0000 0.1393868249
H   H275      1.0  0.31690  0.61950  0.75410  1.0000 0.1393868249
H   H276      1.0  0.68310  0.11950  0.74590  1.0000 0.1393868249
H   H277      1.0  0.63210  0.44040  0.18140  1.0000 0.1292386492
H   H278      1.0  0.36790  0.94040  0.31860  1.0000 0.1292386492
H   H279      1.0  0.36790  0.55960  0.81860  1.0000 0.1292386492
H   H280      1.0  0.63210  0.05960  0.68140  1.0000 0.1292386492
H   H281      1.0  0.09070  0.52050  0.32280  1.0000 0.1197631284
H   H282      1.0  0.90930  0.02050  0.17720  1.0000 0.1197631284
H   H283      1.0  0.90930  0.47950  0.67720  1.0000 0.1197631284
H   H284      1.0  0.09070  0.97950  0.82280  1.0000 0.1197631284
H   H285      1.0  0.12740  0.31000  0.38040  1.0000 0.1393868249
H   H286      1.0  0.87260  0.81000  0.11960  1.0000 0.1393868249
H   H287      1.0  0.87260  0.69000  0.61960  1.0000 0.1393868249
H   H288      1.0  0.12740  0.19000  0.88040  1.0000 0.1393868249
H   H289      1.0  0.26130  0.35740  0.37960  1.0000 0.1393868249
H   H290      1.0  0.73870  0.85740  0.12040  1.0000 0.1393868249
H   H291      1.0  0.73870  0.64260  0.62040  1.0000 0.1393868249
H   H292      1.0  0.26130  0.14260  0.87960  1.0000 0.1393868249
H   H293      1.0  0.93800  0.34590  0.43280  1.0000 0.1197631284
H   H294      1.0  0.06200  0.84590  0.06720  1.0000 0.1197631284
H   H295      1.0  0.06200  0.65410  0.56720  1.0000 0.1197631284
H   H296      1.0  0.93800  0.15410  0.93280  1.0000 0.1197631284
H   H297      1.0  0.72000  0.29990  0.34930  1.0000 0.1393868249
H   H298      1.0  0.28000  0.79990  0.15070  1.0000 0.1494949069
H   H299      1.0  0.28000  0.70010  0.65070  1.0000 0.1494949069
H   H300      1.0  0.72000  0.20010  0.84930  1.0000 0.1393868249
H   H301      1.0  0.71520  0.25340  0.41000  1.0000 0.1292386492
H   H302      1.0  0.28480  0.75340  0.09000  1.0000 0.1292386492
H   H303      1.0  0.28480  0.74660  0.59000  1.0000 0.1292386492
H   H304      1.0  0.71520  0.24660  0.91000  1.0000 0.1292386492
C   C1        1.0  0.90385  0.38660  0.88545  1.0000 0.1393868249
C   C2        1.0  0.09615  0.88660  0.61455  1.0000 0.1393868249
C   C3        1.0  0.09615  0.61340  0.11455  1.0000 0.1393868249
C   C4        1.0  0.90385  0.11340  0.38545  1.0000 0.1393868249
C   C5        1.0  0.93120  0.34740  0.85970  1.0000 -0.1681624758
C   C6        1.0  0.06880  0.84740  0.64030  1.0000 -0.1681624758
C   C7        1.0  0.06880  0.65260  0.14030  1.0000 -0.1681624758
C   C8        1.0  0.93120  0.15260  0.35970  1.0000 -0.1681624758
C   C9        1.0  0.87750  0.33470  0.82170  1.0000 -0.1602888982
C   C10       1.0  0.12250  0.83470  0.67830  1.0000 -0.1681624758
C   C11       1.0  0.12250  0.66530  0.17830  1.0000 -0.1681624758
C   C12       1.0  0.87750  0.16530  0.32170  1.0000 -0.1681624758
C   C13       1.0  0.79500  0.35790  0.80900  1.0000 0.1292386492
C   C14       1.0  0.20500  0.85790  0.69100  1.0000 0.1292386492
C   C15       1.0  0.20500  0.64210  0.19100  1.0000 0.1292386492
C   C16       1.0  0.79500  0.14210  0.30900  1.0000 0.1292386492
C   C17       1.0  0.76820  0.39640  0.83440  1.0000 -0.1406962463
C   C18       1.0  0.23180  0.89640  0.66560  1.0000 -0.1406962463
C   C19       1.0  0.23180  0.60360  0.16560  1.0000 -0.1406962463
C   C20       1.0  0.76820  0.10360  0.33440  1.0000 -0.1406962463
C   C21       1.0  0.82100  0.40950  0.87210  1.0000 -0.1602888982
C   C22       1.0  0.17900  0.90950  0.62790  1.0000 -0.1602888982
C   C23       1.0  0.17900  0.59050  0.12790  1.0000 -0.1602888982
C   C24       1.0  0.82100  0.09050  0.37210  1.0000 -0.1602888982
C   C25       1.0  0.96197  0.40660  0.92657  1.0000 -0.4080483598
C   C26       1.0  0.03803  0.90660  0.57343  1.0000 -0.4080483598
C   C27       1.0  0.03803  0.59340  0.07343  1.0000 -0.4080483598
C   C28       1.0  0.96197  0.09340  0.42657  1.0000 -0.4080483598
C   C29       1.0  0.00953  0.33470  0.94953  1.0000 0.6209011567
C   C30       1.0  0.99047  0.83470  0.55047  1.0000 0.6209011567
C   C31       1.0  0.99047  0.66530  0.05047  1.0000 0.6209011567
C   C32       1.0  0.00953  0.16530  0.44953  1.0000 0.6209011567
C   C33       1.0  0.73570  0.34660  0.76760  1.0000 -0.3996419442
C   C34       1.0  0.26430  0.84660  0.73240  1.0000 -0.3996419442
C   C35       1.0  0.26430  0.65340  0.23240  1.0000 -0.3996419442
C   C36       1.0  0.73570  0.15340  0.26760  1.0000 -0.3996419442
C   C37       1.0  0.66064  0.29240  0.75984  1.0000 0.6372677775
C   C38       1.0  0.33936  0.79240  0.74016  1.0000 0.6372677775
C   C39       1.0  0.33936  0.70760  0.24016  1.0000 0.6372677775
C   C40       1.0  0.66064  0.20760  0.25984  1.0000 0.6372677775
C   C41       1.0  0.09141  0.07030  0.09051  1.0000 0.1393868249
C   C42       1.0  0.90859  0.57030  0.40949  1.0000 0.1393868249
C   C43       1.0  0.90859  0.92970  0.90949  1.0000 0.1393868249
C   C44       1.0  0.09141  0.42970  0.59051  1.0000 0.1393868249
C   C45       1.0  0.08020  0.12260  0.11650  1.0000 -0.1508804207
C   C46       1.0  0.91980  0.62260  0.38350  1.0000 -0.1508804207
C   C47       1.0  0.91980  0.87740  0.88350  1.0000 -0.1508804207
C   C48       1.0  0.08020  0.37740  0.61650  1.0000 -0.1508804207
C   C49       1.0  0.14240  0.13590  0.15160  1.0000 -0.1602888982
C   C50       1.0  0.85760  0.63590  0.34840  1.0000 -0.1602888982
C   C51       1.0  0.85760  0.86410  0.84840  1.0000 -0.1602888982
C   C52       1.0  0.14240  0.36410  0.65160  1.0000 -0.1602888982
C   C53       1.0  0.21750  0.09840  0.16240  1.0000 0.1292386492
C   C54       1.0  0.78250  0.59840  0.33760  1.0000 0.1292386492
C   C55       1.0  0.78250  0.90160  0.83760  1.0000 0.1292386492
C   C56       1.0  0.21750  0.40160  0.66240  1.0000 0.1292386492
C   C57       1.0  0.23110  0.04920  0.13590  1.0000 -0.1602888982
C   C58       1.0  0.76890  0.54920  0.36410  1.0000 -0.1602888982
C   C59       1.0  0.76890  0.95080  0.86410  1.0000 -0.1602888982
C   C60       1.0  0.23110  0.45080  0.63590  1.0000 -0.1602888982
C   C61       1.0  0.17000  0.03570  0.10010  1.0000 -0.1602888982
C   C62       1.0  0.83000  0.53570  0.39990  1.0000 -0.1602888982
C   C63       1.0  0.83000  0.96430  0.89990  1.0000 -0.1602888982
C   C64       1.0  0.17000  0.46430  0.60010  1.0000 -0.1602888982
C   C65       1.0  0.02175  0.05320  0.05235  1.0000 -0.3996419442
C   C66       1.0  0.97825  0.55320  0.44765  1.0000 -0.3996419442
C   C67       1.0  0.97825  0.94680  0.94765  1.0000 -0.3996419442
C   C68       1.0  0.02175  0.44680  0.55235  1.0000 -0.3996419442
C   C69       1.0  0.00453  0.12480  0.02473  1.0000 0.6475030872
C   C70       1.0  0.99547  0.62480  0.47527  1.0000 0.6475030872
C   C71       1.0  0.99547  0.87520  0.97527  1.0000 0.6475030872
C   C72       1.0  0.00453  0.37520  0.52473  1.0000 0.6475030872
C   C73       1.0  0.28430  0.11110  0.20250  1.0000 -0.3818708775
C   C74       1.0  0.71570  0.61110  0.29750  1.0000 -0.390269923
C   C75       1.0  0.71570  0.88890  0.79750  1.0000 -0.390269923
C   C76       1.0  0.28430  0.38890  0.70250  1.0000 -0.3818708775
C   C77       1.0  0.35897  0.16120  0.20237  1.0000 0.6091443988
C   C78       1.0  0.64103  0.66120  0.29763  1.0000 0.6091443988
C   C79       1.0  0.64103  0.83880  0.79763  1.0000 0.6091443988
C   C80       1.0  0.35897  0.33880  0.70237  1.0000 0.6091443988
C   C81       1.0  0.25400  0.47610  0.01300  1.0000 0.1494949069
C   C82       1.0  0.74600  0.97610  0.48700  1.0000 0.1494949069
C   C83       1.0  0.74600  0.52390  0.98700  1.0000 0.1494949069
C   C84       1.0  0.25400  0.02390  0.51300  1.0000 0.1494949069
C   C85       1.0  0.28260  0.43860  0.04790  1.0000 -0.1406962463
C   C86       1.0  0.71740  0.93860  0.45210  1.0000 -0.1406962463
C   C87       1.0  0.71740  0.56140  0.95210  1.0000 -0.1406962463
C   C88       1.0  0.28260  0.06140  0.54790  1.0000 -0.1406962463
C   C89       1.0  0.36840  0.42310  0.06670  1.0000 -0.1508804207
C   C90       1.0  0.63160  0.92310  0.43330  1.0000 -0.1508804207
C   C91       1.0  0.63160  0.57690  0.93330  1.0000 -0.1508804207
C   C92       1.0  0.36840  0.07690  0.56670  1.0000 -0.1508804207
C   C93       1.0  0.42450  0.44380  0.05040  1.0000 0.1393868249
C   C94       1.0  0.57550  0.94380  0.44960  1.0000 0.1393868249
C   C95       1.0  0.57550  0.55620  0.94960  1.0000 0.1393868249
C   C96       1.0  0.42450  0.05620  0.55040  1.0000 0.1393868249
C   C97       1.0  0.39400  0.48080  0.01570  1.0000 -0.1602888982
C   C98       1.0  0.60600  0.98080  0.48430  1.0000 -0.1602888982
C   C99       1.0  0.60600  0.51920  0.98430  1.0000 -0.1602888982
C   C100      1.0  0.39400  0.01920  0.51570  1.0000 -0.1602888982
C   C101      1.0  0.30940  0.49540  0.99640  1.0000 -0.1508804207
C   C102      1.0  0.69060  0.99540  0.50360  1.0000 -0.1508804207
C   C103      1.0  0.69060  0.50460  0.00360  1.0000 -0.1508804207
C   C104      1.0  0.30940  0.00460  0.49640  1.0000 -0.1508804207
C   C105      1.0  0.16190  0.49830  0.99320  1.0000 -0.390269923
C   C106      1.0  0.83810  0.99830  0.50680  1.0000 -0.390269923
C   C107      1.0  0.83810  0.50170  0.00680  1.0000 -0.390269923
C   C108      1.0  0.16190  0.00170  0.49320  1.0000 -0.390269923
C   C109      1.0  0.14541  0.58700  0.00041  1.0000 0.6091443988
C   C110      1.0  0.85459  0.08700  0.49959  1.0000 0.6091443988
C   C111      1.0  0.85459  0.41300  0.99959  1.0000 0.6091443988
C   C112      1.0  0.14541  0.91300  0.50041  1.0000 0.6091443988
C   C113      1.0  0.51820  0.43360  0.07170  1.0000 -0.3996419442
C   C114      1.0  0.48180  0.93360  0.42830  1.0000 -0.3996419442
C   C115      1.0  0.48180  0.56640  0.92830  1.0000 -0.3996419442
C   C116      1.0  0.51820  0.06640  0.57170  1.0000 -0.3996419442
C   C117      1.0  0.56090  0.49800  0.10170  1.0000 0.6209011567
C   C118      1.0  0.43910  0.99800  0.39830  1.0000 0.6209011567
C   C119      1.0  0.43910  0.50200  0.89830  1.0000 0.6209011567
C   C120      1.0  0.56090  0.00200  0.60170  1.0000 0.6209011567
C   C121      1.0  0.91580  0.76170  0.24740  1.0000 0.1393868249
C   C122      1.0  0.08420  0.26170  0.25260  1.0000 0.1393868249
C   C123      1.0  0.08420  0.23830  0.75260  1.0000 0.1393868249
C   C124      1.0  0.91580  0.73830  0.74740  1.0000 0.1393868249
C   C125      1.0  0.93640  0.73250  0.28280  1.0000 -0.1768914444
C   C126      1.0  0.06360  0.23250  0.21720  1.0000 -0.1768914444
C   C127      1.0  0.06360  0.26750  0.71720  1.0000 -0.1768914444
C   C128      1.0  0.93640  0.76750  0.78280  1.0000 -0.1768914444
C   C129      1.0  0.01730  0.72900  0.30880  1.0000 -0.1602888982
C   C130      1.0  0.98270  0.22900  0.19120  1.0000 -0.1602888982
C   C131      1.0  0.98270  0.27100  0.69120  1.0000 -0.1602888982
C   C132      1.0  0.01730  0.77100  0.80880  1.0000 -0.1602888982
C   C133      1.0  0.08170  0.75520  0.30120  1.0000 0.1393868249
C   C134      1.0  0.91830  0.25520  0.19880  1.0000 0.1393868249
C   C135      1.0  0.91830  0.24480  0.69880  1.0000 0.1292386492
C   C136      1.0  0.08170  0.74480  0.80120  1.0000 0.1292386492
C   C137      1.0  0.06320  0.78270  0.26520  1.0000 -0.1681624758
C   C138      1.0  0.93680  0.28270  0.23480  1.0000 -0.1681624758
C   C139      1.0  0.93680  0.21730  0.73480  1.0000 -0.1681624758
C   C140      1.0  0.06320  0.71730  0.76520  1.0000 -0.1681624758
C   C141      1.0  0.98190  0.78610  0.23910  1.0000 -0.1768914444
C   C142      1.0  0.01810  0.28610  0.26090  1.0000 -0.1768914444
C   C143      1.0  0.01810  0.21390  0.76090  1.0000 -0.1768914444
C   C144      1.0  0.98190  0.71390  0.73910  1.0000 -0.1768914444
C   C145      1.0  0.82730  0.76290  0.21890  1.0000 -0.3818708775
C   C146      1.0  0.17270  0.26290  0.28110  1.0000 -0.3818708775
C   C147      1.0  0.17270  0.23710  0.78110  1.0000 -0.3818708775
C   C148      1.0  0.82730  0.73710  0.71890  1.0000 -0.3818708775
C   C149      1.0  0.79850  0.68970  0.19230  1.0000 0.6091443988
C   C150      1.0  0.20150  0.18970  0.30770  1.0000 0.6091443988
C   C151      1.0  0.20150  0.31030  0.80770  1.0000 0.6091443988
C   C152      1.0  0.79850  0.81030  0.69230  1.0000 0.6091443988
C   C153      1.0  0.17160  0.74670  0.32930  1.0000 -0.390269923
C   C154      1.0  0.82840  0.24670  0.17070  1.0000 -0.390269923
C   C155      1.0  0.82840  0.25330  0.67070  1.0000 -0.390269923
C   C156      1.0  0.17160  0.75330  0.82930  1.0000 -0.390269923
C   C157      1.0  0.20990  0.66200  0.33080  1.0000 0.6045365575
C   C158      1.0  0.79010  0.16200  0.16920  1.0000 0.6045365575
C   C159      1.0  0.79010  0.33800  0.66920  1.0000 0.6045365575
C   C160      1.0  0.20990  0.83800  0.83080  1.0000 0.6045365575
C   C161      1.0  0.29595  0.00080  0.99525  1.0000 0.1393868249
C   C162      1.0  0.70405  0.50080  0.50475  1.0000 0.1393868249
C   C163      1.0  0.70405  0.99920  0.00475  1.0000 0.1393868249
C   C164      1.0  0.29595  0.49920  0.49525  1.0000 0.1393868249
C   C165      1.0  0.28280  0.96910  0.02610  1.0000 -0.1508804207
C   C166      1.0  0.71720  0.46910  0.47390  1.0000 -0.1508804207
C   C167      1.0  0.71720  0.03090  0.97390  1.0000 -0.1508804207
C   C168      1.0  0.28280  0.53090  0.52610  1.0000 -0.1508804207
C   C169      1.0  0.34770  0.93170  0.05580  1.0000 -0.1602888982
C   C170      1.0  0.65230  0.43170  0.44420  1.0000 -0.1602888982
C   C171      1.0  0.65230  0.06830  0.94420  1.0000 -0.1602888982
C   C172      1.0  0.34770  0.56830  0.55580  1.0000 -0.1602888982
C   C173      1.0  0.42680  0.92620  0.05560  1.0000 0.1197631284
C   C174      1.0  0.57320  0.42620  0.44440  1.0000 0.1197631284
C   C175      1.0  0.57320  0.07380  0.94440  1.0000 0.1197631284
C   C176      1.0  0.42680  0.57380  0.55560  1.0000 0.1197631284
C   C177      1.0  0.43780  0.95890  0.02600  1.0000 -0.1602888982
C   C178      1.0  0.56220  0.45890  0.47400  1.0000 -0.1602888982
C   C179      1.0  0.56220  0.04110  0.97400  1.0000 -0.1602888982
C   C180      1.0  0.43780  0.54110  0.52600  1.0000 -0.1602888982
C   C181      1.0  0.37440  0.99480  0.99560  1.0000 -0.1681624758
C   C182      1.0  0.62560  0.49480  0.50440  1.0000 -0.1681624758
C   C183      1.0  0.62560  0.00520  0.00440  1.0000 -0.1681624758
C   C184      1.0  0.37440  0.50520  0.49560  1.0000 -0.1681624758
C   C185      1.0  0.22370  0.03690  0.96130  1.0000 -0.3996419442
C   C186      1.0  0.77630  0.53690  0.53870  1.0000 -0.3996419442
C   C187      1.0  0.77630  0.96310  0.03870  1.0000 -0.3996419442
C   C188      1.0  0.22370  0.46310  0.46130  1.0000 -0.3996419442
C   C189      1.0  0.17769  0.10870  0.96849  1.0000 0.6091443988
C   C190      1.0  0.82231  0.60870  0.53151  1.0000 0.6091443988
C   C191      1.0  0.82231  0.89130  0.03151  1.0000 0.6091443988
C   C192      1.0  0.17769  0.39130  0.46849  1.0000 0.6091443988
C   C193      1.0  0.49910  0.88430  0.08740  1.0000 -0.3818708775
C   C194      1.0  0.50090  0.38430  0.41260  1.0000 -0.3818708775
C   C195      1.0  0.50090  0.11570  0.91260  1.0000 -0.3818708775
C   C196      1.0  0.49910  0.61570  0.58740  1.0000 -0.3818708775
C   C197      1.0  0.54940  0.94410  0.11910  1.0000 0.6209011567
C   C198      1.0  0.45060  0.44410  0.38090  1.0000 0.6209011567
C   C199      1.0  0.45060  0.05590  0.88090  1.0000 0.6209011567
C   C200      1.0  0.54940  0.55590  0.61910  1.0000 0.6209011567
C   C201      1.0  0.12577  0.36190  0.12387  1.0000 0.2000995147
C   C202      1.0  0.87423  0.86190  0.37613  1.0000 0.2000995147
C   C203      1.0  0.87423  0.63810  0.87613  1.0000 0.2000995147
C   C204      1.0  0.12577  0.13810  0.62387  1.0000 0.2000995147
C   C205      1.0  0.04267  0.38380  0.11397  1.0000 -0.2712932119
C   C206      1.0  0.95733  0.88380  0.38603  1.0000 -0.2712932119
C   C207      1.0  0.95733  0.61620  0.88603  1.0000 -0.2712932119
C   C208      1.0  0.04267  0.11620  0.61397  1.0000 -0.2712932119
C   C209      1.0  0.01915  0.41940  0.14135  1.0000 0.191641027
C   C210      1.0  0.98085  0.91940  0.35865  1.0000 0.191641027
C   C211      1.0  0.98085  0.58060  0.85865  1.0000 0.191641027
C   C212      1.0  0.01915  0.08060  0.64135  1.0000 0.191641027
C   C213      1.0  0.07473  0.43220  0.17833  1.0000 -0.2712932119
C   C214      1.0  0.92527  0.93220  0.32167  1.0000 -0.2712932119
C   C215      1.0  0.92527  0.56780  0.82167  1.0000 -0.2712932119
C   C216      1.0  0.07473  0.06780  0.67833  1.0000 -0.2712932119
C   C217      1.0  0.15818  0.41120  0.18768  1.0000 0.2117294761
C   C218      1.0  0.84182  0.91120  0.31232  1.0000 0.2117294761
C   C219      1.0  0.84182  0.58880  0.81232  1.0000 0.2117294761
C   C220      1.0  0.15818  0.08880  0.68768  1.0000 0.2117294761
C   C221      1.0  0.18453  0.37500  0.16043  1.0000 -0.2591115045
C   C222      1.0  0.81547  0.87500  0.33957  1.0000 -0.2591115045
C   C223      1.0  0.81547  0.62500  0.83957  1.0000 -0.2591115045
C   C224      1.0  0.18453  0.12500  0.66043  1.0000 -0.2591115045
C   C225      1.0  0.10720  0.31880  0.05780  1.0000 0.1113358826
C   C226      1.0  0.89280  0.81880  0.44220  1.0000 0.1113358826
C   C227      1.0  0.89280  0.68120  0.94220  1.0000 0.1113358826
C   C228      1.0  0.10720  0.18120  0.55780  1.0000 0.1113358826
C   C229      1.0  0.22413  0.27960  0.10383  1.0000 -0.0924670697
C   C230      1.0  0.77587  0.77960  0.39617  1.0000 -0.0924670697
C   C231      1.0  0.77587  0.72040  0.89617  1.0000 -0.0924670697
C   C232      1.0  0.22413  0.22040  0.60383  1.0000 -0.0924670697
C   C233      1.0  0.22027  0.24850  0.06987  1.0000 -0.0305609603
C   C234      1.0  0.77973  0.74850  0.43013  1.0000 -0.0305609603
C   C235      1.0  0.77973  0.75150  0.93013  1.0000 -0.0305609603
C   C236      1.0  0.22027  0.25150  0.56987  1.0000 -0.0305609603
C   C237      1.0  0.89988  0.49730  0.14708  1.0000 0.1021689574
C   C238      1.0  0.10012  0.99730  0.35292  1.0000 0.1021689574
C   C239      1.0  0.10012  0.50270  0.85292  1.0000 0.1021689574
C   C240      1.0  0.89988  0.00270  0.64708  1.0000 0.1021689574
C   C241      1.0  0.86384  0.39910  0.10434  1.0000 -0.1024146808
C   C242      1.0  0.13616  0.89910  0.39566  1.0000 -0.1024146808
C   C243      1.0  0.13616  0.60090  0.89566  1.0000 -0.1024146808
C   C244      1.0  0.86384  0.10090  0.60434  1.0000 -0.1024146808
C   C245      1.0  0.79563  0.43570  0.10573  1.0000 -0.0305609603
C   C246      1.0  0.20437  0.93570  0.39427  1.0000 -0.0305609603
C   C247      1.0  0.20437  0.56430  0.89427  1.0000 -0.0305609603
C   C248      1.0  0.79563  0.06430  0.60573  1.0000 -0.0305609603
C   C249      1.0  0.20587  0.46230  0.25467  1.0000 0.1021689574
C   C250      1.0  0.79413  0.96230  0.24533  1.0000 0.1021689574
C   C251      1.0  0.79413  0.53770  0.74533  1.0000 0.1021689574
C   C252      1.0  0.20587  0.03770  0.75467  1.0000 0.1021689574
C   C253      1.0  0.29937  0.39060  0.24097  1.0000 -0.0924670697
C   C254      1.0  0.70063  0.89060  0.25903  1.0000 -0.0924670697
C   C255      1.0  0.70063  0.60940  0.75903  1.0000 -0.0924670697
C   C256      1.0  0.29937  0.10940  0.74097  1.0000 -0.0924670697
C   C257      1.0  0.33198  0.41550  0.27788  1.0000 -0.0148486338
C   C258      1.0  0.66802  0.91550  0.22212  1.0000 -0.0148486338
C   C259      1.0  0.66802  0.58450  0.72212  1.0000 -0.0148486338
C   C260      1.0  0.33198  0.08450  0.77788  1.0000 -0.0148486338
C   C261      1.0  0.59086  0.23510  0.02606  1.0000 0.2117294761
C   C262      1.0  0.40914  0.73510  0.47394  1.0000 0.2117294761
C   C263      1.0  0.40914  0.76490  0.97394  1.0000 0.2117294761
C   C264      1.0  0.59086  0.26490  0.52606  1.0000 0.2117294761
C   C265      1.0  0.52529  0.26080  0.99309  1.0000 -0.2806530168
C   C266      1.0  0.47471  0.76080  0.50691  1.0000 -0.2806530168
C   C267      1.0  0.47471  0.73920  0.00691  1.0000 -0.2806530168
C   C268      1.0  0.52529  0.23920  0.49309  1.0000 -0.2806530168
C   C269      1.0  0.44430  0.26380  0.99220  1.0000 0.2000995147
C   C270      1.0  0.55570  0.76380  0.50780  1.0000 0.2000995147
C   C271      1.0  0.55570  0.73620  0.00780  1.0000 0.2000995147
C   C272      1.0  0.44430  0.23620  0.49220  1.0000 0.2000995147
C   C273      1.0  0.42836  0.24320  0.02436  1.0000 -0.2591115045
C   C274      1.0  0.57164  0.74320  0.47564  1.0000 -0.2591115045
C   C275      1.0  0.57164  0.75680  0.97564  1.0000 -0.2591115045
C   C276      1.0  0.42836  0.25680  0.52436  1.0000 -0.2591115045
C   C277      1.0  0.49531  0.21930  0.05761  1.0000 0.2000995147
C   C278      1.0  0.50469  0.71930  0.44239  1.0000 0.2000995147
C   C279      1.0  0.50469  0.78070  0.94239  1.0000 0.2000995147
C   C280      1.0  0.49531  0.28070  0.55761  1.0000 0.2000995147
C   C281      1.0  0.57577  0.21480  0.05907  1.0000 -0.2712932119
C   C282      1.0  0.42423  0.71480  0.44093  1.0000 -0.2712932119
C   C283      1.0  0.42423  0.78520  0.94093  1.0000 -0.2712932119
C   C284      1.0  0.57577  0.28520  0.55907  1.0000 -0.2712932119
C   C285      1.0  0.70605  0.25350  0.00165  1.0000 0.0949329453
C   C286      1.0  0.29395  0.75350  0.49835  1.0000 0.0949329453
C   C287      1.0  0.29395  0.74650  0.99835  1.0000 0.0949329453
C   C288      1.0  0.70605  0.24650  0.50165  1.0000 0.0949329453
C   C289      1.0  0.74114  0.19130  0.05674  1.0000 -0.1024146808
C   C290      1.0  0.25886  0.69130  0.44326  1.0000 -0.1024146808
C   C291      1.0  0.25886  0.80870  0.94326  1.0000 -0.1024146808
C   C292      1.0  0.74114  0.30870  0.55674  1.0000 -0.1024146808
C   C293      1.0  0.80634  0.19590  0.04664  1.0000 -0.0305609603
C   C294      1.0  0.19366  0.69590  0.45336  1.0000 -0.0305609603
C   C295      1.0  0.19366  0.80410  0.95336  1.0000 -0.0305609603
C   C296      1.0  0.80634  0.30410  0.54664  1.0000 -0.0305609603
C   C297      1.0  0.37776  0.33360  0.92846  1.0000 0.1113358826
C   C298      1.0  0.62224  0.83360  0.57154  1.0000 0.1113358826
C   C299      1.0  0.62224  0.66640  0.07154  1.0000 0.1113358826
C   C300      1.0  0.37776  0.16640  0.42846  1.0000 0.1113358826
C   C301      1.0  0.29022  0.28690  0.95282  1.0000 -0.1024146808
C   C302      1.0  0.70978  0.78690  0.54718  1.0000 -0.1024146808
C   C303      1.0  0.70978  0.71310  0.04718  1.0000 -0.1024146808
C   C304      1.0  0.29022  0.21310  0.45282  1.0000 -0.1024146808
C   C305      1.0  0.24840  0.32670  0.91990  1.0000 -0.0305609603
C   C306      1.0  0.75160  0.82670  0.58010  1.0000 -0.0305609603
C   C307      1.0  0.75160  0.67330  0.08010  1.0000 -0.0305609603
C   C308      1.0  0.24840  0.17330  0.41990  1.0000 -0.0305609603
C   C309      1.0  0.50718  0.23870  0.12548  1.0000 0.1021689574
C   C310      1.0  0.49282  0.73870  0.37452  1.0000 0.1021689574
C   C311      1.0  0.49282  0.76130  0.87452  1.0000 0.1021689574
C   C312      1.0  0.50718  0.26130  0.62548  1.0000 0.1021689574
C   C313      1.0  0.41449  0.14970  0.09089  1.0000 -0.0824579607
C   C314      1.0  0.58551  0.64970  0.40911  1.0000 -0.0824579607
C   C315      1.0  0.58551  0.85030  0.90911  1.0000 -0.0824579607
C   C316      1.0  0.41449  0.35030  0.59089  1.0000 -0.0824579607
C   C317      1.0  0.41067  0.15630  0.12567  1.0000 -0.0198817739
C   C318      1.0  0.58933  0.65630  0.37433  1.0000 -0.0198817739
C   C319      1.0  0.58933  0.84370  0.87433  1.0000 -0.0198817739
C   C320      1.0  0.41067  0.34370  0.62567  1.0000 -0.0198817739
C   C321      1.0  0.84972  0.42430  0.29282  1.0000 0.191641027
C   C322      1.0  0.15028  0.92430  0.20718  1.0000 0.191641027
C   C323      1.0  0.15028  0.57570  0.70718  1.0000 0.191641027
C   C324      1.0  0.84972  0.07570  0.79282  1.0000 0.191641027
C   C325      1.0  0.93351  0.43270  0.30211  1.0000 -0.2887638388
C   C326      1.0  0.06649  0.93270  0.19789  1.0000 -0.2887638388
C   C327      1.0  0.06649  0.56730  0.69789  1.0000 -0.2887638388
C   C328      1.0  0.93351  0.06730  0.80211  1.0000 -0.2887638388
C   C329      1.0  0.98809  0.40880  0.33849  1.0000 0.2000995147
C   C330      1.0  0.01191  0.90880  0.16151  1.0000 0.2000995147
C   C331      1.0  0.01191  0.59120  0.66151  1.0000 0.2000995147
C   C332      1.0  0.98809  0.09120  0.83849  1.0000 0.2000995147
C   C333      1.0  0.95799  0.37760  0.36509  1.0000 -0.2591115045
C   C334      1.0  0.04201  0.87760  0.13491  1.0000 -0.2591115045
C   C335      1.0  0.04201  0.62240  0.63491  1.0000 -0.2591115045
C   C336      1.0  0.95799  0.12240  0.86509  1.0000 -0.2591115045
C   C337      1.0  0.87235  0.36890  0.35445  1.0000 0.2000995147
C   C338      1.0  0.12765  0.86890  0.14555  1.0000 0.2000995147
C   C339      1.0  0.12765  0.63110  0.64555  1.0000 0.2000995147
C   C340      1.0  0.87235  0.13110  0.85445  1.0000 0.2000995147
C   C341      1.0  0.81747  0.39220  0.31837  1.0000 -0.2367390302
C   C342      1.0  0.18253  0.89220  0.18163  1.0000 -0.2367390302
C   C343      1.0  0.18253  0.60780  0.68163  1.0000 -0.2367390302
C   C344      1.0  0.81747  0.10780  0.81837  1.0000 -0.2367390302
C   C345      1.0  0.80798  0.49490  0.22928  1.0000 0.1021689574
C   C346      1.0  0.19202  0.99490  0.27072  1.0000 0.1021689574
C   C347      1.0  0.19202  0.50510  0.77072  1.0000 0.1021689574
C   C348      1.0  0.80798  0.00510  0.72928  1.0000 0.1021689574
C   C349      1.0  0.71250  0.41590  0.23610  1.0000 -0.0824579607
C   C350      1.0  0.28750  0.91590  0.26390  1.0000 -0.0824579607
C   C351      1.0  0.28750  0.58410  0.76390  1.0000 -0.0824579607
C   C352      1.0  0.71250  0.08410  0.73610  1.0000 -0.0824579607
C   C353      1.0  0.68490  0.44990  0.20060  1.0000 -0.0198817739
C   C354      1.0  0.31510  0.94990  0.29940  1.0000 -0.0198817739
C   C355      1.0  0.31510  0.55010  0.79940  1.0000 -0.0198817739
C   C356      1.0  0.68490  0.05010  0.70060  1.0000 -0.0198817739
C   C357      1.0  0.11696  0.47450  0.33706  1.0000 0.1021689574
C   C358      1.0  0.88304  0.97450  0.16294  1.0000 0.1021689574
C   C359      1.0  0.88304  0.52550  0.66294  1.0000 0.1021689574
C   C360      1.0  0.11696  0.02550  0.83706  1.0000 0.1021689574
C   C361      1.0  0.13636  0.35760  0.36876  1.0000 -0.0824579607
C   C362      1.0  0.86364  0.85760  0.13124  1.0000 -0.0824579607
C   C363      1.0  0.86364  0.64240  0.63124  1.0000 -0.0824579607
C   C364      1.0  0.13636  0.14240  0.86876  1.0000 -0.0824579607
C   C365      1.0  0.21002  0.38460  0.36842  1.0000 -0.0305609603
C   C366      1.0  0.78998  0.88460  0.13158  1.0000 -0.0305609603
C   C367      1.0  0.78998  0.61540  0.63158  1.0000 -0.0305609603
C   C368      1.0  0.21002  0.11540  0.86842  1.0000 -0.0305609603
C   C369      1.0  0.88272  0.32880  0.41962  1.0000 0.1113358826
C   C370      1.0  0.11728  0.82880  0.08038  1.0000 0.1113358826
C   C371      1.0  0.11728  0.67120  0.58038  1.0000 0.1113358826
C   C372      1.0  0.88272  0.17120  0.91962  1.0000 0.1113358826
C   C373      1.0  0.76332  0.30400  0.37332  1.0000 -0.0824579607
C   C374      1.0  0.23668  0.80400  0.12668  1.0000 -0.0824579607
C   C375      1.0  0.23668  0.69600  0.62668  1.0000 -0.0824579607
C   C376      1.0  0.76332  0.19600  0.87332  1.0000 -0.0824579607
C   C377      1.0  0.76113  0.27820  0.40703  1.0000 -0.0305609603
C   C378      1.0  0.23887  0.77820  0.09297  1.0000 -0.0305609603
C   C379      1.0  0.23887  0.72180  0.59297  1.0000 -0.0305609603
C   C380      1.0  0.76113  0.22180  0.90703  1.0000 -0.0305609603
N   N1        1.0  0.14693  0.27410  0.04113  1.0000 -0.2994271388
N   N2        1.0  0.85307  0.77410  0.45887  1.0000 -0.2994271388
N   N3        1.0  0.85307  0.72590  0.95887  1.0000 -0.2994271388
N   N4        1.0  0.14693  0.22590  0.54113  1.0000 -0.2994271388
N   N5        1.0  0.15208  0.32340  0.09658  1.0000 0.0052057177
N   N6        1.0  0.84792  0.82340  0.40342  1.0000 0.0052057177
N   N7        1.0  0.84792  0.67660  0.90342  1.0000 0.0052057177
N   N8        1.0  0.15208  0.17660  0.59658  1.0000 0.0052057177
N   N9        1.0  0.81701  0.49800  0.13221  1.0000 -0.2887638388
N   N10       1.0  0.18299  0.99800  0.36779  1.0000 -0.2887638388
N   N11       1.0  0.18299  0.50200  0.86779  1.0000 -0.2887638388
N   N12       1.0  0.81701  0.00200  0.63221  1.0000 -0.2887638388
N   N13       1.0  0.93209  0.43960  0.13109  1.0000 0.0021609069
N   N14       1.0  0.06791  0.93960  0.36891  1.0000 0.0021609069
N   N15       1.0  0.06791  0.56040  0.86891  1.0000 0.0021609069
N   N16       1.0  0.93209  0.06040  0.63109  1.0000 0.0021609069
N   N17       1.0  0.27294  0.46030  0.28664  1.0000 -0.2887638388
N   N18       1.0  0.72706  0.96030  0.21336  1.0000 -0.2887638388
N   N19       1.0  0.72706  0.53970  0.71336  1.0000 -0.2887638388
N   N20       1.0  0.27294  0.03970  0.78664  1.0000 -0.2887638388
N   N21       1.0  0.21827  0.42150  0.22607  1.0000 -0.0032300743
N   N22       1.0  0.78173  0.92150  0.27393  1.0000 -0.0032300743
N   N23       1.0  0.78173  0.57850  0.77393  1.0000 -0.0032300743
N   N24       1.0  0.21827  0.07850  0.72607  1.0000 -0.0032300743
N   N25       1.0  0.78630  0.23480  0.01210  1.0000 -0.2994271388
N   N26       1.0  0.21370  0.73480  0.48790  1.0000 -0.2994271388
N   N27       1.0  0.21370  0.76520  0.98790  1.0000 -0.2994271388
N   N28       1.0  0.78630  0.26520  0.51210  1.0000 -0.2994271388
N   N29       1.0  0.67444  0.22760  0.02784  1.0000 0.0021609069
N   N30       1.0  0.32556  0.72760  0.47216  1.0000 0.0021609069
N   N31       1.0  0.32556  0.77240  0.97216  1.0000 0.0021609069
N   N32       1.0  0.67444  0.27240  0.52784  1.0000 0.0021609069
N   N33       1.0  0.30247  0.35600  0.90447  1.0000 -0.2806530168
N   N34       1.0  0.69753  0.85600  0.59553  1.0000 -0.2806530168
N   N35       1.0  0.69753  0.64400  0.09553  1.0000 -0.2806530168
N   N36       1.0  0.30247  0.14400  0.40447  1.0000 -0.2806530168
N   N37       1.0  0.37480  0.29100  0.95860  1.0000 -0.0032300743
N   N38       1.0  0.62520  0.79100  0.54140  1.0000 -0.0032300743
N   N39       1.0  0.62520  0.70900  0.04140  1.0000 -0.0032300743
N   N40       1.0  0.37480  0.20900  0.45860  1.0000 -0.0032300743
N   N41       1.0  0.46809  0.21300  0.14759  1.0000 -0.2887638388
N   N42       1.0  0.53191  0.71300  0.35241  1.0000 -0.2887638388
N   N43       1.0  0.53191  0.78700  0.85241  1.0000 -0.2887638388
N   N44       1.0  0.46809  0.28700  0.64759  1.0000 -0.2887638388
N   N45       1.0  0.47621  0.20070  0.09041  1.0000 0.0021609069
N   N46       1.0  0.52379  0.70070  0.40959  1.0000 0.0021609069
N   N47       1.0  0.52379  0.79930  0.90959  1.0000 0.0021609069
N   N48       1.0  0.47621  0.29930  0.59041  1.0000 0.0021609069
N   N49       1.0  0.74474  0.49980  0.19654  1.0000 -0.2712932119
N   N50       1.0  0.25526  0.99980  0.30346  1.0000 -0.2712932119
N   N51       1.0  0.25526  0.50020  0.80346  1.0000 -0.2712932119
N   N52       1.0  0.74474  0.00020  0.69654  1.0000 -0.2712932119
N   N53       1.0  0.79249  0.44470  0.25449  1.0000 -0.0032300743
N   N54       1.0  0.20751  0.94470  0.24551  1.0000 -0.0032300743
N   N55       1.0  0.20751  0.55530  0.74551  1.0000 -0.0032300743
N   N56       1.0  0.79249  0.05530  0.75449  1.0000 -0.0032300743
N   N57       1.0  0.19818  0.45920  0.34888  1.0000 -0.2887638388
N   N58       1.0  0.80182  0.95920  0.15112  1.0000 -0.2887638388
N   N59       1.0  0.80182  0.54080  0.65112  1.0000 -0.2887638388
N   N60       1.0  0.19818  0.04080  0.84888  1.0000 -0.2887638388
N   N61       1.0  0.07711  0.41500  0.34831  1.0000 0.0021609069
N   N62       1.0  0.92289  0.91500  0.15169  1.0000 0.0021609069
N   N63       1.0  0.92289  0.58500  0.65169  1.0000 0.0021609069
N   N64       1.0  0.07711  0.08500  0.84831  1.0000 0.0021609069
N   N65       1.0  0.83668  0.29410  0.43608  1.0000 -0.306239715
N   N66       1.0  0.16332  0.79410  0.06392  1.0000 -0.306239715
N   N67       1.0  0.16332  0.70590  0.56392  1.0000 -0.306239715
N   N68       1.0  0.83668  0.20590  0.93608  1.0000 -0.306239715
N   N69       1.0  0.84098  0.33710  0.38108  1.0000 -0.0032300743
N   N70       1.0  0.15902  0.83710  0.11892  1.0000 -0.0032300743
N   N71       1.0  0.15902  0.66290  0.61892  1.0000 -0.0032300743
N   N72       1.0  0.84098  0.16290  0.88108  1.0000 -0.0032300743
O   O1        1.0  0.07488  0.30960  0.94518  1.0000 -0.5336509851
O   O2        1.0  0.92512  0.80960  0.55482  1.0000 -0.5336509851
O   O3        1.0  0.92512  0.69040  0.05482  1.0000 -0.5336509851
O   O4        1.0  0.07488  0.19040  0.44518  1.0000 -0.5336509851
O   O5        1.0  0.98738  0.30050  0.97368  1.0000 -0.5611051627
O   O6        1.0  0.01262  0.80050  0.52632  1.0000 -0.5611051627
O   O7        1.0  0.01262  0.69950  0.02632  1.0000 -0.5611051627
O   O8        1.0  0.98738  0.19950  0.47368  1.0000 -0.5611051627
O   O9        1.0  0.60699  0.29380  0.72579  1.0000 -0.5852798281
O   O10       1.0  0.39301  0.79380  0.77421  1.0000 -0.5852798281
O   O11       1.0  0.39301  0.70620  0.27421  1.0000 -0.5852798281
O   O12       1.0  0.60699  0.20620  0.22579  1.0000 -0.5852798281
O   O13       1.0  0.65644  0.24640  0.78534  1.0000 -0.5852798281
O   O14       1.0  0.34356  0.74640  0.71466  1.0000 -0.5852798281
O   O15       1.0  0.34356  0.75360  0.21466  1.0000 -0.5852798281
O   O16       1.0  0.65644  0.25360  0.28534  1.0000 -0.5852798281
O   O17       1.0  0.04380  0.12510  0.00290  1.0000 -0.5414905717
O   O18       1.0  0.95620  0.62510  0.49710  1.0000 -0.5414905717
O   O19       1.0  0.95620  0.87490  0.99710  1.0000 -0.5414905717
O   O20       1.0  0.04380  0.37490  0.50290  1.0000 -0.5414905717
O   O21       1.0  0.95345  0.17920  0.02545  1.0000 -0.5611051627
O   O22       1.0  0.04655  0.67920  0.47455  1.0000 -0.5611051627
O   O23       1.0  0.04655  0.82080  0.97455  1.0000 -0.5611051627
O   O24       1.0  0.95345  0.32080  0.52545  1.0000 -0.5611051627
O   O25       1.0  0.43116  0.12930  0.21326  1.0000 -0.5096156804
O   O26       1.0  0.56884  0.62930  0.28674  1.0000 -0.5096156804
O   O27       1.0  0.56884  0.87070  0.78674  1.0000 -0.5096156804
O   O28       1.0  0.43116  0.37070  0.71326  1.0000 -0.5096156804
O   O29       1.0  0.34932  0.23500  0.19132  1.0000 -0.5816377682
O   O30       1.0  0.65068  0.73500  0.30868  1.0000 -0.5816377682
O   O31       1.0  0.65068  0.76500  0.80868  1.0000 -0.5816377682
O   O32       1.0  0.34932  0.26500  0.69132  1.0000 -0.5816377682
O   O33       1.0  0.18940  0.62160  0.03190  1.0000 -0.5488907343
O   O34       1.0  0.81060  0.12160  0.46810  1.0000 -0.5488907343
O   O35       1.0  0.81060  0.37840  0.96810  1.0000 -0.5488907343
O   O36       1.0  0.18940  0.87840  0.53190  1.0000 -0.5488907343
O   O37       1.0  0.08827  0.62710  0.97517  1.0000 -0.5664558369
O   O38       1.0  0.91173  0.12710  0.52483  1.0000 -0.5664558369
O   O39       1.0  0.91173  0.37290  0.02483  1.0000 -0.5664558369
O   O40       1.0  0.08827  0.87290  0.47517  1.0000 -0.5664558369
O   O41       1.0  0.63838  0.49300  0.11618  1.0000 -0.5611051627
O   O42       1.0  0.36162  0.99300  0.38382  1.0000 -0.5611051627
O   O43       1.0  0.36162  0.50700  0.88382  1.0000 -0.5611051627
O   O44       1.0  0.63838  0.00700  0.61618  1.0000 -0.5611051627
O   O45       1.0  0.51976  0.55360  0.10876  1.0000 -0.5488907343
O   O46       1.0  0.48024  0.05360  0.39124  1.0000 -0.5488907343
O   O47       1.0  0.48024  0.44640  0.89124  1.0000 -0.5488907343
O   O48       1.0  0.51976  0.94640  0.60876  1.0000 -0.5488907343
O   O49       1.0  0.85094  0.64380  0.18704  1.0000 -0.5664558369
O   O50       1.0  0.14906  0.14380  0.31296  1.0000 -0.5664558369
O   O51       1.0  0.14906  0.35620  0.81296  1.0000 -0.5664558369
O   O52       1.0  0.85094  0.85620  0.68704  1.0000 -0.5664558369
O   O53       1.0  0.72069  0.67680  0.17589  1.0000 -0.5414905717
O   O54       1.0  0.27931  0.17680  0.32411  1.0000 -0.5414905717
O   O55       1.0  0.27931  0.32320  0.82411  1.0000 -0.5414905717
O   O56       1.0  0.72069  0.82320  0.67589  1.0000 -0.5414905717
O   O57       1.0  0.26921  0.63950  0.36141  1.0000 -0.5664558369
O   O58       1.0  0.73079  0.13950  0.13859  1.0000 -0.5664558369
O   O59       1.0  0.73079  0.36050  0.63859  1.0000 -0.5664558369
O   O60       1.0  0.26921  0.86050  0.86141  1.0000 -0.5664558369
O   O61       1.0  0.18322  0.61590  0.30212  1.0000 -0.5414905717
O   O62       1.0  0.81678  0.11590  0.19788  1.0000 -0.5414905717
O   O63       1.0  0.81678  0.38410  0.69788  1.0000 -0.5414905717
O   O64       1.0  0.18322  0.88410  0.80212  1.0000 -0.5414905717
O   O65       1.0  0.21277  0.15580  0.99717  1.0000 -0.5488907343
O   O66       1.0  0.78723  0.65580  0.50283  1.0000 -0.5488907343
O   O67       1.0  0.78723  0.84420  0.00283  1.0000 -0.5488907343
O   O68       1.0  0.21277  0.34420  0.49717  1.0000 -0.5488907343
O   O69       1.0  0.10532  0.12400  0.94522  1.0000 -0.5414905717
O   O70       1.0  0.89468  0.62400  0.55478  1.0000 -0.5414905717
O   O71       1.0  0.89468  0.87600  0.05478  1.0000 -0.5414905717
O   O72       1.0  0.10532  0.37600  0.44522  1.0000 -0.5414905717
O   O73       1.0  0.62123  0.96080  0.12273  1.0000 -0.5488907343
O   O74       1.0  0.37877  0.46080  0.37727  1.0000 -0.5488907343
O   O75       1.0  0.37877  0.03920  0.87727  1.0000 -0.5488907343
O   O76       1.0  0.62123  0.53920  0.62273  1.0000 -0.5488907343
O   O77       1.0  0.51302  0.97200  0.13992  1.0000 -0.5816377682
O   O78       1.0  0.48698  0.47200  0.36008  1.0000 -0.5816377682
O   O79       1.0  0.48698  0.02800  0.86008  1.0000 -0.5816377682
O   O80       1.0  0.51302  0.52800  0.63992  1.0000 -0.5816377682
