# DDEC6 charges by PACMAN v1.1 (https://github.com/mtap-research/PACMAN-charge/)
data_2013[Gd][nan]3[ASR]4
_chemical_formula_sum              "Gd4 H64 C90 S6 O50"
_cell_length_a       9.2654
_cell_length_b       15.642
_cell_length_c       22.287
_cell_angle_alpha    102.15
_cell_angle_beta     101.48
_cell_angle_gamma    104.44

_symmetry_space_group_name_H-M    "P 1"
_symmetry_Int_Tables_number       1

loop_
  _symmetry_equiv_pos_as_xyz
  'x, y, z'

loop_
  _atom_site_type_symbol
  _atom_site_label
  _atom_site_symmetry_multiplicity
  _atom_site_fract_x
  _atom_site_fract_y
  _atom_site_fract_z
  _atom_site_occupancy
  _atom_site_charge
Gd  Gd1       1.0  0.48586  0.13989  0.19774  1.0000 2.0273877998
Gd  Gd2       1.0  0.51414  0.86011  0.80226  1.0000 2.0273877998
Gd  Gd3       1.0  0.96946  0.08785  0.14350  1.0000 2.0965337176
Gd  Gd4       1.0  0.03054  0.91215  0.85650  1.0000 2.0965337176
H   H1        1.0  0.12910  0.16610  0.33370  1.0000 0.121640249
H   H2        1.0  0.87090  0.83390  0.66630  1.0000 0.121640249
H   H3        1.0  0.25310  0.16660  0.43350  1.0000 0.1300259143
H   H4        1.0  0.74690  0.83340  0.56650  1.0000 0.1300259143
H   H5        1.0  0.71890  0.08630  0.37340  1.0000 0.1384050679
H   H6        1.0  0.28110  0.91370  0.62660  1.0000 0.1384050679
H   H7        1.0  0.33333  0.20840  0.54220  1.0000 0.1300259143
H   H8        1.0  0.66667  0.79160  0.45780  1.0000 0.1300259143
H   H9        1.0  0.32690  0.10490  0.52300  1.0000 0.1125660669
H   H10       1.0  0.67310  0.89510  0.47700  1.0000 0.1125660669
H   H11       1.0  0.31700  0.15030  0.59120  1.0000 0.121640249
H   H12       1.0  0.68300  0.84970  0.40880  1.0000 0.121640249
H   H13       1.0  0.01430  0.15420  0.63170  1.0000 0.1384050679
H   H14       1.0  0.98570  0.84580  0.36830  1.0000 0.1384050679
H   H15       1.0  0.02980  0.09130  0.71770  1.0000 0.1300259143
H   H16       1.0  0.97020  0.90870  0.28230  1.0000 0.1300259143
H   H17       1.0  0.56990  0.98710  0.66820  1.0000 0.1300259143
H   H18       1.0  0.43010  0.01290  0.33180  1.0000 0.1300259143
H   H19       1.0  0.55610  0.04590  0.58160  1.0000 0.1384050679
H   H20       1.0  0.44390  0.95410  0.41840  1.0000 0.1384050679
H   H21       1.0  0.99620  0.33560  0.09060  1.0000 0.121640249
H   H22       1.0  0.00380  0.66440  0.90940  1.0000 0.121640249
H   H23       1.0  0.05470  0.47910  0.07220  1.0000 0.1300259143
H   H24       1.0  0.94530  0.52090  0.92780  1.0000 0.1300259143
H   H25       1.0  0.72570  0.53660  0.15230  1.0000 0.1300259143
H   H26       1.0  0.27430  0.46340  0.84770  1.0000 0.1300259143
H   H27       1.0  0.66190  0.39020  0.16640  1.0000 0.1384050679
H   H28       1.0  0.33810  0.60980  0.83360  1.0000 0.1384050679
H   H29       1.0  0.87760  0.73620  0.97920  1.0000 0.1588879973
H   H30       1.0  0.12240  0.26380  0.02080  1.0000 0.1588879973
H   H31       1.0  0.49140  0.80900  0.96780  1.0000 0.1300259143
H   H32       1.0  0.50860  0.19100  0.03220  1.0000 0.1300259143
H   H33       1.0  0.40550  0.70820  0.02540  1.0000 0.1300259143
H   H34       1.0  0.59450  0.29180  0.97460  1.0000 0.1300259143
H   H35       1.0  0.31890  0.55820  0.03630  1.0000 0.121640249
H   H36       1.0  0.68110  0.44180  0.96370  1.0000 0.121640249
H   H37       1.0  0.38940  0.63380  0.10170  1.0000 0.121640249
H   H38       1.0  0.61060  0.36620  0.89830  1.0000 0.121640249
H   H39       1.0  0.38030  0.53140  0.09830  1.0000 0.1300259143
H   H40       1.0  0.61970  0.46860  0.90170  1.0000 0.1300259143
H   H41       1.0  0.40650  0.43770  0.19770  1.0000 0.1495505143
H   H42       1.0  0.59350  0.56230  0.80230  1.0000 0.1495505143
H   H43       1.0  0.00610  0.43730  0.29360  1.0000 0.121640249
H   H44       1.0  0.99390  0.56270  0.70640  1.0000 0.121640249
H   H45       1.0  0.07470  0.30410  0.26620  1.0000 0.1300259143
H   H46       1.0  0.92530  0.69590  0.73380  1.0000 0.1300259143
H   H47       1.0  0.03370  0.58300  0.34380  1.0000 0.121640249
H   H48       1.0  0.96630  0.41700  0.65620  1.0000 0.121640249
H   H49       1.0  0.91770  0.57360  0.27940  1.0000 0.121640249
H   H50       1.0  0.08230  0.42640  0.72060  1.0000 0.121640249
H   H51       1.0  0.02420  0.67080  0.32200  1.0000 0.121640249
H   H52       1.0  0.97580  0.32920  0.67800  1.0000 0.121640249
H   H53       1.0  0.73910  0.72820  0.20860  1.0000 0.1300259143
H   H54       1.0  0.26090  0.27180  0.79140  1.0000 0.1300259143
H   H55       1.0  0.77250  0.84660  0.16040  1.0000 0.1300259143
H   H56       1.0  0.22750  0.15340  0.83960  1.0000 0.1300259143
H   H57       1.0  0.41010  0.90620  0.20920  1.0000 0.121640249
H   H58       1.0  0.58990  0.09380  0.79080  1.0000 0.121640249
H   H59       1.0  0.37780  0.79040  0.26000  1.0000 0.1300259143
H   H60       1.0  0.62220  0.20960  0.74000  1.0000 0.1300259143
H   H61       1.0  0.47920  0.25790  0.29860  1.0000 0.3472030703
H   H62       1.0  0.52080  0.74210  0.70140  1.0000 0.3472030703
H   H63       1.0  0.51940  0.17920  0.30440  1.0000 0.3472030703
H   H64       1.0  0.48060  0.82080  0.69560  1.0000 0.3472030703
C   C1        1.0  0.82920  0.12350  0.27630  1.0000 0.6498091359
C   C2        1.0  0.17080  0.87650  0.72370  1.0000 0.6498091359
C   C3        1.0  0.91130  0.12450  0.34170  1.0000 -0.0280568621
C   C4        1.0  0.08870  0.87550  0.65830  1.0000 -0.0280568621
C   C5        1.0  0.07140  0.14930  0.36130  1.0000 -0.0956597657
C   C6        1.0  0.92860  0.85070  0.63870  1.0000 -0.0956597657
C   C7        1.0  0.14570  0.14920  0.42120  1.0000 -0.2099529724
C   C8        1.0  0.85430  0.85080  0.57880  1.0000 -0.2099529724
C   C9        1.0  0.06380  0.12380  0.46380  1.0000 0.1731577534
C   C10       1.0  0.93620  0.87620  0.53620  1.0000 0.1731577534
C   C11       1.0  0.90410  0.10120  0.44420  1.0000 0.1495505143
C   C12       1.0  0.09590  0.89880  0.55580  1.0000 0.1495505143
C   C13       1.0  0.82620  0.10130  0.38490  1.0000 -0.198204292
C   C14       1.0  0.17380  0.89870  0.61510  1.0000 -0.198204292
C   C15       1.0  0.28890  0.14870  0.54700  1.0000 -0.2099529724
C   C16       1.0  0.71110  0.85130  0.45300  1.0000 -0.2099529724
C   C17       1.0  0.78500  0.10490  0.59910  1.0000 -0.0894040865
C   C18       1.0  0.21500  0.89510  0.40090  1.0000 -0.0894040865
C   C19       1.0  0.92510  0.11980  0.63890  1.0000 -0.0818574254
C   C20       1.0  0.07490  0.88020  0.36110  1.0000 -0.0818574254
C   C21       1.0  0.93410  0.08300  0.69050  1.0000 -0.0818574254
C   C22       1.0  0.06590  0.91700  0.30950  1.0000 -0.0818574254
C   C23       1.0  0.80000  0.03400  0.70140  1.0000 -0.0217666882
C   C24       1.0  0.20000  0.96600  0.29860  1.0000 -0.0217666882
C   C25       1.0  0.65980  0.02030  0.66090  1.0000 -0.0956597657
C   C26       1.0  0.34020  0.97970  0.33910  1.0000 -0.0956597657
C   C27       1.0  0.65140  0.05550  0.60940  1.0000 -0.0818574254
C   C28       1.0  0.34860  0.94450  0.39060  1.0000 -0.0818574254
C   C29       1.0  0.81110  0.99580  0.75880  1.0000 0.6498091359
C   C30       1.0  0.18890  0.00420  0.24120  1.0000 0.6498091359
C   C31       1.0  0.79150  0.25660  0.14450  1.0000 0.6498091359
C   C32       1.0  0.20850  0.74340  0.85550  1.0000 0.6498091359
C   C33       1.0  0.82390  0.35060  0.13280  1.0000 -0.0280568621
C   C34       1.0  0.17610  0.64940  0.86720  1.0000 -0.0280568621
C   C35       1.0  0.94220  0.37600  0.10290  1.0000 -0.0894040865
C   C36       1.0  0.05780  0.62400  0.89710  1.0000 -0.0894040865
C   C37       1.0  0.97710  0.46150  0.09200  1.0000 -0.0956597657
C   C38       1.0  0.02290  0.53850  0.90800  1.0000 -0.0956597657
C   C39       1.0  0.89620  0.52070  0.11060  1.0000 -0.0894040865
C   C40       1.0  0.10380  0.47930  0.88940  1.0000 -0.0894040865
C   C41       1.0  0.77900  0.49600  0.13950  1.0000 -0.0894040865
C   C42       1.0  0.22100  0.50400  0.86050  1.0000 -0.0894040865
C   C43       1.0  0.74330  0.40890  0.14880  1.0000 -0.0818574254
C   C44       1.0  0.25670  0.59110  0.85120  1.0000 -0.0818574254
C   C45       1.0  0.72870  0.66820  0.01860  1.0000 0.1495505143
C   C46       1.0  0.27130  0.33180  0.98140  1.0000 0.1495505143
C   C47       1.0  0.78140  0.72960  0.98730  1.0000 -0.1891624313
C   C48       1.0  0.21860  0.27040  0.01270  1.0000 -0.1891624313
C   C49       1.0  0.69210  0.78240  0.96760  1.0000 -0.0280568621
C   C50       1.0  0.30790  0.21760  0.03240  1.0000 -0.0280568621
C   C51       1.0  0.55180  0.77370  0.98130  1.0000 -0.0818574254
C   C52       1.0  0.44820  0.22630  0.01870  1.0000 -0.0818574254
C   C53       1.0  0.49920  0.71250  0.01530  1.0000 -0.2173187937
C   C54       1.0  0.50080  0.28750  0.98470  1.0000 -0.2173187937
C   C55       1.0  0.58610  0.65900  0.03350  1.0000 0.1588879973
C   C56       1.0  0.41390  0.34100  0.96650  1.0000 0.1588879973
C   C57       1.0  0.74980  0.84540  0.93000  1.0000 0.6498091359
C   C58       1.0  0.25020  0.15460  0.07000  1.0000 0.6498091359
C   C59       1.0  0.39640  0.57800  0.07620  1.0000 -0.2099529724
C   C60       1.0  0.60360  0.42200  0.92380  1.0000 -0.2099529724
C   C61       1.0  0.29430  0.27310  0.21120  1.0000 0.5993665178
C   C62       1.0  0.70570  0.72690  0.78880  1.0000 0.5993665178
C   C63       1.0  0.24630  0.35620  0.22850  1.0000 -0.0438099
C   C64       1.0  0.75370  0.64380  0.77150  1.0000 -0.0438099
C   C65       1.0  0.32610  0.43720  0.21700  1.0000 -0.1837221626
C   C66       1.0  0.67390  0.56280  0.78300  1.0000 -0.1837221626
C   C67       1.0  0.28650  0.51510  0.23410  1.0000 0.1588879973
C   C68       1.0  0.71350  0.48490  0.76590  1.0000 0.1588879973
C   C69       1.0  0.16580  0.51640  0.26310  1.0000 0.1588879973
C   C70       1.0  0.83420  0.48360  0.73690  1.0000 0.1588879973
C   C71       1.0  0.08680  0.43740  0.27460  1.0000 -0.2099529724
C   C72       1.0  0.91320  0.56260  0.72540  1.0000 -0.2099529724
C   C73       1.0  0.12760  0.35720  0.25770  1.0000 -0.0894040865
C   C74       1.0  0.87240  0.64280  0.74230  1.0000 -0.0894040865
C   C75       1.0  0.01790  0.60730  0.30780  1.0000 -0.2099529724
C   C76       1.0  0.98210  0.39270  0.69220  1.0000 -0.2099529724
C   C77       1.0  0.55410  0.74760  0.23810  1.0000 -0.1054881643
C   C78       1.0  0.44590  0.25240  0.76190  1.0000 -0.1054881643
C   C79       1.0  0.67290  0.76410  0.20870  1.0000 -0.0894040865
C   C80       1.0  0.32710  0.23590  0.79130  1.0000 -0.0894040865
C   C81       1.0  0.69220  0.83450  0.17960  1.0000 -0.0894040865
C   C82       1.0  0.30780  0.16550  0.82040  1.0000 -0.0894040865
C   C83       1.0  0.59190  0.88680  0.17920  1.0000 -0.0217666882
C   C84       1.0  0.40810  0.11320  0.82080  1.0000 -0.0217666882
C   C85       1.0  0.47620  0.87020  0.20920  1.0000 -0.0894040865
C   C86       1.0  0.52380  0.12980  0.79080  1.0000 -0.0894040865
C   C87       1.0  0.45580  0.80080  0.23940  1.0000 -0.0894040865
C   C88       1.0  0.54420  0.19920  0.76060  1.0000 -0.0894040865
C   C89       1.0  0.61130  0.96240  0.14630  1.0000 0.6498091359
C   C90       1.0  0.38870  0.03760  0.85370  1.0000 0.6498091359
S   S1        1.0  0.77450  0.15070  0.53249  1.0000 1.1115609724
S   S2        1.0  0.22550  0.84930  0.46751  1.0000 1.1115609724
S   S3        1.0  0.93990  0.63030  0.09723  1.0000 1.1157730241
S   S4        1.0  0.06010  0.36970  0.90277  1.0000 1.1157730241
S   S5        1.0  0.52460  0.65570  0.27131  1.0000 1.1115609724
S   S6        1.0  0.47540  0.34430  0.72869  1.0000 1.1115609724
O   O1        1.0  0.91040  0.13910  0.23840  1.0000 -0.6654544751
O   O2        1.0  0.08960  0.86090  0.76160  1.0000 -0.6654544751
O   O3        1.0  0.68500  0.11020  0.26480  1.0000 -0.6634726953
O   O4        1.0  0.31500  0.88980  0.73520  1.0000 -0.6634726953
O   O5        1.0  0.12430  0.12260  0.52430  1.0000 -0.1670557689
O   O6        1.0  0.87570  0.87740  0.47570  1.0000 -0.1670557689
O   O7        1.0  0.81790  0.07330  0.48620  1.0000 -0.3321391027
O   O8        1.0  0.18210  0.92670  0.51380  1.0000 -0.3321391027
O   O9        1.0  0.89160  0.23660  0.54820  1.0000 -0.5108149331
O   O10       1.0  0.10840  0.76340  0.45180  1.0000 -0.5108149331
O   O11       1.0  0.61790  0.14450  0.50530  1.0000 -0.5221951138
O   O12       1.0  0.38210  0.85550  0.49470  1.0000 -0.5221951138
O   O13       1.0  0.93960  0.99870  0.78990  1.0000 -0.6269080421
O   O14       1.0  0.06040  0.00130  0.21010  1.0000 -0.6247484665
O   O15       1.0  0.68510  0.96260  0.77070  1.0000 -0.7037804108
O   O16       1.0  0.31490  0.03740  0.22930  1.0000 -0.7037804108
O   O17       1.0  0.86780  0.20650  0.12680  1.0000 -0.6423851232
O   O18       1.0  0.13220  0.79350  0.87320  1.0000 -0.6423851232
O   O19       1.0  0.69080  0.23700  0.17440  1.0000 -0.6634726953
O   O20       1.0  0.30920  0.76300  0.82560  1.0000 -0.6634726953
O   O21       1.0  0.08620  0.65050  0.08270  1.0000 -0.529788522
O   O22       1.0  0.91380  0.34950  0.91730  1.0000 -0.529788522
O   O23       1.0  0.91210  0.69640  0.14410  1.0000 -0.5221951138
O   O24       1.0  0.08790  0.30360  0.85590  1.0000 -0.5221951138
O   O25       1.0  0.80980  0.60550  0.03160  1.0000 -0.3249765914
O   O26       1.0  0.19020  0.39450  0.96840  1.0000 -0.3321391027
O   O27       1.0  0.50580  0.99970  0.13870  1.0000 -0.6269080421
O   O28       1.0  0.49420  0.00030  0.86130  1.0000 -0.6269080421
O   O29       1.0  0.72960  0.98300  0.12760  1.0000 -0.6654544751
O   O30       1.0  0.27040  0.01700  0.87240  1.0000 -0.6654544751
O   O31       1.0  0.88190  0.85430  0.92340  1.0000 -0.6423851232
O   O32       1.0  0.11810  0.14570  0.07660  1.0000 -0.6423851232
O   O33       1.0  0.65760  0.88520  0.90460  1.0000 -0.6821717303
O   O34       1.0  0.34240  0.11480  0.09540  1.0000 -0.6821717303
O   O35       1.0  0.63690  0.60860  0.26320  1.0000 -0.5356280487
O   O36       1.0  0.36310  0.39140  0.73680  1.0000 -0.5356280487
O   O37       1.0  0.36430  0.59540  0.22090  1.0000 -0.3025581073
O   O38       1.0  0.63570  0.40460  0.77910  1.0000 -0.3025581073
O   O39       1.0  0.55250  0.23570  0.30670  1.0000 -0.7037804108
O   O40       1.0  0.44750  0.76430  0.69330  1.0000 -0.7037804108
O   O41       1.0  0.42380  0.28120  0.19910  1.0000 -0.6119648497
O   O42       1.0  0.57620  0.71880  0.80090  1.0000 -0.6119648497
O   O43       1.0  0.54640  0.59380  0.06490  1.0000 -0.164476661
O   O44       1.0  0.45360  0.40620  0.93510  1.0000 -0.164476661
O   O45       1.0  0.20910  0.19460  0.20990  1.0000 -0.7187560182
O   O46       1.0  0.79090  0.80540  0.79010  1.0000 -0.7187560182
O   O47       1.0  0.13480  0.59910  0.27500  1.0000 -0.1837221626
O   O48       1.0  0.86520  0.40090  0.72500  1.0000 -0.1837221626
O   O49       1.0  0.49790  0.68180  0.33160  1.0000 -0.5048983674
O   O50       1.0  0.50210  0.31820  0.66840  1.0000 -0.5048983674
