# DDEC6 charges by PACMAN v1.1 (https://github.com/mtap-research/PACMAN-charge/)
data_2013[ZnCr][lon]3[ASR]8
_chemical_formula_sum              "Zn12 Cr6 H72 C144 N12 O86"
_cell_length_a       19.0306
_cell_length_b       19.0306
_cell_length_c       36.2445
_cell_angle_alpha    90
_cell_angle_beta     90
_cell_angle_gamma    120

_symmetry_space_group_name_H-M    "P 1"
_symmetry_Int_Tables_number       1

loop_
  _symmetry_equiv_pos_as_xyz
  'x, y, z'

loop_
  _atom_site_type_symbol
  _atom_site_label
  _atom_site_symmetry_multiplicity
  _atom_site_fract_x
  _atom_site_fract_y
  _atom_site_fract_z
  _atom_site_occupancy
  _atom_site_charge
Zn  Zn1       1.0  0.51999  0.48001  0.53660  1.0000 0.8246008741
Zn  Zn2       1.0  0.51999  0.03998  0.53660  1.0000 0.8246008741
Zn  Zn3       1.0  0.96002  0.48001  0.53660  1.0000 0.8250725256
Zn  Zn4       1.0  0.48001  0.51999  0.03660  1.0000 0.8246008741
Zn  Zn5       1.0  0.48001  0.96002  0.03660  1.0000 0.8246008741
Zn  Zn6       1.0  0.03998  0.51999  0.03660  1.0000 0.8246008741
Zn  Zn7       1.0  0.48001  0.51999  0.46340  1.0000 0.8246008741
Zn  Zn8       1.0  0.03998  0.51999  0.46340  1.0000 0.8246008741
Zn  Zn9       1.0  0.48001  0.96002  0.46340  1.0000 0.8246008741
Zn  Zn10      1.0  0.51999  0.48001  0.96340  1.0000 0.8250725256
Zn  Zn11      1.0  0.96002  0.48001  0.96340  1.0000 0.8250725256
Zn  Zn12      1.0  0.51999  0.03998  0.96340  1.0000 0.8250725256
Cr  Cr1       1.0  0.55034  0.27517  0.75000  1.0000 1.4435994612
Cr  Cr2       1.0  0.72483  0.27517  0.75000  1.0000 1.4435994612
Cr  Cr3       1.0  0.72483  0.44966  0.75000  1.0000 1.4435994612
Cr  Cr4       1.0  0.44966  0.72483  0.25000  1.0000 1.4435994612
Cr  Cr5       1.0  0.27517  0.72483  0.25000  1.0000 1.4435994612
Cr  Cr6       1.0  0.27517  0.55034  0.25000  1.0000 1.4435994612
H   H1        1.0  0.67320  0.53510  0.65330  1.0000 0.1447780715
H   H2        1.0  0.46490  0.13810  0.65330  1.0000 0.1447780715
H   H3        1.0  0.86190  0.32680  0.65330  1.0000 0.1447780715
H   H4        1.0  0.32680  0.46490  0.15330  1.0000 0.1447780715
H   H5        1.0  0.53510  0.86190  0.15330  1.0000 0.1447780715
H   H6        1.0  0.13810  0.67320  0.15330  1.0000 0.1447780715
H   H7        1.0  0.53510  0.67320  0.34670  1.0000 0.1447780715
H   H8        1.0  0.13810  0.46490  0.34670  1.0000 0.1447780715
H   H9        1.0  0.32680  0.86190  0.34670  1.0000 0.1447780715
H   H10       1.0  0.46490  0.32680  0.84670  1.0000 0.1447780715
H   H11       1.0  0.86190  0.53510  0.84670  1.0000 0.1447780715
H   H12       1.0  0.67320  0.13810  0.84670  1.0000 0.1447780715
H   H13       1.0  0.32680  0.46490  0.34670  1.0000 0.1447780715
H   H14       1.0  0.53510  0.86190  0.34670  1.0000 0.1447780715
H   H15       1.0  0.13810  0.67320  0.34670  1.0000 0.1447780715
H   H16       1.0  0.67320  0.53510  0.84670  1.0000 0.1447780715
H   H17       1.0  0.46490  0.13810  0.84670  1.0000 0.1447780715
H   H18       1.0  0.86190  0.32680  0.84670  1.0000 0.1447780715
H   H19       1.0  0.46490  0.32680  0.65330  1.0000 0.1447780715
H   H20       1.0  0.86190  0.53510  0.65330  1.0000 0.1447780715
H   H21       1.0  0.67320  0.13810  0.65330  1.0000 0.1447780715
H   H22       1.0  0.53510  0.67320  0.15330  1.0000 0.1447780715
H   H23       1.0  0.13810  0.46490  0.15330  1.0000 0.1447780715
H   H24       1.0  0.32680  0.86190  0.15330  1.0000 0.1447780715
H   H25       1.0  0.64330  0.55920  0.59470  1.0000 0.1276639985
H   H26       1.0  0.44080  0.08410  0.59470  1.0000 0.1276639985
H   H27       1.0  0.91590  0.35670  0.59470  1.0000 0.1276639985
H   H28       1.0  0.35670  0.44080  0.09470  1.0000 0.1276639985
H   H29       1.0  0.55920  0.91590  0.09470  1.0000 0.1276639985
H   H30       1.0  0.08410  0.64330  0.09470  1.0000 0.1276639985
H   H31       1.0  0.55920  0.64330  0.40530  1.0000 0.1276639985
H   H32       1.0  0.08410  0.44080  0.40530  1.0000 0.1276639985
H   H33       1.0  0.35670  0.91590  0.40530  1.0000 0.1276639985
H   H34       1.0  0.44080  0.35670  0.90530  1.0000 0.1276639985
H   H35       1.0  0.91590  0.55920  0.90530  1.0000 0.1276639985
H   H36       1.0  0.64330  0.08410  0.90530  1.0000 0.1276639985
H   H37       1.0  0.35670  0.44080  0.40530  1.0000 0.1276639985
H   H38       1.0  0.55920  0.91590  0.40530  1.0000 0.1276639985
H   H39       1.0  0.08410  0.64330  0.40530  1.0000 0.1276639985
H   H40       1.0  0.64330  0.55920  0.90530  1.0000 0.1276639985
H   H41       1.0  0.44080  0.08410  0.90530  1.0000 0.1276639985
H   H42       1.0  0.91590  0.35670  0.90530  1.0000 0.1276639985
H   H43       1.0  0.44080  0.35670  0.59470  1.0000 0.1276639985
H   H44       1.0  0.91590  0.55920  0.59470  1.0000 0.1276639985
H   H45       1.0  0.64330  0.08410  0.59470  1.0000 0.1276639985
H   H46       1.0  0.55920  0.64330  0.09470  1.0000 0.1276639985
H   H47       1.0  0.08410  0.44080  0.09470  1.0000 0.1276639985
H   H48       1.0  0.35670  0.91590  0.09470  1.0000 0.1276639985
H   H49       1.0  0.73880  0.61090  0.41210  1.0000 0.1483203756
H   H50       1.0  0.38910  0.12790  0.41210  1.0000 0.1483203756
H   H51       1.0  0.87210  0.26120  0.41210  1.0000 0.1483203756
H   H52       1.0  0.26120  0.38910  0.91210  1.0000 0.1483203756
H   H53       1.0  0.61090  0.87210  0.91210  1.0000 0.1483203756
H   H54       1.0  0.12790  0.73880  0.91210  1.0000 0.1483203756
H   H55       1.0  0.61090  0.73880  0.58790  1.0000 0.1483203756
H   H56       1.0  0.12790  0.38910  0.58790  1.0000 0.1483203756
H   H57       1.0  0.26120  0.87210  0.58790  1.0000 0.1483203756
H   H58       1.0  0.38910  0.26120  0.08790  1.0000 0.1483203756
H   H59       1.0  0.87210  0.61090  0.08790  1.0000 0.1483203756
H   H60       1.0  0.73880  0.12790  0.08790  1.0000 0.1483203756
H   H61       1.0  0.26120  0.38910  0.58790  1.0000 0.1483203756
H   H62       1.0  0.61090  0.87210  0.58790  1.0000 0.1483203756
H   H63       1.0  0.12790  0.73880  0.58790  1.0000 0.1483203756
H   H64       1.0  0.73880  0.61090  0.08790  1.0000 0.1483203756
H   H65       1.0  0.38910  0.12790  0.08790  1.0000 0.1483203756
H   H66       1.0  0.87210  0.26120  0.08790  1.0000 0.1483203756
H   H67       1.0  0.38910  0.26120  0.41210  1.0000 0.1483203756
H   H68       1.0  0.87210  0.61090  0.41210  1.0000 0.1483203756
H   H69       1.0  0.73880  0.12790  0.41210  1.0000 0.1483203756
H   H70       1.0  0.61090  0.73880  0.91210  1.0000 0.1483203756
H   H71       1.0  0.12790  0.38910  0.91210  1.0000 0.1483203756
H   H72       1.0  0.26120  0.87210  0.91210  1.0000 0.1483203756
C   C1        1.0  0.62468  0.49684  0.64184  1.0000 -0.1604594291
C   C2        1.0  0.50316  0.12784  0.64184  1.0000 -0.1604594291
C   C3        1.0  0.87216  0.37532  0.64184  1.0000 -0.1604594291
C   C4        1.0  0.37532  0.50316  0.14184  1.0000 -0.1604594291
C   C5        1.0  0.49684  0.87216  0.14184  1.0000 -0.1604594291
C   C6        1.0  0.12784  0.62468  0.14184  1.0000 -0.1604594291
C   C7        1.0  0.49684  0.62468  0.35816  1.0000 -0.1604594291
C   C8        1.0  0.12784  0.50316  0.35816  1.0000 -0.1604594291
C   C9        1.0  0.37532  0.87216  0.35816  1.0000 -0.1604594291
C   C10       1.0  0.50316  0.37532  0.85816  1.0000 -0.1604594291
C   C11       1.0  0.87216  0.49684  0.85816  1.0000 -0.1604594291
C   C12       1.0  0.62468  0.12784  0.85816  1.0000 -0.1604594291
C   C13       1.0  0.37532  0.50316  0.35816  1.0000 -0.1604594291
C   C14       1.0  0.49684  0.87216  0.35816  1.0000 -0.1604594291
C   C15       1.0  0.12784  0.62468  0.35816  1.0000 -0.1604594291
C   C16       1.0  0.62468  0.49684  0.85816  1.0000 -0.1604594291
C   C17       1.0  0.50316  0.12784  0.85816  1.0000 -0.1604594291
C   C18       1.0  0.87216  0.37532  0.85816  1.0000 -0.1604594291
C   C19       1.0  0.50316  0.37532  0.64184  1.0000 -0.1604594291
C   C20       1.0  0.87216  0.49684  0.64184  1.0000 -0.1604594291
C   C21       1.0  0.62468  0.12784  0.64184  1.0000 -0.1604594291
C   C22       1.0  0.49684  0.62468  0.14184  1.0000 -0.1604594291
C   C23       1.0  0.12784  0.50316  0.14184  1.0000 -0.1604594291
C   C24       1.0  0.37532  0.87216  0.14184  1.0000 -0.1604594291
C   C25       1.0  0.60656  0.51055  0.60657  1.0000 0.0824591132
C   C26       1.0  0.48945  0.09601  0.60657  1.0000 0.0824591132
C   C27       1.0  0.90399  0.39344  0.60657  1.0000 0.0824591132
C   C28       1.0  0.39344  0.48945  0.10657  1.0000 0.0824591132
C   C29       1.0  0.51055  0.90399  0.10657  1.0000 0.0824591132
C   C30       1.0  0.09601  0.60656  0.10657  1.0000 0.0824591132
C   C31       1.0  0.51055  0.60656  0.39343  1.0000 0.0824591132
C   C32       1.0  0.09601  0.48945  0.39343  1.0000 0.0824591132
C   C33       1.0  0.39344  0.90399  0.39343  1.0000 0.0824591132
C   C34       1.0  0.48945  0.39344  0.89343  1.0000 0.0824591132
C   C35       1.0  0.90399  0.51055  0.89343  1.0000 0.0824591132
C   C36       1.0  0.60656  0.09601  0.89343  1.0000 0.0824591132
C   C37       1.0  0.39344  0.48945  0.39343  1.0000 0.0824591132
C   C38       1.0  0.51055  0.90399  0.39343  1.0000 0.0824591132
C   C39       1.0  0.09601  0.60656  0.39343  1.0000 0.0824591132
C   C40       1.0  0.60656  0.51055  0.89343  1.0000 0.0824591132
C   C41       1.0  0.48945  0.09601  0.89343  1.0000 0.0824591132
C   C42       1.0  0.90399  0.39344  0.89343  1.0000 0.0824591132
C   C43       1.0  0.48945  0.39344  0.60657  1.0000 0.0824591132
C   C44       1.0  0.90399  0.51055  0.60657  1.0000 0.0824591132
C   C45       1.0  0.60656  0.09601  0.60657  1.0000 0.0824591132
C   C46       1.0  0.51055  0.60656  0.10657  1.0000 0.0824591132
C   C47       1.0  0.09601  0.48945  0.10657  1.0000 0.0824591132
C   C48       1.0  0.39344  0.90399  0.10657  1.0000 0.0824591132
C   C49       1.0  0.59276  0.40724  0.69661  1.0000 0.60714503
C   C50       1.0  0.59276  0.18552  0.69661  1.0000 0.60714503
C   C51       1.0  0.81448  0.40724  0.69661  1.0000 0.60714503
C   C52       1.0  0.40724  0.59276  0.19661  1.0000 0.60714503
C   C53       1.0  0.40724  0.81448  0.19661  1.0000 0.60714503
C   C54       1.0  0.18552  0.59276  0.19661  1.0000 0.60714503
C   C55       1.0  0.40724  0.59276  0.30339  1.0000 0.60714503
C   C56       1.0  0.18552  0.59276  0.30339  1.0000 0.60714503
C   C57       1.0  0.40724  0.81448  0.30339  1.0000 0.60714503
C   C58       1.0  0.59276  0.40724  0.80339  1.0000 0.60714503
C   C59       1.0  0.81448  0.40724  0.80339  1.0000 0.60714503
C   C60       1.0  0.59276  0.18552  0.80339  1.0000 0.60714503
C   C61       1.0  0.57205  0.42795  0.65960  1.0000 0.0155470246
C   C62       1.0  0.57205  0.14410  0.65960  1.0000 0.0155470246
C   C63       1.0  0.85590  0.42795  0.65960  1.0000 0.0155470246
C   C64       1.0  0.42795  0.57205  0.15960  1.0000 0.0155470246
C   C65       1.0  0.42795  0.85590  0.15960  1.0000 0.0155470246
C   C66       1.0  0.14410  0.57205  0.15960  1.0000 0.0155470246
C   C67       1.0  0.42795  0.57205  0.34040  1.0000 0.0155470246
C   C68       1.0  0.14410  0.57205  0.34040  1.0000 0.0155470246
C   C69       1.0  0.42795  0.85590  0.34040  1.0000 0.0155470246
C   C70       1.0  0.57205  0.42795  0.84040  1.0000 0.0155470246
C   C71       1.0  0.85590  0.42795  0.84040  1.0000 0.0155470246
C   C72       1.0  0.57205  0.14410  0.84040  1.0000 0.0155470246
C   C73       1.0  0.64443  0.54264  0.47909  1.0000 0.5451040255
C   C74       1.0  0.45736  0.10179  0.47909  1.0000 0.5451040255
C   C75       1.0  0.89821  0.35557  0.47909  1.0000 0.5451040255
C   C76       1.0  0.35557  0.45736  0.97909  1.0000 0.5451040255
C   C77       1.0  0.54264  0.89821  0.97909  1.0000 0.5451040255
C   C78       1.0  0.10179  0.64443  0.97909  1.0000 0.5451040255
C   C79       1.0  0.54264  0.64443  0.52091  1.0000 0.5451040255
C   C80       1.0  0.10179  0.45736  0.52091  1.0000 0.5451040255
C   C81       1.0  0.35557  0.89821  0.52091  1.0000 0.5451040255
C   C82       1.0  0.45736  0.35557  0.02091  1.0000 0.5451040255
C   C83       1.0  0.89821  0.54264  0.02091  1.0000 0.5448340165
C   C84       1.0  0.64443  0.10179  0.02091  1.0000 0.5448340165
C   C85       1.0  0.35557  0.45736  0.52091  1.0000 0.5451040255
C   C86       1.0  0.54264  0.89821  0.52091  1.0000 0.5451040255
C   C87       1.0  0.10179  0.64443  0.52091  1.0000 0.5451040255
C   C88       1.0  0.64443  0.54264  0.02091  1.0000 0.5448340165
C   C89       1.0  0.45736  0.10179  0.02091  1.0000 0.5448340165
C   C90       1.0  0.89821  0.35557  0.02091  1.0000 0.5448340165
C   C91       1.0  0.45736  0.35557  0.47909  1.0000 0.5451040255
C   C92       1.0  0.89821  0.54264  0.47909  1.0000 0.5451040255
C   C93       1.0  0.64443  0.10179  0.47909  1.0000 0.5448340165
C   C94       1.0  0.54264  0.64443  0.97909  1.0000 0.5451040255
C   C95       1.0  0.10179  0.45736  0.97909  1.0000 0.5451040255
C   C96       1.0  0.35557  0.89821  0.97909  1.0000 0.5451040255
C   C97       1.0  0.72317  0.56137  0.46364  1.0000 0.0564886281
C   C98       1.0  0.43863  0.16180  0.46364  1.0000 0.0564886281
C   C99       1.0  0.83820  0.27683  0.46364  1.0000 0.0564886281
C   C100      1.0  0.27683  0.43863  0.96364  1.0000 0.0564886281
C   C101      1.0  0.56137  0.83820  0.96364  1.0000 0.0564886281
C   C102      1.0  0.16180  0.72317  0.96364  1.0000 0.0564886281
C   C103      1.0  0.56137  0.72317  0.53636  1.0000 0.0564886281
C   C104      1.0  0.16180  0.43863  0.53636  1.0000 0.0564886281
C   C105      1.0  0.27683  0.83820  0.53636  1.0000 0.0564886281
C   C106      1.0  0.43863  0.27683  0.03636  1.0000 0.0564886281
C   C107      1.0  0.83820  0.56137  0.03636  1.0000 0.0564886281
C   C108      1.0  0.72317  0.16180  0.03636  1.0000 0.0564886281
C   C109      1.0  0.27683  0.43863  0.53636  1.0000 0.0564886281
C   C110      1.0  0.56137  0.83820  0.53636  1.0000 0.0564886281
C   C111      1.0  0.16180  0.72317  0.53636  1.0000 0.0564886281
C   C112      1.0  0.72317  0.56137  0.03636  1.0000 0.0564886281
C   C113      1.0  0.43863  0.16180  0.03636  1.0000 0.0564886281
C   C114      1.0  0.83820  0.27683  0.03636  1.0000 0.0564886281
C   C115      1.0  0.43863  0.27683  0.46364  1.0000 0.0564886281
C   C116      1.0  0.83820  0.56137  0.46364  1.0000 0.0564886281
C   C117      1.0  0.72317  0.16180  0.46364  1.0000 0.0564886281
C   C118      1.0  0.56137  0.72317  0.96364  1.0000 0.0564886281
C   C119      1.0  0.16180  0.43863  0.96364  1.0000 0.0564886281
C   C120      1.0  0.27683  0.83820  0.96364  1.0000 0.0564886281
C   C121      1.0  0.75908  0.59260  0.43114  1.0000 -0.1799648492
C   C122      1.0  0.40740  0.16648  0.43114  1.0000 -0.1799648492
C   C123      1.0  0.83352  0.24092  0.43114  1.0000 -0.1799648492
C   C124      1.0  0.24092  0.40740  0.93114  1.0000 -0.1799648492
C   C125      1.0  0.59260  0.83352  0.93114  1.0000 -0.1799648492
C   C126      1.0  0.16648  0.75908  0.93114  1.0000 -0.1799648492
C   C127      1.0  0.59260  0.75908  0.56886  1.0000 -0.1799648492
C   C128      1.0  0.16648  0.40740  0.56886  1.0000 -0.1799648492
C   C129      1.0  0.24092  0.83352  0.56886  1.0000 -0.1799648492
C   C130      1.0  0.40740  0.24092  0.06886  1.0000 -0.1799648492
C   C131      1.0  0.83352  0.59260  0.06886  1.0000 -0.1799648492
C   C132      1.0  0.75908  0.16648  0.06886  1.0000 -0.1799648492
C   C133      1.0  0.24092  0.40740  0.56886  1.0000 -0.1799648492
C   C134      1.0  0.59260  0.83352  0.56886  1.0000 -0.1799648492
C   C135      1.0  0.16648  0.75908  0.56886  1.0000 -0.1799648492
C   C136      1.0  0.75908  0.59260  0.06886  1.0000 -0.1799648492
C   C137      1.0  0.40740  0.16648  0.06886  1.0000 -0.1799648492
C   C138      1.0  0.83352  0.24092  0.06886  1.0000 -0.1799648492
C   C139      1.0  0.40740  0.24092  0.43114  1.0000 -0.1799648492
C   C140      1.0  0.83352  0.59260  0.43114  1.0000 -0.1799648492
C   C141      1.0  0.75908  0.16648  0.43114  1.0000 -0.1799648492
C   C142      1.0  0.59260  0.75908  0.93114  1.0000 -0.1799648492
C   C143      1.0  0.16648  0.40740  0.93114  1.0000 -0.1799648492
C   C144      1.0  0.24092  0.83352  0.93114  1.0000 -0.1799648492
N   N1        1.0  0.54088  0.45912  0.58897  1.0000 -0.1702186031
N   N2        1.0  0.54088  0.08176  0.58897  1.0000 -0.1702186031
N   N3        1.0  0.91824  0.45912  0.58897  1.0000 -0.1702186031
N   N4        1.0  0.45912  0.54088  0.08897  1.0000 -0.1702186031
N   N5        1.0  0.45912  0.91824  0.08897  1.0000 -0.1702186031
N   N6        1.0  0.08176  0.54088  0.08897  1.0000 -0.1702186031
N   N7        1.0  0.45912  0.54088  0.41103  1.0000 -0.1702186031
N   N8        1.0  0.08176  0.54088  0.41103  1.0000 -0.1702186031
N   N9        1.0  0.45912  0.91824  0.41103  1.0000 -0.1702186031
N   N10       1.0  0.54088  0.45912  0.91103  1.0000 -0.1702186031
N   N11       1.0  0.91824  0.45912  0.91103  1.0000 -0.1702186031
N   N12       1.0  0.54088  0.08176  0.91103  1.0000 -0.1702186031
O   O1        1.0  0.66667  0.33333  0.75000  1.0000 -1.0943242325
O   O2        1.0  0.33333  0.66667  0.25000  1.0000 -1.0943242325
O   O3        1.0  0.54139  0.34094  0.71038  1.0000 -0.5713639868
O   O4        1.0  0.65906  0.20045  0.71038  1.0000 -0.5713639868
O   O5        1.0  0.79955  0.45861  0.71038  1.0000 -0.5713639868
O   O6        1.0  0.45861  0.65906  0.21038  1.0000 -0.5713639868
O   O7        1.0  0.34094  0.79955  0.21038  1.0000 -0.5713639868
O   O8        1.0  0.20045  0.54139  0.21038  1.0000 -0.5713639868
O   O9        1.0  0.34094  0.54139  0.28962  1.0000 -0.5713639868
O   O10       1.0  0.20045  0.65906  0.28962  1.0000 -0.5713639868
O   O11       1.0  0.45861  0.79955  0.28962  1.0000 -0.5713639868
O   O12       1.0  0.65906  0.45861  0.78962  1.0000 -0.5713639868
O   O13       1.0  0.79955  0.34094  0.78962  1.0000 -0.5713639868
O   O14       1.0  0.54139  0.20045  0.78962  1.0000 -0.5713639868
O   O15       1.0  0.45861  0.65906  0.28962  1.0000 -0.5713639868
O   O16       1.0  0.34094  0.79955  0.28962  1.0000 -0.5713639868
O   O17       1.0  0.20045  0.54139  0.28962  1.0000 -0.5713639868
O   O18       1.0  0.54139  0.34094  0.78962  1.0000 -0.5713639868
O   O19       1.0  0.65906  0.20045  0.78962  1.0000 -0.5713639868
O   O20       1.0  0.79955  0.45861  0.78962  1.0000 -0.5713639868
O   O21       1.0  0.65906  0.45861  0.71038  1.0000 -0.5713639868
O   O22       1.0  0.79955  0.34094  0.71038  1.0000 -0.5713639868
O   O23       1.0  0.54139  0.20045  0.71038  1.0000 -0.5713639868
O   O24       1.0  0.34094  0.54139  0.21038  1.0000 -0.5713639868
O   O25       1.0  0.20045  0.65906  0.21038  1.0000 -0.5713639868
O   O26       1.0  0.45861  0.79955  0.21038  1.0000 -0.5713639868
O   O27       1.0  0.77118  0.54236  0.48449  1.0000 -0.1005872874
O   O28       1.0  0.45764  0.22882  0.48449  1.0000 -0.1005872874
O   O29       1.0  0.77118  0.22882  0.48449  1.0000 -0.1005872874
O   O30       1.0  0.22882  0.45764  0.98449  1.0000 -0.1005872874
O   O31       1.0  0.54236  0.77118  0.98449  1.0000 -0.1005872874
O   O32       1.0  0.22882  0.77118  0.98449  1.0000 -0.1005872874
O   O33       1.0  0.54236  0.77118  0.51551  1.0000 -0.1005872874
O   O34       1.0  0.22882  0.45764  0.51551  1.0000 -0.1005872874
O   O35       1.0  0.22882  0.77118  0.51551  1.0000 -0.1005872874
O   O36       1.0  0.45764  0.22882  0.01551  1.0000 -0.1005872874
O   O37       1.0  0.77118  0.54236  0.01551  1.0000 -0.1005872874
O   O38       1.0  0.77118  0.22882  0.01551  1.0000 -0.1005872874
O   O39       1.0  0.62861  0.51814  0.51143  1.0000 -0.5127061817
O   O40       1.0  0.48186  0.11047  0.51143  1.0000 -0.5127061817
O   O41       1.0  0.88953  0.37139  0.51143  1.0000 -0.5127061817
O   O42       1.0  0.37139  0.48186  0.01143  1.0000 -0.5127061817
O   O43       1.0  0.51814  0.88953  0.01143  1.0000 -0.5127061817
O   O44       1.0  0.11047  0.62861  0.01143  1.0000 -0.5127061817
O   O45       1.0  0.51814  0.62861  0.48857  1.0000 -0.5127061817
O   O46       1.0  0.11047  0.48186  0.48857  1.0000 -0.5127061817
O   O47       1.0  0.37139  0.88953  0.48857  1.0000 -0.5127061817
O   O48       1.0  0.48186  0.37139  0.98857  1.0000 -0.5127061817
O   O49       1.0  0.88953  0.51814  0.98857  1.0000 -0.5127061817
O   O50       1.0  0.62861  0.11047  0.98857  1.0000 -0.5127061817
O   O51       1.0  0.37139  0.48186  0.48857  1.0000 -0.5127061817
O   O52       1.0  0.51814  0.88953  0.48857  1.0000 -0.5127061817
O   O53       1.0  0.11047  0.62861  0.48857  1.0000 -0.5127061817
O   O54       1.0  0.62861  0.51814  0.98857  1.0000 -0.5127061817
O   O55       1.0  0.48186  0.11047  0.98857  1.0000 -0.5127061817
O   O56       1.0  0.88953  0.37139  0.98857  1.0000 -0.5127061817
O   O57       1.0  0.48186  0.37139  0.51143  1.0000 -0.5127061817
O   O58       1.0  0.88953  0.51814  0.51143  1.0000 -0.5127061817
O   O59       1.0  0.62861  0.11047  0.51143  1.0000 -0.5127061817
O   O60       1.0  0.51814  0.62861  0.01143  1.0000 -0.5127061817
O   O61       1.0  0.11047  0.48186  0.01143  1.0000 -0.5127061817
O   O62       1.0  0.37139  0.88953  0.01143  1.0000 -0.5127061817
O   O63       1.0  0.59899  0.55247  0.45720  1.0000 -0.5382805703
O   O64       1.0  0.44753  0.04652  0.45720  1.0000 -0.5382805703
O   O65       1.0  0.95348  0.40101  0.45720  1.0000 -0.5382805703
O   O66       1.0  0.40101  0.44753  0.95720  1.0000 -0.5382805703
O   O67       1.0  0.55247  0.95348  0.95720  1.0000 -0.5382805703
O   O68       1.0  0.04652  0.59899  0.95720  1.0000 -0.5382805703
O   O69       1.0  0.55247  0.59899  0.54280  1.0000 -0.5382805703
O   O70       1.0  0.04652  0.44753  0.54280  1.0000 -0.5382805703
O   O71       1.0  0.40101  0.95348  0.54280  1.0000 -0.5382805703
O   O72       1.0  0.44753  0.40101  0.04280  1.0000 -0.5382805703
O   O73       1.0  0.95348  0.55247  0.04280  1.0000 -0.5382805703
O   O74       1.0  0.59899  0.04652  0.04280  1.0000 -0.5382805703
O   O75       1.0  0.40101  0.44753  0.54280  1.0000 -0.5382805703
O   O76       1.0  0.55247  0.95348  0.54280  1.0000 -0.5382805703
O   O77       1.0  0.04652  0.59899  0.54280  1.0000 -0.5382805703
O   O78       1.0  0.59899  0.55247  0.04280  1.0000 -0.5382805703
O   O79       1.0  0.44753  0.04652  0.04280  1.0000 -0.5382805703
O   O80       1.0  0.95348  0.40101  0.04280  1.0000 -0.5382805703
O   O81       1.0  0.44753  0.40101  0.45720  1.0000 -0.5382805703
O   O82       1.0  0.95348  0.55247  0.45720  1.0000 -0.5382805703
O   O83       1.0  0.59899  0.04652  0.45720  1.0000 -0.5382805703
O   O84       1.0  0.55247  0.59899  0.95720  1.0000 -0.5382805703
O   O85       1.0  0.04652  0.44753  0.95720  1.0000 -0.5382805703
O   O86       1.0  0.40101  0.95348  0.95720  1.0000 -0.5382805703
