# DDEC6 charges by PACMAN v1.1 (https://github.com/mtap-research/PACMAN-charge/)
data_2013[Cu][nbo]3[ASR]1
_chemical_formula_sum              "Cu8 H48 C58 S8 N16 O8"
_cell_length_a       13.4481
_cell_length_b       13.4481
_cell_length_c       10.7237
_cell_angle_alpha    90
_cell_angle_beta     90
_cell_angle_gamma    90

_symmetry_space_group_name_H-M    "P 1"
_symmetry_Int_Tables_number       1

loop_
  _symmetry_equiv_pos_as_xyz
  'x, y, z'

loop_
  _atom_site_type_symbol
  _atom_site_label
  _atom_site_symmetry_multiplicity
  _atom_site_fract_x
  _atom_site_fract_y
  _atom_site_fract_z
  _atom_site_occupancy
  _atom_site_charge
Cu  Cu1       1.0  0.02122  0.40289  0.99289  1.0000 0.2828606307
Cu  Cu2       1.0  0.97878  0.59711  0.99289  1.0000 0.2828606307
Cu  Cu3       1.0  0.90289  0.47878  0.49289  1.0000 0.2828606307
Cu  Cu4       1.0  0.09711  0.52122  0.49289  1.0000 0.2828606307
Cu  Cu5       1.0  0.47878  0.09711  0.50711  1.0000 0.2828606307
Cu  Cu6       1.0  0.52122  0.90289  0.50711  1.0000 0.2828606307
Cu  Cu7       1.0  0.59711  0.02122  0.00711  1.0000 0.2828606307
Cu  Cu8       1.0  0.40289  0.97878  0.00711  1.0000 0.2828606307
H   H1        1.0  0.98060  0.26640  0.21940  1.0000 0.1302956953
H   H2        1.0  0.01940  0.73360  0.21940  1.0000 0.1302956953
H   H3        1.0  0.76640  0.51940  0.71940  1.0000 0.1302956953
H   H4        1.0  0.23360  0.48060  0.71940  1.0000 0.1302956953
H   H5        1.0  0.51940  0.23360  0.28060  1.0000 0.1302956953
H   H6        1.0  0.48060  0.76640  0.28060  1.0000 0.1302956953
H   H7        1.0  0.73360  0.98060  0.78060  1.0000 0.1302956953
H   H8        1.0  0.26640  0.01940  0.78060  1.0000 0.1302956953
H   H9        1.0  0.20600  0.07570  0.24480  1.0000 0.1302956953
H   H10       1.0  0.79400  0.92430  0.24480  1.0000 0.1302956953
H   H11       1.0  0.57570  0.29400  0.74480  1.0000 0.1302956953
H   H12       1.0  0.42430  0.70600  0.74480  1.0000 0.1302956953
H   H13       1.0  0.29400  0.42430  0.25520  1.0000 0.1302956953
H   H14       1.0  0.70600  0.57570  0.25520  1.0000 0.1302956953
H   H15       1.0  0.92430  0.20600  0.75520  1.0000 0.1302956953
H   H16       1.0  0.07570  0.79400  0.75520  1.0000 0.1302956953
H   H17       1.0  0.27670  0.15540  0.07510  1.0000 0.1206584662
H   H18       1.0  0.72330  0.84460  0.07510  1.0000 0.1206584662
H   H19       1.0  0.65540  0.22330  0.57510  1.0000 0.1206584662
H   H20       1.0  0.34460  0.77670  0.57510  1.0000 0.1206584662
H   H21       1.0  0.22330  0.34460  0.42490  1.0000 0.1206584662
H   H22       1.0  0.77670  0.65540  0.42490  1.0000 0.1206584662
H   H23       1.0  0.84460  0.27670  0.92490  1.0000 0.1206584662
H   H24       1.0  0.15540  0.72330  0.92490  1.0000 0.1206584662
H   H25       1.0  0.19400  0.28000  0.97590  1.0000 0.108838135
H   H26       1.0  0.80600  0.72000  0.97590  1.0000 0.108838135
H   H27       1.0  0.78000  0.30600  0.47590  1.0000 0.108838135
H   H28       1.0  0.22000  0.69400  0.47590  1.0000 0.108838135
H   H29       1.0  0.30600  0.22000  0.52410  1.0000 0.108838135
H   H30       1.0  0.69400  0.78000  0.52410  1.0000 0.108838135
H   H31       1.0  0.72000  0.19400  0.02410  1.0000 0.108838135
H   H32       1.0  0.28000  0.80600  0.02410  1.0000 0.108838135
H   H33       1.0  0.11030  0.99930  0.36560  1.0000 0.1032186948
H   H34       1.0  0.88970  0.00070  0.36560  1.0000 0.1032186948
H   H35       1.0  0.49930  0.38970  0.86560  1.0000 0.1032186948
H   H36       1.0  0.50070  0.61030  0.86560  1.0000 0.1032186948
H   H37       1.0  0.38970  0.50070  0.13440  1.0000 0.1032186948
H   H38       1.0  0.61030  0.49930  0.13440  1.0000 0.1032186948
H   H39       1.0  0.00070  0.11030  0.63440  1.0000 0.1032186948
H   H40       1.0  0.99930  0.88970  0.63440  1.0000 0.1032186948
H   H41       1.0  0.13070  0.07790  0.47130  1.0000 0.108838135
H   H42       1.0  0.86930  0.92210  0.47130  1.0000 0.108838135
H   H43       1.0  0.57790  0.36930  0.97130  1.0000 0.108838135
H   H44       1.0  0.42210  0.63070  0.97130  1.0000 0.108838135
H   H45       1.0  0.36930  0.42210  0.02870  1.0000 0.108838135
H   H46       1.0  0.63070  0.57790  0.02870  1.0000 0.108838135
H   H47       1.0  0.92210  0.13070  0.52870  1.0000 0.108838135
H   H48       1.0  0.07790  0.86930  0.52870  1.0000 0.108838135
C   C1        1.0  0.87460  0.46170  0.20790  1.0000 0.2652135283
C   C2        1.0  0.12540  0.53830  0.20790  1.0000 0.2652135283
C   C3        1.0  0.96170  0.62540  0.70790  1.0000 0.2652135283
C   C4        1.0  0.03830  0.37460  0.70790  1.0000 0.2652135283
C   C5        1.0  0.62540  0.03830  0.29210  1.0000 0.2652135283
C   C6        1.0  0.37460  0.96170  0.29210  1.0000 0.2652135283
C   C7        1.0  0.53830  0.87460  0.79210  1.0000 0.2652135283
C   C8        1.0  0.46170  0.12540  0.79210  1.0000 0.2652135283
C   C9        1.0  0.04030  0.24190  0.18820  1.0000 -0.0518645303
C   C10       1.0  0.95970  0.75810  0.18820  1.0000 -0.0518645303
C   C11       1.0  0.74190  0.45970  0.68820  1.0000 -0.0518645303
C   C12       1.0  0.25810  0.54030  0.68820  1.0000 -0.0518645303
C   C13       1.0  0.45970  0.25810  0.31180  1.0000 -0.0518645303
C   C14       1.0  0.54030  0.74190  0.31180  1.0000 -0.0518645303
C   C15       1.0  0.75810  0.04030  0.81180  1.0000 -0.0518645303
C   C16       1.0  0.24190  0.95970  0.81180  1.0000 -0.0518645303
C   C17       1.0  0.08380  0.16210  0.24810  1.0000 0.2055124879
C   C18       1.0  0.91620  0.83790  0.24810  1.0000 0.2055124879
C   C19       1.0  0.66210  0.41620  0.74810  1.0000 0.2055124879
C   C20       1.0  0.33790  0.58380  0.74810  1.0000 0.2055124879
C   C21       1.0  0.41620  0.33790  0.25190  1.0000 0.2055124879
C   C22       1.0  0.58380  0.66210  0.25190  1.0000 0.2055124879
C   C23       1.0  0.83790  0.08380  0.75190  1.0000 0.2055124879
C   C24       1.0  0.16210  0.91620  0.75190  1.0000 0.2055124879
C   C25       1.0  0.17370  0.12850  0.20610  1.0000 -0.1721452572
C   C26       1.0  0.82630  0.87150  0.20610  1.0000 -0.1721452572
C   C27       1.0  0.62850  0.32630  0.70610  1.0000 -0.1721452572
C   C28       1.0  0.37150  0.67370  0.70610  1.0000 -0.1721452572
C   C29       1.0  0.32630  0.37150  0.29390  1.0000 -0.1721452572
C   C30       1.0  0.67370  0.62850  0.29390  1.0000 -0.1721452572
C   C31       1.0  0.87150  0.17370  0.79390  1.0000 -0.1721452572
C   C32       1.0  0.12850  0.82630  0.79390  1.0000 -0.1721452572
C   C33       1.0  0.21480  0.17560  0.10460  1.0000 -0.1160558354
C   C34       1.0  0.78520  0.82440  0.10460  1.0000 -0.1160558354
C   C35       1.0  0.67560  0.28520  0.60460  1.0000 -0.1160558354
C   C36       1.0  0.32440  0.71480  0.60460  1.0000 -0.1160558354
C   C37       1.0  0.28520  0.32440  0.39540  1.0000 -0.1160558354
C   C38       1.0  0.71480  0.67560  0.39540  1.0000 -0.1160558354
C   C39       1.0  0.82440  0.21480  0.89540  1.0000 -0.1160558354
C   C40       1.0  0.17560  0.78520  0.89540  1.0000 -0.1160558354
C   C41       1.0  0.16590  0.25140  0.04660  1.0000 0.0398739805
C   C42       1.0  0.83410  0.74860  0.04660  1.0000 0.0398739805
C   C43       1.0  0.75140  0.33410  0.54660  1.0000 0.0398739805
C   C44       1.0  0.24860  0.66590  0.54660  1.0000 0.0398739805
C   C45       1.0  0.33410  0.24860  0.45340  1.0000 0.0398739805
C   C46       1.0  0.66590  0.75140  0.45340  1.0000 0.0398739805
C   C47       1.0  0.74860  0.16590  0.95340  1.0000 0.0398739805
C   C48       1.0  0.25140  0.83410  0.95340  1.0000 0.0398739805
C   C49       1.0  0.07950  0.04850  0.41920  1.0000 -0.0876743946
C   C50       1.0  0.92050  0.95150  0.41920  1.0000 -0.0876743946
C   C51       1.0  0.54850  0.42050  0.91920  1.0000 -0.0876743946
C   C52       1.0  0.45150  0.57950  0.91920  1.0000 -0.0876743946
C   C53       1.0  0.42050  0.45150  0.08080  1.0000 -0.0876743946
C   C54       1.0  0.57950  0.54850  0.08080  1.0000 -0.0876743946
C   C55       1.0  0.95150  0.07950  0.58080  1.0000 -0.0876743946
C   C56       1.0  0.04850  0.92050  0.58080  1.0000 -0.0876743946
C   C57       1.0  0.00000  0.00000  0.50000  1.0000 0.0835046075
C   C58       1.0  0.50000  0.50000  0.00000  1.0000 0.0835046075
S   S1        1.0  0.86294  0.45832  0.05344  1.0000 -0.3408443094
S   S2        1.0  0.13706  0.54168  0.05344  1.0000 -0.3408443094
S   S3        1.0  0.95832  0.63706  0.55344  1.0000 -0.3408443094
S   S4        1.0  0.04168  0.36294  0.55344  1.0000 -0.3408443094
S   S5        1.0  0.63706  0.04168  0.44656  1.0000 -0.3408443094
S   S6        1.0  0.36294  0.95832  0.44656  1.0000 -0.3408443094
S   S7        1.0  0.54168  0.86294  0.94656  1.0000 -0.3408443094
S   S8        1.0  0.45832  0.13706  0.94656  1.0000 -0.3408443094
N   N1        1.0  0.88070  0.46490  0.31440  1.0000 -0.4125362992
N   N2        1.0  0.11930  0.53510  0.31440  1.0000 -0.4125362992
N   N3        1.0  0.96490  0.61930  0.81440  1.0000 -0.4125362992
N   N4        1.0  0.03510  0.38070  0.81440  1.0000 -0.4125362992
N   N5        1.0  0.61930  0.03510  0.18560  1.0000 -0.4125362992
N   N6        1.0  0.38070  0.96490  0.18560  1.0000 -0.4125362992
N   N7        1.0  0.53510  0.88070  0.68560  1.0000 -0.4125362992
N   N8        1.0  0.46490  0.11930  0.68560  1.0000 -0.4125362992
N   N9        1.0  0.07940  0.28550  0.08820  1.0000 -0.1632157177
N   N10       1.0  0.92060  0.71450  0.08820  1.0000 -0.1632157177
N   N11       1.0  0.78550  0.42060  0.58820  1.0000 -0.1632157177
N   N12       1.0  0.21450  0.57940  0.58820  1.0000 -0.1632157177
N   N13       1.0  0.42060  0.21450  0.41180  1.0000 -0.1632157177
N   N14       1.0  0.57940  0.78550  0.41180  1.0000 -0.1632157177
N   N15       1.0  0.71450  0.07940  0.91180  1.0000 -0.1632157177
N   N16       1.0  0.28550  0.92060  0.91180  1.0000 -0.1632157177
O   O1        1.0  0.03250  0.12360  0.34570  1.0000 -0.1721452572
O   O2        1.0  0.96750  0.87640  0.34570  1.0000 -0.1721452572
O   O3        1.0  0.62360  0.46750  0.84570  1.0000 -0.1721452572
O   O4        1.0  0.37640  0.53250  0.84570  1.0000 -0.1721452572
O   O5        1.0  0.46750  0.37640  0.15430  1.0000 -0.1721452572
O   O6        1.0  0.53250  0.62360  0.15430  1.0000 -0.1721452572
O   O7        1.0  0.87640  0.03250  0.65430  1.0000 -0.1721452572
O   O8        1.0  0.12360  0.96750  0.65430  1.0000 -0.1721452572
