# DDEC6 charges by PACMAN v1.1 (https://github.com/mtap-research/PACMAN-charge/)
data_2013[Tb][soc]3[ASR]1
_chemical_formula_sum              "Tb6 H144 C264 O48"
_cell_length_a       28.5789
_cell_length_b       28.5789
_cell_length_c       28.5789
_cell_angle_alpha    109.471
_cell_angle_beta     109.471
_cell_angle_gamma    109.471

_symmetry_space_group_name_H-M    "P 1"
_symmetry_Int_Tables_number       1

loop_
  _symmetry_equiv_pos_as_xyz
  'x, y, z'

loop_
  _atom_site_type_symbol
  _atom_site_label
  _atom_site_symmetry_multiplicity
  _atom_site_fract_x
  _atom_site_fract_y
  _atom_site_fract_z
  _atom_site_occupancy
  _atom_site_charge
Tb  Tb1       1.0  0.60602  0.00000  0.60602  1.0000 1.8795694231
Tb  Tb2       1.0  0.39398  1.00000  0.39398  1.0000 1.8795694231
Tb  Tb3       1.0  0.60602  0.60602  0.00000  1.0000 1.8795694231
Tb  Tb4       1.0  0.39398  0.39398  0.00000  1.0000 1.8795694231
Tb  Tb5       1.0  1.00000  0.60602  0.60602  1.0000 1.8741226553
Tb  Tb6       1.0  0.00000  0.39398  0.39398  1.0000 1.8795694231
H   H1        1.0  0.94990  0.50000  0.05010  1.0000 0.1201057928
H   H2        1.0  0.44990  0.89980  0.94990  1.0000 0.1201057928
H   H3        1.0  0.55010  0.50000  0.44990  1.0000 0.1201057928
H   H4        1.0  0.05010  0.10020  0.55010  1.0000 0.1201057928
H   H5        1.0  0.05010  0.94990  0.50000  1.0000 0.1201057928
H   H6        1.0  0.94990  0.44990  0.89980  1.0000 0.1201057928
H   H7        1.0  0.44990  0.55010  0.50000  1.0000 0.1201057928
H   H8        1.0  0.55010  0.05010  0.10020  1.0000 0.1201057928
H   H9        1.0  0.50000  0.05010  0.94990  1.0000 0.1201057928
H   H10       1.0  0.89980  0.94990  0.44990  1.0000 0.1201057928
H   H11       1.0  0.50000  0.44990  0.55010  1.0000 0.1201057928
H   H12       1.0  0.10020  0.55010  0.05010  1.0000 0.1201057928
H   H13       1.0  0.86620  0.37280  0.87520  1.0000 0.1201057928
H   H14       1.0  0.49760  0.99100  0.12480  1.0000 0.1201057928
H   H15       1.0  0.50240  0.62720  0.49340  1.0000 0.1201057928
H   H16       1.0  0.13380  0.00900  0.50660  1.0000 0.1201057928
H   H17       1.0  0.87520  0.86620  0.37280  1.0000 0.1201057928
H   H18       1.0  0.12480  0.49760  0.99100  1.0000 0.1201057928
H   H19       1.0  0.49340  0.50240  0.62720  1.0000 0.1201057928
H   H20       1.0  0.50660  0.13380  0.00900  1.0000 0.1201057928
H   H21       1.0  0.37280  0.87520  0.86620  1.0000 0.1201057928
H   H22       1.0  0.99100  0.12480  0.49760  1.0000 0.1201057928
H   H23       1.0  0.62720  0.49340  0.50240  1.0000 0.1201057928
H   H24       1.0  0.00900  0.50660  0.13380  1.0000 0.1201057928
H   H25       1.0  0.00900  0.50240  0.87520  1.0000 0.1201057928
H   H26       1.0  0.62720  0.13380  0.12480  1.0000 0.1201057928
H   H27       1.0  0.99100  0.86620  0.49340  1.0000 0.1201057928
H   H28       1.0  0.37280  0.49760  0.50660  1.0000 0.1201057928
H   H29       1.0  0.49760  0.50660  0.37280  1.0000 0.1201057928
H   H30       1.0  0.86620  0.49340  0.99100  1.0000 0.1201057928
H   H31       1.0  0.13380  0.12480  0.62720  1.0000 0.1201057928
H   H32       1.0  0.50240  0.87520  0.00900  1.0000 0.1201057928
H   H33       1.0  0.49340  0.99100  0.86620  1.0000 0.1201057928
H   H34       1.0  0.50660  0.37280  0.49760  1.0000 0.1201057928
H   H35       1.0  0.87520  0.00900  0.50240  1.0000 0.1201057928
H   H36       1.0  0.12480  0.62720  0.13380  1.0000 0.1201057928
H   H37       1.0  0.72260  0.36130  0.86130  1.0000 0.1201057928
H   H38       1.0  0.50000  0.86130  0.13870  1.0000 0.1201057928
H   H39       1.0  0.50000  0.63870  0.36130  1.0000 0.1201057928
H   H40       1.0  0.27740  0.13870  0.63870  1.0000 0.1201057928
H   H41       1.0  0.86130  0.72260  0.36130  1.0000 0.1201057928
H   H42       1.0  0.13870  0.50000  0.86130  1.0000 0.1201057928
H   H43       1.0  0.36130  0.50000  0.63870  1.0000 0.1201057928
H   H44       1.0  0.63870  0.27740  0.13870  1.0000 0.1201057928
H   H45       1.0  0.36130  0.86130  0.72260  1.0000 0.1201057928
H   H46       1.0  0.86130  0.13870  0.50000  1.0000 0.1201057928
H   H47       1.0  0.63870  0.36130  0.50000  1.0000 0.1201057928
H   H48       1.0  0.13870  0.63870  0.27740  1.0000 0.1201057928
H   H49       1.0  0.68540  0.29180  0.75700  1.0000 0.1201057928
H   H50       1.0  0.53480  0.92840  0.24300  1.0000 0.1201057928
H   H51       1.0  0.46520  0.70820  0.39360  1.0000 0.1201057928
H   H52       1.0  0.31460  0.07160  0.60640  1.0000 0.1201057928
H   H53       1.0  0.75700  0.68540  0.29180  1.0000 0.1201057928
H   H54       1.0  0.24300  0.53480  0.92840  1.0000 0.1201057928
H   H55       1.0  0.39360  0.46520  0.70820  1.0000 0.1201057928
H   H56       1.0  0.60640  0.31460  0.07160  1.0000 0.1201057928
H   H57       1.0  0.29180  0.75700  0.68540  1.0000 0.1201057928
H   H58       1.0  0.92840  0.24300  0.53480  1.0000 0.1201057928
H   H59       1.0  0.70820  0.39360  0.46520  1.0000 0.1201057928
H   H60       1.0  0.07160  0.60640  0.31460  1.0000 0.1201057928
H   H61       1.0  0.07160  0.46520  0.75700  1.0000 0.1201057928
H   H62       1.0  0.70820  0.31460  0.24300  1.0000 0.1201057928
H   H63       1.0  0.92840  0.68540  0.39360  1.0000 0.1201057928
H   H64       1.0  0.29180  0.53480  0.60640  1.0000 0.1201057928
H   H65       1.0  0.53480  0.60640  0.29180  1.0000 0.1201057928
H   H66       1.0  0.68540  0.39360  0.92840  1.0000 0.1201057928
H   H67       1.0  0.31460  0.24300  0.70820  1.0000 0.1201057928
H   H68       1.0  0.46520  0.75700  0.07160  1.0000 0.1201057928
H   H69       1.0  0.39360  0.92840  0.68540  1.0000 0.1201057928
H   H70       1.0  0.60640  0.29180  0.53480  1.0000 0.1201057928
H   H71       1.0  0.75700  0.07160  0.46520  1.0000 0.1201057928
H   H72       1.0  0.24300  0.70820  0.31460  1.0000 0.1201057928
H   H73       1.0  0.63740  0.19640  0.68640  1.0000 0.1344165413
H   H74       1.0  0.51000  0.95100  0.31360  1.0000 0.1344165413
H   H75       1.0  0.49000  0.80360  0.44100  1.0000 0.1344165413
H   H76       1.0  0.36260  0.04900  0.55900  1.0000 0.1355835846
H   H77       1.0  0.68640  0.63740  0.19640  1.0000 0.1344165413
H   H78       1.0  0.31360  0.51000  0.95100  1.0000 0.1355835846
H   H79       1.0  0.44100  0.49000  0.80360  1.0000 0.1355835846
H   H80       1.0  0.55900  0.36260  0.04900  1.0000 0.1344165413
H   H81       1.0  0.19640  0.68640  0.63740  1.0000 0.1344165413
H   H82       1.0  0.95100  0.31360  0.51000  1.0000 0.1344165413
H   H83       1.0  0.80360  0.44100  0.49000  1.0000 0.1355835846
H   H84       1.0  0.04900  0.55900  0.36260  1.0000 0.1355835846
H   H85       1.0  0.04900  0.49000  0.68640  1.0000 0.1355835846
H   H86       1.0  0.80360  0.36260  0.31360  1.0000 0.1355835846
H   H87       1.0  0.95100  0.63740  0.44100  1.0000 0.1355835846
H   H88       1.0  0.19640  0.51000  0.55900  1.0000 0.1355835846
H   H89       1.0  0.51000  0.55900  0.19640  1.0000 0.1344165413
H   H90       1.0  0.63740  0.44100  0.95100  1.0000 0.1344165413
H   H91       1.0  0.36260  0.31360  0.80360  1.0000 0.1355835846
H   H92       1.0  0.49000  0.68640  0.04900  1.0000 0.1344165413
H   H93       1.0  0.44100  0.95100  0.63740  1.0000 0.1344165413
H   H94       1.0  0.55900  0.19640  0.51000  1.0000 0.1355835846
H   H95       1.0  0.68640  0.04900  0.49000  1.0000 0.1355835846
H   H96       1.0  0.31360  0.80360  0.36260  1.0000 0.1344165413
H   H97       1.0  0.76610  0.17760  0.77370  1.0000 0.1344165413
H   H98       1.0  0.40390  0.99240  0.22630  1.0000 0.1344165413
H   H99       1.0  0.59610  0.82240  0.58850  1.0000 0.1355835846
H   H100      1.0  0.23390  0.00760  0.41150  1.0000 0.1344165413
H   H101      1.0  0.77370  0.76610  0.17760  1.0000 0.1344165413
H   H102      1.0  0.22630  0.40390  0.99240  1.0000 0.1344165413
H   H103      1.0  0.58850  0.59610  0.82240  1.0000 0.1344165413
H   H104      1.0  0.41150  0.23390  0.00760  1.0000 0.1344165413
H   H105      1.0  0.17760  0.77370  0.76610  1.0000 0.1344165413
H   H106      1.0  0.99240  0.22630  0.40390  1.0000 0.1344165413
H   H107      1.0  0.82240  0.58850  0.59610  1.0000 0.1344165413
H   H108      1.0  0.00760  0.41150  0.23390  1.0000 0.1344165413
H   H109      1.0  0.00760  0.59610  0.77370  1.0000 0.1355835846
H   H110      1.0  0.82240  0.23390  0.22630  1.0000 0.1344165413
H   H111      1.0  0.99240  0.76610  0.58850  1.0000 0.1344165413
H   H112      1.0  0.17760  0.40390  0.41150  1.0000 0.1344165413
H   H113      1.0  0.40390  0.41150  0.17760  1.0000 0.1344165413
H   H114      1.0  0.76610  0.58850  0.99240  1.0000 0.1355835846
H   H115      1.0  0.23390  0.22630  0.82240  1.0000 0.1355835846
H   H116      1.0  0.59610  0.77370  0.00760  1.0000 0.1344165413
H   H117      1.0  0.58850  0.99240  0.76610  1.0000 0.1355835846
H   H118      1.0  0.41150  0.17760  0.40390  1.0000 0.1355835846
H   H119      1.0  0.77370  0.00760  0.59610  1.0000 0.1355835846
H   H120      1.0  0.22630  0.82240  0.23390  1.0000 0.1344165413
H   H121      1.0  0.81400  0.27300  0.84440  1.0000 0.1201057928
H   H122      1.0  0.42860  0.96960  0.15560  1.0000 0.1201057928
H   H123      1.0  0.57140  0.72700  0.54100  1.0000 0.1201057928
H   H124      1.0  0.18600  0.03040  0.45900  1.0000 0.1201057928
H   H125      1.0  0.84440  0.81400  0.27300  1.0000 0.1201057928
H   H126      1.0  0.15560  0.42860  0.96960  1.0000 0.1201057928
H   H127      1.0  0.54100  0.57140  0.72700  1.0000 0.1201057928
H   H128      1.0  0.45900  0.18600  0.03040  1.0000 0.1201057928
H   H129      1.0  0.27300  0.84440  0.81400  1.0000 0.1201057928
H   H130      1.0  0.96960  0.15560  0.42860  1.0000 0.1201057928
H   H131      1.0  0.72700  0.54100  0.57140  1.0000 0.1201057928
H   H132      1.0  0.03040  0.45900  0.18600  1.0000 0.1201057928
H   H133      1.0  0.03040  0.57140  0.84440  1.0000 0.1201057928
H   H134      1.0  0.72700  0.18600  0.15560  1.0000 0.1201057928
H   H135      1.0  0.96960  0.81400  0.54100  1.0000 0.1201057928
H   H136      1.0  0.27300  0.42860  0.45900  1.0000 0.1201057928
H   H137      1.0  0.42860  0.45900  0.27300  1.0000 0.1201057928
H   H138      1.0  0.81400  0.54100  0.96960  1.0000 0.1201057928
H   H139      1.0  0.18600  0.15560  0.72700  1.0000 0.1201057928
H   H140      1.0  0.57140  0.84440  0.03040  1.0000 0.1201057928
H   H141      1.0  0.54100  0.96960  0.81400  1.0000 0.1201057928
H   H142      1.0  0.45900  0.27300  0.42860  1.0000 0.1201057928
H   H143      1.0  0.84440  0.03040  0.57140  1.0000 0.1201057928
H   H144      1.0  0.15560  0.72700  0.18600  1.0000 0.1201057928
C   C1        1.0  0.96980  0.50000  0.03020  1.0000 -0.2262650831
C   C2        1.0  0.46980  0.93960  0.96980  1.0000 -0.2262650831
C   C3        1.0  0.53020  0.50000  0.46980  1.0000 -0.2262650831
C   C4        1.0  0.03020  0.06040  0.53020  1.0000 -0.2262650831
C   C5        1.0  0.03020  0.96980  0.50000  1.0000 -0.2262650831
C   C6        1.0  0.96980  0.46980  0.93960  1.0000 -0.2262650831
C   C7        1.0  0.46980  0.53020  0.50000  1.0000 -0.2262650831
C   C8        1.0  0.53020  0.03020  0.06040  1.0000 -0.2262650831
C   C9        1.0  0.50000  0.03020  0.96980  1.0000 -0.2262650831
C   C10       1.0  0.93960  0.96980  0.46980  1.0000 -0.2262650831
C   C11       1.0  0.50000  0.46980  0.53020  1.0000 -0.2262650831
C   C12       1.0  0.06040  0.53020  0.03020  1.0000 -0.2262650831
C   C13       1.0  0.93900  0.46950  0.96950  1.0000 0.1134532557
C   C14       1.0  0.50000  0.96950  0.03050  1.0000 0.1134532557
C   C15       1.0  0.50000  0.53050  0.46950  1.0000 0.1134532557
C   C16       1.0  0.06100  0.03050  0.53050  1.0000 0.1134532557
C   C17       1.0  0.96950  0.93900  0.46950  1.0000 0.1134532557
C   C18       1.0  0.03050  0.50000  0.96950  1.0000 0.1134532557
C   C19       1.0  0.46950  0.50000  0.53050  1.0000 0.1134532557
C   C20       1.0  0.53050  0.06100  0.03050  1.0000 0.1134532557
C   C21       1.0  0.46950  0.96950  0.93900  1.0000 0.1134532557
C   C22       1.0  0.96950  0.03050  0.50000  1.0000 0.1134532557
C   C23       1.0  0.53050  0.46950  0.50000  1.0000 0.1134532557
C   C24       1.0  0.03050  0.53050  0.06100  1.0000 0.1134532557
C   C25       1.0  0.87520  0.43760  0.93760  1.0000 0.0790839109
C   C26       1.0  0.50000  0.93760  0.06240  1.0000 0.0790839109
C   C27       1.0  0.50000  0.56240  0.43760  1.0000 0.0790839109
C   C28       1.0  0.12480  0.06240  0.56240  1.0000 0.0790839109
C   C29       1.0  0.93760  0.87520  0.43760  1.0000 0.0790839109
C   C30       1.0  0.06240  0.50000  0.93760  1.0000 0.0790839109
C   C31       1.0  0.43760  0.50000  0.56240  1.0000 0.0790839109
C   C32       1.0  0.56240  0.12480  0.06240  1.0000 0.0790839109
C   C33       1.0  0.43760  0.93760  0.87520  1.0000 0.0790839109
C   C34       1.0  0.93760  0.06240  0.50000  1.0000 0.0790839109
C   C35       1.0  0.56240  0.43760  0.50000  1.0000 0.0790839109
C   C36       1.0  0.06240  0.56240  0.12480  1.0000 0.0790839109
C   C37       1.0  0.84600  0.38690  0.88950  1.0000 -0.2160097327
C   C38       1.0  0.49740  0.95650  0.11050  1.0000 -0.2104227231
C   C39       1.0  0.50260  0.61310  0.45910  1.0000 -0.2160097327
C   C40       1.0  0.15400  0.04350  0.54090  1.0000 -0.2104227231
C   C41       1.0  0.88950  0.84600  0.38690  1.0000 -0.2160097327
C   C42       1.0  0.11050  0.49740  0.95650  1.0000 -0.2104227231
C   C43       1.0  0.45910  0.50260  0.61310  1.0000 -0.2104227231
C   C44       1.0  0.54090  0.15400  0.04350  1.0000 -0.2160097327
C   C45       1.0  0.38690  0.88950  0.84600  1.0000 -0.2104227231
C   C46       1.0  0.95650  0.11050  0.49740  1.0000 -0.2104227231
C   C47       1.0  0.61310  0.45910  0.50260  1.0000 -0.2160097327
C   C48       1.0  0.04350  0.54090  0.15400  1.0000 -0.2160097327
C   C49       1.0  0.04350  0.50260  0.88950  1.0000 -0.2160097327
C   C50       1.0  0.61310  0.15400  0.11050  1.0000 -0.2160097327
C   C51       1.0  0.95650  0.84600  0.45910  1.0000 -0.2104227231
C   C52       1.0  0.38690  0.49740  0.54090  1.0000 -0.2160097327
C   C53       1.0  0.49740  0.54090  0.38690  1.0000 -0.2104227231
C   C54       1.0  0.84600  0.45910  0.95650  1.0000 -0.2160097327
C   C55       1.0  0.15400  0.11050  0.61310  1.0000 -0.2160097327
C   C56       1.0  0.50260  0.88950  0.04350  1.0000 -0.2104227231
C   C57       1.0  0.45910  0.95650  0.84600  1.0000 -0.2104227231
C   C58       1.0  0.54090  0.38690  0.49740  1.0000 -0.2160097327
C   C59       1.0  0.88950  0.04350  0.50260  1.0000 -0.2104227231
C   C60       1.0  0.11050  0.61310  0.15400  1.0000 -0.2104227231
C   C61       1.0  0.78710  0.35460  0.86030  1.0000 0.0877692088
C   C62       1.0  0.49430  0.92680  0.13970  1.0000 0.0877692088
C   C63       1.0  0.50570  0.64540  0.43250  1.0000 0.0877692088
C   C64       1.0  0.21290  0.07320  0.56750  1.0000 0.0877692088
C   C65       1.0  0.86030  0.78710  0.35460  1.0000 0.0877692088
C   C66       1.0  0.13970  0.49430  0.92680  1.0000 0.0877692088
C   C67       1.0  0.43250  0.50570  0.64540  1.0000 0.0877692088
C   C68       1.0  0.56750  0.21290  0.07320  1.0000 0.0877692088
C   C69       1.0  0.35460  0.86030  0.78710  1.0000 0.0877692088
C   C70       1.0  0.92680  0.13970  0.49430  1.0000 0.0877692088
C   C71       1.0  0.64540  0.43250  0.50570  1.0000 0.0877692088
C   C72       1.0  0.07320  0.56750  0.21290  1.0000 0.0877692088
C   C73       1.0  0.07320  0.50570  0.86030  1.0000 0.0877692088
C   C74       1.0  0.64540  0.21290  0.13970  1.0000 0.0877692088
C   C75       1.0  0.92680  0.78710  0.43250  1.0000 0.0877692088
C   C76       1.0  0.35460  0.49430  0.56750  1.0000 0.0877692088
C   C77       1.0  0.49430  0.56750  0.35460  1.0000 0.0877692088
C   C78       1.0  0.78710  0.43250  0.92680  1.0000 0.0877692088
C   C79       1.0  0.21290  0.13970  0.64540  1.0000 0.0877692088
C   C80       1.0  0.50570  0.86030  0.07320  1.0000 0.0877692088
C   C81       1.0  0.43250  0.92680  0.78710  1.0000 0.0877692088
C   C82       1.0  0.56750  0.35460  0.49430  1.0000 0.0877692088
C   C83       1.0  0.86030  0.07320  0.50570  1.0000 0.0877692088
C   C84       1.0  0.13970  0.64540  0.21290  1.0000 0.0877692088
C   C85       1.0  0.76240  0.38120  0.88120  1.0000 -0.2104227231
C   C86       1.0  0.50000  0.88120  0.11880  1.0000 -0.2104227231
C   C87       1.0  0.50000  0.61880  0.38120  1.0000 -0.2104227231
C   C88       1.0  0.23760  0.11880  0.61880  1.0000 -0.2104227231
C   C89       1.0  0.88120  0.76240  0.38120  1.0000 -0.2104227231
C   C90       1.0  0.11880  0.50000  0.88120  1.0000 -0.2104227231
C   C91       1.0  0.38120  0.50000  0.61880  1.0000 -0.2104227231
C   C92       1.0  0.61880  0.23760  0.11880  1.0000 -0.2104227231
C   C93       1.0  0.38120  0.88120  0.76240  1.0000 -0.2104227231
C   C94       1.0  0.88120  0.11880  0.50000  1.0000 -0.204138437
C   C95       1.0  0.61880  0.38120  0.50000  1.0000 -0.2104227231
C   C96       1.0  0.11880  0.61880  0.23760  1.0000 -0.2104227231
C   C97       1.0  0.75440  0.29190  0.80770  1.0000 0.0790839109
C   C98       1.0  0.48420  0.94670  0.19230  1.0000 0.0790839109
C   C99       1.0  0.51580  0.70810  0.46250  1.0000 0.0790839109
C   C100      1.0  0.24560  0.05330  0.53750  1.0000 0.0790839109
C   C101      1.0  0.80770  0.75440  0.29190  1.0000 0.0790839109
C   C102      1.0  0.19230  0.48420  0.94670  1.0000 0.0790839109
C   C103      1.0  0.46250  0.51580  0.70810  1.0000 0.0790839109
C   C104      1.0  0.53750  0.24560  0.05330  1.0000 0.0790839109
C   C105      1.0  0.29190  0.80770  0.75440  1.0000 0.0790839109
C   C106      1.0  0.94670  0.19230  0.48420  1.0000 0.0790839109
C   C107      1.0  0.70810  0.46250  0.51580  1.0000 0.0790839109
C   C108      1.0  0.05330  0.53750  0.24560  1.0000 0.0790839109
C   C109      1.0  0.05330  0.51580  0.80770  1.0000 0.0790839109
C   C110      1.0  0.70810  0.24560  0.19230  1.0000 0.0790839109
C   C111      1.0  0.94670  0.75440  0.46250  1.0000 0.0790839109
C   C112      1.0  0.29190  0.48420  0.53750  1.0000 0.0790839109
C   C113      1.0  0.48420  0.53750  0.29190  1.0000 0.0790839109
C   C114      1.0  0.75440  0.46250  0.94670  1.0000 0.0790839109
C   C115      1.0  0.24560  0.19230  0.70810  1.0000 0.0790839109
C   C116      1.0  0.51580  0.80770  0.05330  1.0000 0.0790839109
C   C117      1.0  0.46250  0.94670  0.75440  1.0000 0.0790839109
C   C118      1.0  0.53750  0.29190  0.48420  1.0000 0.0790839109
C   C119      1.0  0.80770  0.05330  0.51580  1.0000 0.0790839109
C   C120      1.0  0.19230  0.70810  0.24560  1.0000 0.0790839109
C   C121      1.0  0.70150  0.26890  0.76040  1.0000 -0.1526852315
C   C122      1.0  0.50850  0.94110  0.23960  1.0000 -0.1526852315
C   C123      1.0  0.49150  0.73110  0.43260  1.0000 -0.1526852315
C   C124      1.0  0.29850  0.05890  0.56740  1.0000 -0.1526852315
C   C125      1.0  0.76040  0.70150  0.26890  1.0000 -0.1526852315
C   C126      1.0  0.23960  0.50850  0.94110  1.0000 -0.1526852315
C   C127      1.0  0.43260  0.49150  0.73110  1.0000 -0.1526852315
C   C128      1.0  0.56740  0.29850  0.05890  1.0000 -0.1526852315
C   C129      1.0  0.26890  0.76040  0.70150  1.0000 -0.1526852315
C   C130      1.0  0.94110  0.23960  0.50850  1.0000 -0.1526852315
C   C131      1.0  0.73110  0.43260  0.49150  1.0000 -0.1526852315
C   C132      1.0  0.05890  0.56740  0.29850  1.0000 -0.1526852315
C   C133      1.0  0.05890  0.49150  0.76040  1.0000 -0.1526852315
C   C134      1.0  0.73110  0.29850  0.23960  1.0000 -0.1526852315
C   C135      1.0  0.94110  0.70150  0.43260  1.0000 -0.1526852315
C   C136      1.0  0.26890  0.50850  0.56740  1.0000 -0.1526852315
C   C137      1.0  0.50850  0.56740  0.26890  1.0000 -0.1526852315
C   C138      1.0  0.70150  0.43260  0.94110  1.0000 -0.1526852315
C   C139      1.0  0.29850  0.23960  0.73110  1.0000 -0.1526852315
C   C140      1.0  0.49150  0.76040  0.05890  1.0000 -0.1526852315
C   C141      1.0  0.43260  0.94110  0.70150  1.0000 -0.1526852315
C   C142      1.0  0.56740  0.26890  0.50850  1.0000 -0.1526852315
C   C143      1.0  0.76040  0.05890  0.49150  1.0000 -0.1526852315
C   C144      1.0  0.23960  0.73110  0.29850  1.0000 -0.1526852315
C   C145      1.0  0.67280  0.21180  0.71800  1.0000 -0.1059532182
C   C146      1.0  0.49380  0.95480  0.28200  1.0000 -0.1059532182
C   C147      1.0  0.50620  0.78820  0.46100  1.0000 -0.1059532182
C   C148      1.0  0.32720  0.04520  0.53900  1.0000 -0.1059532182
C   C149      1.0  0.71800  0.67280  0.21180  1.0000 -0.1059532182
C   C150      1.0  0.28200  0.49380  0.95480  1.0000 -0.1059532182
C   C151      1.0  0.46100  0.50620  0.78820  1.0000 -0.1059532182
C   C152      1.0  0.53900  0.32720  0.04520  1.0000 -0.1059532182
C   C153      1.0  0.21180  0.71800  0.67280  1.0000 -0.1059532182
C   C154      1.0  0.95480  0.28200  0.49380  1.0000 -0.1044848726
C   C155      1.0  0.78820  0.46100  0.50620  1.0000 -0.1059532182
C   C156      1.0  0.04520  0.53900  0.32720  1.0000 -0.1059532182
C   C157      1.0  0.04520  0.50620  0.71800  1.0000 -0.1059532182
C   C158      1.0  0.78820  0.32720  0.28200  1.0000 -0.1059532182
C   C159      1.0  0.95480  0.67280  0.46100  1.0000 -0.1059532182
C   C160      1.0  0.21180  0.49380  0.53900  1.0000 -0.1059532182
C   C161      1.0  0.49380  0.53900  0.21180  1.0000 -0.1059532182
C   C162      1.0  0.67280  0.46100  0.95480  1.0000 -0.1044848726
C   C163      1.0  0.32720  0.28200  0.78820  1.0000 -0.1059532182
C   C164      1.0  0.50620  0.71800  0.04520  1.0000 -0.1059532182
C   C165      1.0  0.46100  0.95480  0.67280  1.0000 -0.1059532182
C   C166      1.0  0.53900  0.21180  0.49380  1.0000 -0.1044848726
C   C167      1.0  0.71800  0.04520  0.50620  1.0000 -0.1059532182
C   C168      1.0  0.28200  0.78820  0.32720  1.0000 -0.1059532182
C   C169      1.0  0.69700  0.17760  0.72300  1.0000 0.0319907161
C   C170      1.0  0.45460  0.97400  0.27700  1.0000 0.0319907161
C   C171      1.0  0.54540  0.82240  0.51940  1.0000 0.0319907161
C   C172      1.0  0.30300  0.02600  0.48060  1.0000 0.0319907161
C   C173      1.0  0.72300  0.69700  0.17760  1.0000 0.0319907161
C   C174      1.0  0.27700  0.45460  0.97400  1.0000 0.0319907161
C   C175      1.0  0.51940  0.54540  0.82240  1.0000 0.0319907161
C   C176      1.0  0.48060  0.30300  0.02600  1.0000 0.0319907161
C   C177      1.0  0.17760  0.72300  0.69700  1.0000 0.0319907161
C   C178      1.0  0.97400  0.27700  0.45460  1.0000 0.0319907161
C   C179      1.0  0.82240  0.51940  0.54540  1.0000 0.0319907161
C   C180      1.0  0.02600  0.48060  0.30300  1.0000 0.0319907161
C   C181      1.0  0.02600  0.54540  0.72300  1.0000 0.0319907161
C   C182      1.0  0.82240  0.30300  0.27700  1.0000 0.0319907161
C   C183      1.0  0.97400  0.69700  0.51940  1.0000 0.0319907161
C   C184      1.0  0.17760  0.45460  0.48060  1.0000 0.0319907161
C   C185      1.0  0.45460  0.48060  0.17760  1.0000 0.0319907161
C   C186      1.0  0.69700  0.51940  0.97400  1.0000 0.0319907161
C   C187      1.0  0.30300  0.27700  0.82240  1.0000 0.0319907161
C   C188      1.0  0.54540  0.72300  0.02600  1.0000 0.0319907161
C   C189      1.0  0.51940  0.97400  0.69700  1.0000 0.0319907161
C   C190      1.0  0.48060  0.17760  0.45460  1.0000 0.0319907161
C   C191      1.0  0.72300  0.02600  0.54540  1.0000 0.0319907161
C   C192      1.0  0.27700  0.82240  0.30300  1.0000 0.0319907161
C   C193      1.0  0.74990  0.20050  0.77040  1.0000 -0.089850002
C   C194      1.0  0.43010  0.97950  0.22960  1.0000 -0.089850002
C   C195      1.0  0.56990  0.79950  0.54940  1.0000 -0.089850002
C   C196      1.0  0.25010  0.02050  0.45060  1.0000 -0.089850002
C   C197      1.0  0.77040  0.74990  0.20050  1.0000 -0.089850002
C   C198      1.0  0.22960  0.43010  0.97950  1.0000 -0.089850002
C   C199      1.0  0.54940  0.56990  0.79950  1.0000 -0.089850002
C   C200      1.0  0.45060  0.25010  0.02050  1.0000 -0.089850002
C   C201      1.0  0.20050  0.77040  0.74990  1.0000 -0.089850002
C   C202      1.0  0.97950  0.22960  0.43010  1.0000 -0.089850002
C   C203      1.0  0.79950  0.54940  0.56990  1.0000 -0.089850002
C   C204      1.0  0.02050  0.45060  0.25010  1.0000 -0.089850002
C   C205      1.0  0.02050  0.56990  0.77040  1.0000 -0.089850002
C   C206      1.0  0.79950  0.25010  0.22960  1.0000 -0.089850002
C   C207      1.0  0.97950  0.74990  0.54940  1.0000 -0.089850002
C   C208      1.0  0.20050  0.43010  0.45060  1.0000 -0.089850002
C   C209      1.0  0.43010  0.45060  0.20050  1.0000 -0.089850002
C   C210      1.0  0.74990  0.54940  0.97950  1.0000 -0.089850002
C   C211      1.0  0.25010  0.22960  0.79950  1.0000 -0.089850002
C   C212      1.0  0.56990  0.77040  0.02050  1.0000 -0.089850002
C   C213      1.0  0.54940  0.97950  0.74990  1.0000 -0.089850002
C   C214      1.0  0.45060  0.20050  0.43010  1.0000 -0.089850002
C   C215      1.0  0.77040  0.02050  0.56990  1.0000 -0.089850002
C   C216      1.0  0.22960  0.79950  0.25010  1.0000 -0.089850002
C   C217      1.0  0.77870  0.25770  0.81280  1.0000 -0.1435494488
C   C218      1.0  0.44490  0.96590  0.18720  1.0000 -0.1435494488
C   C219      1.0  0.55510  0.74230  0.52100  1.0000 -0.1435494488
C   C220      1.0  0.22130  0.03410  0.47900  1.0000 -0.1435494488
C   C221      1.0  0.81280  0.77870  0.25770  1.0000 -0.1435494488
C   C222      1.0  0.18720  0.44490  0.96590  1.0000 -0.1435494488
C   C223      1.0  0.52100  0.55510  0.74230  1.0000 -0.1435494488
C   C224      1.0  0.47900  0.22130  0.03410  1.0000 -0.1435494488
C   C225      1.0  0.25770  0.81280  0.77870  1.0000 -0.1435494488
C   C226      1.0  0.96590  0.18720  0.44490  1.0000 -0.1435494488
C   C227      1.0  0.74230  0.52100  0.55510  1.0000 -0.1435494488
C   C228      1.0  0.03410  0.47900  0.22130  1.0000 -0.1435494488
C   C229      1.0  0.03410  0.55510  0.81280  1.0000 -0.1435494488
C   C230      1.0  0.74230  0.22130  0.18720  1.0000 -0.1435494488
C   C231      1.0  0.96590  0.77870  0.52100  1.0000 -0.1435494488
C   C232      1.0  0.25770  0.44490  0.47900  1.0000 -0.1435494488
C   C233      1.0  0.44490  0.47900  0.25770  1.0000 -0.1435494488
C   C234      1.0  0.77870  0.52100  0.96590  1.0000 -0.1435494488
C   C235      1.0  0.22130  0.18720  0.74230  1.0000 -0.1435494488
C   C236      1.0  0.55510  0.81280  0.03410  1.0000 -0.1435494488
C   C237      1.0  0.52100  0.96590  0.77870  1.0000 -0.1435494488
C   C238      1.0  0.47900  0.25770  0.44490  1.0000 -0.1435494488
C   C239      1.0  0.81280  0.03410  0.55510  1.0000 -0.1435494488
C   C240      1.0  0.18720  0.74230  0.22130  1.0000 -0.1435494488
C   C241      1.0  0.66140  0.11130  0.67690  1.0000 0.5164663212
C   C242      1.0  0.43440  0.98450  0.32310  1.0000 0.5147718548
C   C243      1.0  0.56560  0.88870  0.55010  1.0000 0.5164663212
C   C244      1.0  0.33860  0.01550  0.44990  1.0000 0.5164663212
C   C245      1.0  0.67690  0.66140  0.11130  1.0000 0.5164663212
C   C246      1.0  0.32310  0.43440  0.98450  1.0000 0.5164663212
C   C247      1.0  0.55010  0.56560  0.88870  1.0000 0.5164663212
C   C248      1.0  0.44990  0.33860  0.01550  1.0000 0.5164663212
C   C249      1.0  0.11130  0.67690  0.66140  1.0000 0.5147718548
C   C250      1.0  0.98450  0.32310  0.43440  1.0000 0.5164663212
C   C251      1.0  0.88870  0.55010  0.56560  1.0000 0.5147718548
C   C252      1.0  0.01550  0.44990  0.33860  1.0000 0.5164663212
C   C253      1.0  0.01550  0.56560  0.67690  1.0000 0.5164663212
C   C254      1.0  0.88870  0.33860  0.32310  1.0000 0.5164663212
C   C255      1.0  0.98450  0.66140  0.55010  1.0000 0.5164663212
C   C256      1.0  0.11130  0.43440  0.44990  1.0000 0.5164663212
C   C257      1.0  0.43440  0.44990  0.11130  1.0000 0.5164663212
C   C258      1.0  0.66140  0.55010  0.98450  1.0000 0.5164663212
C   C259      1.0  0.33860  0.32310  0.88870  1.0000 0.5164663212
C   C260      1.0  0.56560  0.67690  0.01550  1.0000 0.5164663212
C   C261      1.0  0.55010  0.98450  0.66140  1.0000 0.5164663212
C   C262      1.0  0.44990  0.11130  0.43440  1.0000 0.5164663212
C   C263      1.0  0.67690  0.01550  0.56560  1.0000 0.5164663212
C   C264      1.0  0.32310  0.88870  0.33860  1.0000 0.5164663212
O   O1        1.0  0.68300  0.07900  0.69660  1.0000 -0.6077528697
O   O2        1.0  0.38240  0.98640  0.30340  1.0000 -0.6077528697
O   O3        1.0  0.61760  0.92100  0.60400  1.0000 -0.6077528697
O   O4        1.0  0.31700  0.01360  0.39600  1.0000 -0.6077528697
O   O5        1.0  0.69660  0.68300  0.07900  1.0000 -0.6077528697
O   O6        1.0  0.30340  0.38240  0.98640  1.0000 -0.6077528697
O   O7        1.0  0.60400  0.61760  0.92100  1.0000 -0.6033843507
O   O8        1.0  0.39600  0.31700  0.01360  1.0000 -0.6033843507
O   O9        1.0  0.07900  0.69660  0.68300  1.0000 -0.6033843507
O   O10       1.0  0.98640  0.30340  0.38240  1.0000 -0.6033843507
O   O11       1.0  0.92100  0.60400  0.61760  1.0000 -0.6033843507
O   O12       1.0  0.01360  0.39600  0.31700  1.0000 -0.6033843507
O   O13       1.0  0.01360  0.61760  0.69660  1.0000 -0.6033843507
O   O14       1.0  0.92100  0.31700  0.30340  1.0000 -0.6077528697
O   O15       1.0  0.98640  0.68300  0.60400  1.0000 -0.6077528697
O   O16       1.0  0.07900  0.38240  0.39600  1.0000 -0.6077528697
O   O17       1.0  0.38240  0.39600  0.07900  1.0000 -0.6077528697
O   O18       1.0  0.68300  0.60400  0.98640  1.0000 -0.6033843507
O   O19       1.0  0.31700  0.30340  0.92100  1.0000 -0.6033843507
O   O20       1.0  0.61760  0.69660  0.01360  1.0000 -0.6077528697
O   O21       1.0  0.60400  0.98640  0.68300  1.0000 -0.6077528697
O   O22       1.0  0.39600  0.07900  0.38240  1.0000 -0.6033843507
O   O23       1.0  0.69660  0.01360  0.61760  1.0000 -0.6033843507
O   O24       1.0  0.30340  0.92100  0.31700  1.0000 -0.6077528697
O   O25       1.0  0.64490  0.09690  0.62880  1.0000 -0.5023092271
O   O26       1.0  0.46810  0.01610  0.37120  1.0000 -0.5023092271
O   O27       1.0  0.53190  0.90310  0.54800  1.0000 -0.5023092271
O   O28       1.0  0.35510  0.98390  0.45200  1.0000 -0.5023092271
O   O29       1.0  0.62880  0.64490  0.09690  1.0000 -0.5023092271
O   O30       1.0  0.37120  0.46810  0.01610  1.0000 -0.5023092271
O   O31       1.0  0.54800  0.53190  0.90310  1.0000 -0.5023092271
O   O32       1.0  0.45200  0.35510  0.98390  1.0000 -0.5023092271
O   O33       1.0  0.09690  0.62880  0.64490  1.0000 -0.5023092271
O   O34       1.0  0.01610  0.37120  0.46810  1.0000 -0.5023092271
O   O35       1.0  0.90310  0.54800  0.53190  1.0000 -0.5023092271
O   O36       1.0  0.98390  0.45200  0.35510  1.0000 -0.5023092271
O   O37       1.0  0.98390  0.53190  0.62880  1.0000 -0.5023092271
O   O38       1.0  0.90310  0.35510  0.37120  1.0000 -0.5023092271
O   O39       1.0  0.01610  0.64490  0.54800  1.0000 -0.5023092271
O   O40       1.0  0.09690  0.46810  0.45200  1.0000 -0.5023092271
O   O41       1.0  0.46810  0.45200  0.09690  1.0000 -0.5023092271
O   O42       1.0  0.64490  0.54800  0.01610  1.0000 -0.5023092271
O   O43       1.0  0.35510  0.37120  0.90310  1.0000 -0.5023092271
O   O44       1.0  0.53190  0.62880  0.98390  1.0000 -0.5023092271
O   O45       1.0  0.54800  0.01610  0.64490  1.0000 -0.5023092271
O   O46       1.0  0.45200  0.09690  0.46810  1.0000 -0.5023092271
O   O47       1.0  0.62880  0.98390  0.53190  1.0000 -0.5023092271
O   O48       1.0  0.37120  0.90310  0.35510  1.0000 -0.5023092271
