# DDEC6 charges by PACMAN v1.1 (https://github.com/mtap-research/PACMAN-charge/)
data_2013[Zn][nan]3[ASR]23
_chemical_formula_sum              "Zn48 H72 C216 O172"
_cell_length_a       28.3842
_cell_length_b       28.3842
_cell_length_c       28.3842
_cell_angle_alpha    139.331
_cell_angle_beta     118.515
_cell_angle_gamma    76.3569

_symmetry_space_group_name_H-M    "P 1"
_symmetry_Int_Tables_number       1

loop_
  _symmetry_equiv_pos_as_xyz
  'x, y, z'

loop_
  _atom_site_type_symbol
  _atom_site_label
  _atom_site_symmetry_multiplicity
  _atom_site_fract_x
  _atom_site_fract_y
  _atom_site_fract_z
  _atom_site_occupancy
  _atom_site_charge
Zn  Zn1       1.0  0.98557  0.80750  0.32815  1.0000 0.9470551165
Zn  Zn2       1.0  0.52065  0.19250  0.17807  1.0000 0.9470551165
Zn  Zn3       1.0  0.97935  0.65742  0.17185  1.0000 0.9470551165
Zn  Zn4       1.0  0.51443  0.34258  0.32193  1.0000 0.9470551165
Zn  Zn5       1.0  0.01443  0.19250  0.67185  1.0000 0.9470551165
Zn  Zn6       1.0  0.47935  0.80750  0.82193  1.0000 0.9470551165
Zn  Zn7       1.0  0.02065  0.34258  0.82815  1.0000 0.9470551165
Zn  Zn8       1.0  0.48557  0.65742  0.67807  1.0000 0.9470551165
Zn  Zn9       1.0  0.57562  0.41479  0.83917  1.0000 1.0064525681
Zn  Zn10      1.0  0.42438  0.58521  0.16083  1.0000 1.0064525681
Zn  Zn11      1.0  0.07562  0.73645  0.66083  1.0000 1.0064525681
Zn  Zn12      1.0  0.92438  0.26355  0.33917  1.0000 1.0028777199
Zn  Zn13      1.0  0.39565  0.03222  0.63657  1.0000 0.7685256081
Zn  Zn14      1.0  0.60435  0.96778  0.36343  1.0000 0.7685256081
Zn  Zn15      1.0  0.89565  0.75908  0.86343  1.0000 0.7685256081
Zn  Zn16      1.0  0.10435  0.24092  0.13657  1.0000 0.7685256081
Zn  Zn17      1.0  0.68062  0.35721  0.80711  1.0000 0.9470551165
Zn  Zn18      1.0  0.44990  0.64279  0.32341  1.0000 0.9470551165
Zn  Zn19      1.0  0.05010  0.87351  0.69289  1.0000 0.9470551165
Zn  Zn20      1.0  0.81938  0.12649  0.17659  1.0000 0.9470551165
Zn  Zn21      1.0  0.31938  0.64279  0.19289  1.0000 0.9470551165
Zn  Zn22      1.0  0.55010  0.35721  0.67659  1.0000 0.9470551165
Zn  Zn23      1.0  0.94990  0.12649  0.30711  1.0000 0.9470551165
Zn  Zn24      1.0  0.18062  0.87351  0.82341  1.0000 0.9470551165
Zn  Zn25      1.0  0.40680  0.20554  0.79874  1.0000 0.8670500594
Zn  Zn26      1.0  0.59320  0.79446  0.20126  1.0000 0.8670500594
Zn  Zn27      1.0  0.90680  0.60806  0.70126  1.0000 0.8670500594
Zn  Zn28      1.0  0.09320  0.39194  0.29874  1.0000 0.8670500594
Zn  Zn29      1.0  0.78293  0.03293  0.75000  1.0000 0.9416022526
Zn  Zn30      1.0  0.71707  0.96707  0.75000  1.0000 0.9416022526
Zn  Zn31      1.0  0.21707  0.96707  0.25000  1.0000 0.9416022526
Zn  Zn32      1.0  0.28293  0.03293  0.25000  1.0000 0.9416022526
Zn  Zn33      1.0  0.44358  0.09883  0.79649  1.0000 0.5904827046
Zn  Zn34      1.0  0.69766  0.90117  0.34475  1.0000 0.5904827046
Zn  Zn35      1.0  0.80234  0.64709  0.70351  1.0000 0.5818475214
Zn  Zn36      1.0  0.05642  0.35291  0.15525  1.0000 0.5818475214
Zn  Zn37      1.0  0.55642  0.90117  0.20351  1.0000 0.5904827046
Zn  Zn38      1.0  0.30234  0.09883  0.65525  1.0000 0.5818475214
Zn  Zn39      1.0  0.19766  0.35291  0.29649  1.0000 0.5904827046
Zn  Zn40      1.0  0.94358  0.64709  0.84475  1.0000 0.5818475214
Zn  Zn41      1.0  0.38382  0.08107  0.77451  1.0000 0.6093797089
Zn  Zn42      1.0  0.69344  0.91893  0.30275  1.0000 0.6093797089
Zn  Zn43      1.0  0.80656  0.60931  0.72549  1.0000 0.6093797089
Zn  Zn44      1.0  0.11618  0.39069  0.19725  1.0000 0.6093797089
Zn  Zn45      1.0  0.61618  0.91893  0.22549  1.0000 0.6093797089
Zn  Zn46      1.0  0.30656  0.08107  0.69725  1.0000 0.6093797089
Zn  Zn47      1.0  0.19344  0.39069  0.27451  1.0000 0.6093797089
Zn  Zn48      1.0  0.88382  0.60931  0.80275  1.0000 0.6093797089
H   H1        1.0  0.55050  0.26600  0.82710  1.0000 0.1308546675
H   H2        1.0  0.56110  0.73400  0.28450  1.0000 0.1308546675
H   H3        1.0  0.93890  0.72340  0.67290  1.0000 0.1308546675
H   H4        1.0  0.94950  0.27660  0.21550  1.0000 0.1308546675
H   H5        1.0  0.44950  0.73400  0.17290  1.0000 0.1308546675
H   H6        1.0  0.43890  0.26600  0.71550  1.0000 0.1308546675
H   H7        1.0  0.06110  0.27660  0.32710  1.0000 0.1308546675
H   H8        1.0  0.05050  0.72340  0.78450  1.0000 0.1308546675
H   H9        1.0  0.59650  0.09880  0.78850  1.0000 0.1308546675
H   H10       1.0  0.68970  0.90120  0.49770  1.0000 0.1308546675
H   H11       1.0  0.81030  0.80800  0.71150  1.0000 0.1308546675
H   H12       1.0  0.90350  0.19200  0.00230  1.0000 0.1308546675
H   H13       1.0  0.40350  0.90120  0.21150  1.0000 0.1308546675
H   H14       1.0  0.31030  0.09880  0.50230  1.0000 0.1308546675
H   H15       1.0  0.18970  0.19200  0.28850  1.0000 0.1308546675
H   H16       1.0  0.09650  0.80800  0.99770  1.0000 0.1308546675
H   H17       1.0  0.68730  0.20120  0.80430  1.0000 0.1383709677
H   H18       1.0  0.60310  0.79880  0.48610  1.0000 0.1383709677
H   H19       1.0  0.89690  0.88300  0.69570  1.0000 0.1383709677
H   H20       1.0  0.81270  0.11700  0.01390  1.0000 0.1383709677
H   H21       1.0  0.31270  0.79880  0.19570  1.0000 0.1383709677
H   H22       1.0  0.39690  0.20120  0.51390  1.0000 0.1383709677
H   H23       1.0  0.10310  0.11700  0.30430  1.0000 0.1383709677
H   H24       1.0  0.18730  0.88300  0.98610  1.0000 0.1383709677
H   H25       1.0  0.81070  0.77190  0.24440  1.0000 0.1234649133
H   H26       1.0  0.47250  0.22810  0.03880  1.0000 0.1234649133
H   H27       1.0  0.02750  0.56630  0.25560  1.0000 0.1234649133
H   H28       1.0  0.68930  0.43370  0.46120  1.0000 0.1234649133
H   H29       1.0  0.18930  0.22810  0.75560  1.0000 0.1234649133
H   H30       1.0  0.52750  0.77190  0.96120  1.0000 0.1234649133
H   H31       1.0  0.97250  0.43370  0.74440  1.0000 0.1234649133
H   H32       1.0  0.31070  0.56630  0.53880  1.0000 0.1234649133
H   H33       1.0  0.66750  0.62430  0.06580  1.0000 0.1308546675
H   H34       1.0  0.44150  0.37570  0.04320  1.0000 0.1308546675
H   H35       1.0  0.05850  0.60170  0.43420  1.0000 0.1308546675
H   H36       1.0  0.83250  0.39830  0.45680  1.0000 0.1308546675
H   H37       1.0  0.33250  0.37570  0.93420  1.0000 0.1308546675
H   H38       1.0  0.55850  0.62430  0.95680  1.0000 0.1308546675
H   H39       1.0  0.94150  0.39830  0.56580  1.0000 0.1308546675
H   H40       1.0  0.16750  0.60170  0.54320  1.0000 0.1308546675
H   H41       1.0  0.80530  0.56340  0.04250  1.0000 0.1383709677
H   H42       1.0  0.47910  0.43660  0.24190  1.0000 0.1383709677
H   H43       1.0  0.02090  0.76280  0.45750  1.0000 0.1383709677
H   H44       1.0  0.69470  0.23720  0.25810  1.0000 0.1383709677
H   H45       1.0  0.19470  0.43660  0.95750  1.0000 0.1383709677
H   H46       1.0  0.52090  0.56340  0.75810  1.0000 0.1383709677
H   H47       1.0  0.97910  0.23720  0.54250  1.0000 0.1383709677
H   H48       1.0  0.30530  0.76280  0.74190  1.0000 0.1383709677
H   H49       1.0  0.16640  0.89620  0.45460  1.0000 0.1308546675
H   H50       1.0  0.55840  0.10380  0.27020  1.0000 0.1308546675
H   H51       1.0  0.94160  0.71180  0.04540  1.0000 0.1308546675
H   H52       1.0  0.33360  0.28820  0.22980  1.0000 0.1308546675
H   H53       1.0  0.83360  0.10380  0.54540  1.0000 0.1308546675
H   H54       1.0  0.44160  0.89620  0.72980  1.0000 0.1308546675
H   H55       1.0  0.05840  0.28820  0.95460  1.0000 0.1308546675
H   H56       1.0  0.66640  0.71180  0.77020  1.0000 0.1308546675
H   H57       1.0  0.14330  0.69280  0.23450  1.0000 0.1234649133
H   H58       1.0  0.54170  0.30720  0.45050  1.0000 0.1234649133
H   H59       1.0  0.95830  0.90880  0.26550  1.0000 0.1234649133
H   H60       1.0  0.35670  0.09120  0.04950  1.0000 0.1234649133
H   H61       1.0  0.85670  0.30720  0.76550  1.0000 0.1234649133
H   H62       1.0  0.45830  0.69280  0.54950  1.0000 0.1234649133
H   H63       1.0  0.04170  0.09120  0.73450  1.0000 0.1234649133
H   H64       1.0  0.64330  0.90880  0.95050  1.0000 0.1234649133
H   H65       1.0  0.29180  0.82630  0.40130  1.0000 0.1308546675
H   H66       1.0  0.57500  0.17370  0.46550  1.0000 0.1308546675
H   H67       1.0  0.92500  0.89050  0.09870  1.0000 0.1308546675
H   H68       1.0  0.20820  0.10950  0.03450  1.0000 0.1308546675
H   H69       1.0  0.70820  0.17370  0.59870  1.0000 0.1308546675
H   H70       1.0  0.42500  0.82630  0.53450  1.0000 0.1308546675
H   H71       1.0  0.07500  0.10950  0.90130  1.0000 0.1308546675
H   H72       1.0  0.79180  0.89050  0.96550  1.0000 0.1308546675
C   C1        1.0  0.62053  0.24293  0.81800  1.0000 -0.0304991684
C   C2        1.0  0.57507  0.75707  0.37760  1.0000 -0.0304991684
C   C3        1.0  0.92493  0.80253  0.68200  1.0000 -0.0304991684
C   C4        1.0  0.87947  0.19747  0.12240  1.0000 -0.0304991684
C   C5        1.0  0.37947  0.75707  0.18200  1.0000 -0.0304991684
C   C6        1.0  0.42493  0.24293  0.62240  1.0000 -0.0304991684
C   C7        1.0  0.07507  0.19747  0.31800  1.0000 -0.0304991684
C   C8        1.0  0.12053  0.80253  0.87760  1.0000 -0.0304991684
C   C9        1.0  0.57441  0.23431  0.81790  1.0000 -0.0791897495
C   C10       1.0  0.58359  0.76569  0.34010  1.0000 -0.0791897495
C   C11       1.0  0.91641  0.75651  0.68210  1.0000 -0.0791897495
C   C12       1.0  0.92559  0.24349  0.15990  1.0000 -0.0791897495
C   C13       1.0  0.42559  0.76569  0.18210  1.0000 -0.0791897495
C   C14       1.0  0.41641  0.23431  0.65990  1.0000 -0.0791897495
C   C15       1.0  0.08359  0.24349  0.31790  1.0000 -0.0791897495
C   C16       1.0  0.07441  0.75651  0.84010  1.0000 -0.0791897495
C   C17       1.0  0.56372  0.17852  0.80420  1.0000 -0.067838528
C   C18       1.0  0.62568  0.82148  0.38520  1.0000 -0.067838528
C   C19       1.0  0.87432  0.75952  0.69580  1.0000 -0.067838528
C   C20       1.0  0.93628  0.24048  0.11480  1.0000 -0.067838528
C   C21       1.0  0.43628  0.82148  0.19580  1.0000 -0.067838528
C   C22       1.0  0.37432  0.17852  0.61480  1.0000 -0.067838528
C   C23       1.0  0.12568  0.24048  0.30420  1.0000 -0.067838528
C   C24       1.0  0.06372  0.75952  0.88520  1.0000 -0.067838528
C   C25       1.0  0.60183  0.13413  0.79410  1.0000 -0.0791897495
C   C26       1.0  0.65997  0.86587  0.46770  1.0000 -0.0791897495
C   C27       1.0  0.84003  0.80773  0.70590  1.0000 -0.0791897495
C   C28       1.0  0.89817  0.19227  0.03230  1.0000 -0.0791897495
C   C29       1.0  0.39817  0.86587  0.20590  1.0000 -0.0791897495
C   C30       1.0  0.34003  0.13413  0.53230  1.0000 -0.0791897495
C   C31       1.0  0.15997  0.19227  0.29410  1.0000 -0.0791897495
C   C32       1.0  0.10183  0.80773  0.96770  1.0000 -0.0791897495
C   C33       1.0  0.64703  0.14113  0.79210  1.0000 -0.0462874977
C   C34       1.0  0.65097  0.85887  0.50590  1.0000 -0.0462874977
C   C35       1.0  0.84903  0.85493  0.70790  1.0000 -0.0462874977
C   C36       1.0  0.85297  0.14507  0.99410  1.0000 -0.0462874977
C   C37       1.0  0.35297  0.85887  0.20790  1.0000 -0.0462874977
C   C38       1.0  0.34903  0.14113  0.49410  1.0000 -0.0462874977
C   C39       1.0  0.15097  0.14507  0.29210  1.0000 -0.0462874977
C   C40       1.0  0.14703  0.85493  0.00590  1.0000 -0.0462874977
C   C41       1.0  0.65654  0.19564  0.80470  1.0000 -0.0791897495
C   C42       1.0  0.60906  0.80436  0.46090  1.0000 -0.0791897495
C   C43       1.0  0.89094  0.85184  0.69530  1.0000 -0.0791897495
C   C44       1.0  0.84346  0.14816  0.03910  1.0000 -0.0791897495
C   C45       1.0  0.34346  0.80436  0.19530  1.0000 -0.0791897495
C   C46       1.0  0.39094  0.19564  0.53910  1.0000 -0.0791897495
C   C47       1.0  0.10906  0.14816  0.30470  1.0000 -0.0791897495
C   C48       1.0  0.15654  0.85184  0.96090  1.0000 -0.0791897495
C   C49       1.0  0.62902  0.29982  0.82660  1.0000 0.5904827046
C   C50       1.0  0.52678  0.70018  0.32920  1.0000 0.5904827046
C   C51       1.0  0.97322  0.80242  0.67340  1.0000 0.5904827046
C   C52       1.0  0.87098  0.19758  0.17080  1.0000 0.5904827046
C   C53       1.0  0.37098  0.70018  0.17340  1.0000 0.5904827046
C   C54       1.0  0.47322  0.29982  0.67080  1.0000 0.5904827046
C   C55       1.0  0.02678  0.19758  0.32660  1.0000 0.5904827046
C   C56       1.0  0.12902  0.80242  0.82920  1.0000 0.5904827046
C   C57       1.0  0.51314  0.16724  0.79850  1.0000 0.4564743992
C   C58       1.0  0.63126  0.83276  0.34590  1.0000 0.4564743992
C   C59       1.0  0.86874  0.71464  0.70150  1.0000 0.4564743992
C   C60       1.0  0.98686  0.28536  0.15410  1.0000 0.4564743992
C   C61       1.0  0.48686  0.83276  0.20150  1.0000 0.4564743992
C   C62       1.0  0.36874  0.16724  0.65410  1.0000 0.4564743992
C   C63       1.0  0.13126  0.28536  0.29850  1.0000 0.4564743992
C   C64       1.0  0.01314  0.71464  0.84590  1.0000 0.4564743992
C   C65       1.0  0.68569  0.09129  0.77980  1.0000 0.599315271
C   C66       1.0  0.68851  0.90871  0.59440  1.0000 0.599315271
C   C67       1.0  0.81149  0.90589  0.72020  1.0000 0.599315271
C   C68       1.0  0.81431  0.09411  0.90560  1.0000 0.599315271
C   C69       1.0  0.31431  0.90871  0.22020  1.0000 0.599315271
C   C70       1.0  0.31149  0.09129  0.40560  1.0000 0.599315271
C   C71       1.0  0.18851  0.09411  0.27980  1.0000 0.599315271
C   C72       1.0  0.18569  0.90589  0.09440  1.0000 0.599315271
C   C73       1.0  0.81750  0.66960  0.14870  1.0000 -0.0378827388
C   C74       1.0  0.47910  0.33040  0.14790  1.0000 -0.0378827388
C   C75       1.0  0.02090  0.66880  0.35130  1.0000 -0.0378827388
C   C76       1.0  0.68250  0.33120  0.35210  1.0000 -0.0378827388
C   C77       1.0  0.18250  0.33040  0.85130  1.0000 -0.0378827388
C   C78       1.0  0.52090  0.66960  0.85210  1.0000 -0.0378827388
C   C79       1.0  0.97910  0.33120  0.64870  1.0000 -0.0378827388
C   C80       1.0  0.31750  0.66880  0.64790  1.0000 -0.0378827388
C   C81       1.0  0.79059  0.72399  0.19320  1.0000 -0.0892431792
C   C82       1.0  0.46921  0.27601  0.06660  1.0000 -0.0892431792
C   C83       1.0  0.03079  0.59739  0.30680  1.0000 -0.0892431792
C   C84       1.0  0.70941  0.40261  0.43340  1.0000 -0.0892431792
C   C85       1.0  0.20941  0.27601  0.80680  1.0000 -0.0892431792
C   C86       1.0  0.53079  0.72399  0.93340  1.0000 -0.0892431792
C   C87       1.0  0.96921  0.40261  0.69320  1.0000 -0.0892431792
C   C88       1.0  0.29059  0.59739  0.56660  1.0000 -0.0892431792
C   C89       1.0  0.73422  0.70722  0.16180  1.0000 -0.0462874977
C   C90       1.0  0.45458  0.29278  0.02700  1.0000 -0.0462874977
C   C91       1.0  0.04542  0.57242  0.33820  1.0000 -0.0462874977
C   C92       1.0  0.76578  0.42758  0.47300  1.0000 -0.0462874977
C   C93       1.0  0.26578  0.29278  0.83820  1.0000 -0.0462874977
C   C94       1.0  0.54542  0.70722  0.97300  1.0000 -0.0378827388
C   C95       1.0  0.95458  0.42758  0.66180  1.0000 -0.0462874977
C   C96       1.0  0.23422  0.57242  0.52700  1.0000 -0.0462874977
C   C97       1.0  0.70498  0.63638  0.08680  1.0000 -0.0892431792
C   C98       1.0  0.45042  0.36362  0.06860  1.0000 -0.0892431792
C   C99       1.0  0.04958  0.61818  0.41320  1.0000 -0.0892431792
C   C100      1.0  0.79502  0.38182  0.43140  1.0000 -0.0892431792
C   C101      1.0  0.29502  0.36362  0.91320  1.0000 -0.0892431792
C   C102      1.0  0.54958  0.63638  0.93140  1.0000 -0.0892431792
C   C103      1.0  0.95042  0.38182  0.58680  1.0000 -0.0892431792
C   C104      1.0  0.20498  0.61818  0.56860  1.0000 -0.0892431792
C   C105      1.0  0.73162  0.58172  0.04150  1.0000 -0.0202346271
C   C106      1.0  0.45978  0.41828  0.14990  1.0000 -0.0202346271
C   C107      1.0  0.04022  0.69012  0.45850  1.0000 -0.0202346271
C   C108      1.0  0.76838  0.30988  0.35010  1.0000 -0.0202346271
C   C109      1.0  0.26838  0.41828  0.95850  1.0000 -0.0202346271
C   C110      1.0  0.54022  0.58172  0.85010  1.0000 -0.0202346271
C   C111      1.0  0.95978  0.30988  0.54150  1.0000 -0.0202346271
C   C112      1.0  0.23162  0.69012  0.64990  1.0000 -0.0202346271
C   C113      1.0  0.78786  0.59936  0.07290  1.0000 -0.0892431792
C   C114      1.0  0.47354  0.40064  0.18850  1.0000 -0.0892431792
C   C115      1.0  0.02646  0.71496  0.42710  1.0000 -0.0892431792
C   C116      1.0  0.71214  0.28504  0.31150  1.0000 -0.0892431792
C   C117      1.0  0.21214  0.40064  0.92710  1.0000 -0.0892431792
C   C118      1.0  0.52646  0.59936  0.81150  1.0000 -0.0892431792
C   C119      1.0  0.97354  0.28504  0.57290  1.0000 -0.0892431792
C   C120      1.0  0.28786  0.71496  0.68850  1.0000 -0.0892431792
C   C121      1.0  0.87816  0.68896  0.18340  1.0000 0.599315271
C   C122      1.0  0.49444  0.31104  0.18920  1.0000 0.599315271
C   C123      1.0  0.00556  0.69476  0.31660  1.0000 0.599315271
C   C124      1.0  0.62184  0.30524  0.31080  1.0000 0.599315271
C   C125      1.0  0.12184  0.31104  0.81660  1.0000 0.599315271
C   C126      1.0  0.50556  0.68896  0.81080  1.0000 0.599315271
C   C127      1.0  0.99444  0.30524  0.68340  1.0000 0.599315271
C   C128      1.0  0.37816  0.69476  0.68920  1.0000 0.599315271
C   C129      1.0  0.70491  0.76511  0.20820  1.0000 0.5671697484
C   C130      1.0  0.44309  0.23489  0.93980  1.0000 0.5671697484
C   C131      1.0  0.05691  0.49671  0.29180  1.0000 0.5671697484
C   C132      1.0  0.79509  0.50329  0.56020  1.0000 0.5671697484
C   C133      1.0  0.29509  0.23489  0.79180  1.0000 0.5671697484
C   C134      1.0  0.55691  0.76511  0.06020  1.0000 0.5671697484
C   C135      1.0  0.94309  0.50329  0.70820  1.0000 0.5671697484
C   C136      1.0  0.20491  0.49671  0.43980  1.0000 0.5671697484
C   C137      1.0  0.69686  0.50426  0.95720  1.0000 0.5818475214
C   C138      1.0  0.45294  0.49574  0.19260  1.0000 0.5818475214
C   C139      1.0  0.04706  0.73966  0.54280  1.0000 0.5818475214
C   C140      1.0  0.80314  0.26034  0.30740  1.0000 0.5818475214
C   C141      1.0  0.30314  0.49574  0.04280  1.0000 0.5818475214
C   C142      1.0  0.54706  0.50426  0.80740  1.0000 0.5818475214
C   C143      1.0  0.95294  0.26034  0.45720  1.0000 0.5818475214
C   C144      1.0  0.19686  0.73966  0.69260  1.0000 0.5818475214
C   C145      1.0  0.23450  0.87370  0.44100  1.0000 -0.0304991684
C   C146      1.0  0.56730  0.12630  0.36080  1.0000 -0.0304991684
C   C147      1.0  0.93270  0.79350  0.05900  1.0000 -0.0304991684
C   C148      1.0  0.26550  0.20650  0.13920  1.0000 -0.0304991684
C   C149      1.0  0.76550  0.12630  0.55900  1.0000 -0.0304991684
C   C150      1.0  0.43270  0.87370  0.63920  1.0000 -0.0304991684
C   C151      1.0  0.06730  0.20650  0.94100  1.0000 -0.0304991684
C   C152      1.0  0.73450  0.79350  0.86080  1.0000 -0.0304991684
C   C153      1.0  0.17998  0.85938  0.41800  1.0000 -0.0892431792
C   C154      1.0  0.55862  0.14062  0.32060  1.0000 -0.0892431792
C   C155      1.0  0.94138  0.76198  0.08200  1.0000 -0.0892431792
C   C156      1.0  0.32002  0.23802  0.17940  1.0000 -0.0892431792
C   C157      1.0  0.82002  0.14062  0.58200  1.0000 -0.0892431792
C   C158      1.0  0.44138  0.85938  0.67940  1.0000 -0.0892431792
C   C159      1.0  0.05862  0.23802  0.91800  1.0000 -0.0892431792
C   C160      1.0  0.67998  0.76198  0.82060  1.0000 -0.0892431792
C   C161      1.0  0.14565  0.79125  0.34160  1.0000 -0.0378827388
C   C162      1.0  0.55035  0.20875  0.35440  1.0000 -0.0378827388
C   C163      1.0  0.94965  0.80405  0.15840  1.0000 -0.0378827388
C   C164      1.0  0.35435  0.19595  0.14560  1.0000 -0.0378827388
C   C165      1.0  0.85435  0.20875  0.65840  1.0000 -0.0378827388
C   C166      1.0  0.44965  0.79125  0.64560  1.0000 -0.0378827388
C   C167      1.0  0.05035  0.19595  0.84160  1.0000 -0.0378827388
C   C168      1.0  0.64565  0.80405  0.85440  1.0000 -0.0378827388
C   C169      1.0  0.16653  0.73813  0.28680  1.0000 -0.0892431792
C   C170      1.0  0.54867  0.26187  0.42840  1.0000 -0.0892431792
C   C171      1.0  0.95133  0.87973  0.21320  1.0000 -0.0892431792
C   C172      1.0  0.33347  0.12027  0.07160  1.0000 -0.0892431792
C   C173      1.0  0.83347  0.26187  0.71320  1.0000 -0.0892431792
C   C174      1.0  0.45133  0.73813  0.57160  1.0000 -0.0892431792
C   C175      1.0  0.04867  0.12027  0.78680  1.0000 -0.0892431792
C   C176      1.0  0.66653  0.87973  0.92840  1.0000 -0.0892431792
C   C177      1.0  0.21983  0.75083  0.30780  1.0000 -0.0304991684
C   C178      1.0  0.55697  0.24917  0.46900  1.0000 -0.0304991684
C   C179      1.0  0.94303  0.91203  0.19220  1.0000 -0.0304991684
C   C180      1.0  0.28017  0.08797  0.03100  1.0000 -0.0304991684
C   C181      1.0  0.78017  0.24917  0.69220  1.0000 -0.0304991684
C   C182      1.0  0.44303  0.75083  0.53100  1.0000 -0.0304991684
C   C183      1.0  0.05697  0.08797  0.80780  1.0000 -0.0304991684
C   C184      1.0  0.71983  0.91203  0.96900  1.0000 -0.0304991684
C   C185      1.0  0.25477  0.81797  0.38560  1.0000 -0.1041059332
C   C186      1.0  0.56763  0.18203  0.43680  1.0000 -0.1041059332
C   C187      1.0  0.93237  0.86917  0.11440  1.0000 -0.1041059332
C   C188      1.0  0.24523  0.13083  0.06320  1.0000 -0.1041059332
C   C189      1.0  0.74523  0.18203  0.61440  1.0000 -0.1053315101
C   C190      1.0  0.43237  0.81797  0.56320  1.0000 -0.1041059332
C   C191      1.0  0.06763  0.13083  0.88560  1.0000 -0.1041059332
C   C192      1.0  0.75477  0.86917  0.93680  1.0000 -0.1041059332
C   C193      1.0  0.27265  0.94775  0.52270  1.0000 0.5576896893
C   C194      1.0  0.57495  0.05225  0.32490  1.0000 0.5576896893
C   C195      1.0  0.92505  0.74995  0.97730  1.0000 0.5576896893
C   C196      1.0  0.22735  0.25005  0.17510  1.0000 0.5576896893
C   C197      1.0  0.72735  0.05225  0.47730  1.0000 0.5576896893
C   C198      1.0  0.42505  0.94775  0.67510  1.0000 0.5576896893
C   C199      1.0  0.07495  0.25005  0.02270  1.0000 0.5576896893
C   C200      1.0  0.77265  0.74995  0.82490  1.0000 0.5576896893
C   C201      1.0  0.08658  0.77588  0.31510  1.0000 0.599315271
C   C202      1.0  0.53922  0.22412  0.31070  1.0000 0.599315271
C   C203      1.0  0.96078  0.77148  0.18490  1.0000 0.599315271
C   C204      1.0  0.41342  0.22852  0.18930  1.0000 0.599315271
C   C205      1.0  0.91342  0.22412  0.68490  1.0000 0.599315271
C   C206      1.0  0.46078  0.77588  0.68930  1.0000 0.599315271
C   C207      1.0  0.03922  0.22852  0.81510  1.0000 0.599315271
C   C208      1.0  0.58658  0.77148  0.81070  1.0000 0.599315271
C   C209      1.0  0.24140  0.69420  0.24620  1.0000 0.4564743992
C   C210      1.0  0.55200  0.30580  0.54720  1.0000 0.4541412073
C   C211      1.0  0.94800  0.99520  0.25380  1.0000 0.4541412073
C   C212      1.0  0.25860  0.00480  0.95280  1.0000 0.4564743992
C   C213      1.0  0.75860  0.30580  0.75380  1.0000 0.4564743992
C   C214      1.0  0.44800  0.69420  0.45280  1.0000 0.4564743992
C   C215      1.0  0.05200  0.00480  0.74620  1.0000 0.4564743992
C   C216      1.0  0.74140  0.99520  0.04720  1.0000 0.4564743992
O   O1        1.0  0.30843  0.06203  0.75360  1.0000 -0.7895528399
O   O2        1.0  0.69157  0.93797  0.24640  1.0000 -0.7991264982
O   O3        1.0  0.80843  0.55483  0.74640  1.0000 -0.7895528399
O   O4        1.0  0.19157  0.44517  0.25360  1.0000 -0.7895528399
O   O5        1.0  0.66885  0.29924  0.81621  1.0000 -0.5468209905
O   O6        1.0  0.51697  0.70076  0.36961  1.0000 -0.5468209905
O   O7        1.0  0.98303  0.85264  0.68379  1.0000 -0.5468209905
O   O8        1.0  0.83115  0.14736  0.13039  1.0000 -0.5468209905
O   O9        1.0  0.33115  0.70076  0.18379  1.0000 -0.5468209905
O   O10       1.0  0.48303  0.29924  0.63039  1.0000 -0.5468209905
O   O11       1.0  0.01697  0.14736  0.31621  1.0000 -0.5468209905
O   O12       1.0  0.16885  0.85264  0.86961  1.0000 -0.5468209905
O   O13       1.0  0.59832  0.34296  0.84356  1.0000 -0.5078357084
O   O14       1.0  0.50060  0.65704  0.25536  1.0000 -0.5031879493
O   O15       1.0  0.99940  0.75476  0.65644  1.0000 -0.5031879493
O   O16       1.0  0.90168  0.24524  0.24464  1.0000 -0.5078357084
O   O17       1.0  0.40168  0.65704  0.15644  1.0000 -0.5031879493
O   O18       1.0  0.49940  0.34296  0.74464  1.0000 -0.5078357084
O   O19       1.0  0.00060  0.24524  0.34356  1.0000 -0.5031879493
O   O20       1.0  0.09832  0.75476  0.75536  1.0000 -0.5078357084
O   O21       1.0  0.48614  0.21300  0.82054  1.0000 -0.4202693326
O   O22       1.0  0.60754  0.78700  0.27314  1.0000 -0.4202693326
O   O23       1.0  0.89246  0.66560  0.67946  1.0000 -0.4202693326
O   O24       1.0  0.01386  0.33440  0.22686  1.0000 -0.4202693326
O   O25       1.0  0.51386  0.78700  0.17946  1.0000 -0.4202693326
O   O26       1.0  0.39246  0.21300  0.72686  1.0000 -0.4202693326
O   O27       1.0  0.10754  0.33440  0.32054  1.0000 -0.4202693326
O   O28       1.0  0.98614  0.66560  0.77314  1.0000 -0.4202693326
O   O29       1.0  0.72605  0.09885  0.77720  1.0000 -0.5392158625
O   O30       1.0  0.67835  0.90115  0.62720  1.0000 -0.5392158625
O   O31       1.0  0.82165  0.94885  0.72280  1.0000 -0.5392158625
O   O32       1.0  0.77395  0.05115  0.87280  1.0000 -0.5392158625
O   O33       1.0  0.27395  0.90115  0.22280  1.0000 -0.5392158625
O   O34       1.0  0.32165  0.09885  0.37280  1.0000 -0.5392158625
O   O35       1.0  0.17835  0.05115  0.27720  1.0000 -0.5392158625
O   O36       1.0  0.22605  0.94885  0.12720  1.0000 -0.5392158625
O   O37       1.0  0.67497  0.04377  0.77000  1.0000 -0.5296146825
O   O38       1.0  0.72623  0.95623  0.63120  1.0000 -0.5296146825
O   O39       1.0  0.77377  0.90497  0.73000  1.0000 -0.5296146825
O   O40       1.0  0.82503  0.09503  0.86880  1.0000 -0.5296146825
O   O41       1.0  0.32503  0.95623  0.23000  1.0000 -0.5296146825
O   O42       1.0  0.27377  0.04377  0.36880  1.0000 -0.5296146825
O   O43       1.0  0.22623  0.09503  0.27000  1.0000 -0.5296146825
O   O44       1.0  0.17497  0.90497  0.13120  1.0000 -0.5296146825
O   O45       1.0  0.90000  0.64057  0.13923  1.0000 -0.5392158625
O   O46       1.0  0.49866  0.35943  0.25943  1.0000 -0.5392158625
O   O47       1.0  0.00134  0.76077  0.36077  1.0000 -0.5392158625
O   O48       1.0  0.60000  0.23923  0.24057  1.0000 -0.5392158625
O   O49       1.0  0.10000  0.35943  0.86077  1.0000 -0.5392158625
O   O50       1.0  0.50134  0.64057  0.74057  1.0000 -0.5392158625
O   O51       1.0  0.99866  0.23923  0.63923  1.0000 -0.5392158625
O   O52       1.0  0.40000  0.76077  0.75943  1.0000 -0.5392158625
O   O53       1.0  0.90393  0.75391  0.25522  1.0000 -0.5587793735
O   O54       1.0  0.50131  0.24609  0.15002  1.0000 -0.5587793735
O   O55       1.0  0.99869  0.64871  0.24478  1.0000 -0.5587793735
O   O56       1.0  0.59607  0.35129  0.34998  1.0000 -0.5587793735
O   O57       1.0  0.09607  0.24609  0.74478  1.0000 -0.5587793735
O   O58       1.0  0.49869  0.75391  0.84998  1.0000 -0.5587793735
O   O59       1.0  0.00131  0.35129  0.75522  1.0000 -0.5587793735
O   O60       1.0  0.40393  0.64871  0.65002  1.0000 -0.5587793735
O   O61       1.0  0.73114  0.83014  0.27000  1.0000 -0.4433070568
O   O62       1.0  0.43986  0.16986  0.90100  1.0000 -0.4433070568
O   O63       1.0  0.06014  0.46114  0.23000  1.0000 -0.4433070568
O   O64       1.0  0.76886  0.53886  0.59900  1.0000 -0.4433070568
O   O65       1.0  0.26886  0.16986  0.73000  1.0000 -0.4433070568
O   O66       1.0  0.56014  0.83014  0.09900  1.0000 -0.4433070568
O   O67       1.0  0.93986  0.53886  0.77000  1.0000 -0.4433070568
O   O68       1.0  0.23114  0.46114  0.40100  1.0000 -0.4433070568
O   O69       1.0  0.65753  0.74478  0.18195  1.0000 -0.4803840404
O   O70       1.0  0.43717  0.25522  0.91275  1.0000 -0.4803840404
O   O71       1.0  0.06283  0.47558  0.31805  1.0000 -0.4803840404
O   O72       1.0  0.84247  0.52442  0.58725  1.0000 -0.4803840404
O   O73       1.0  0.34247  0.25522  0.81805  1.0000 -0.4803840404
O   O74       1.0  0.56283  0.74478  0.08725  1.0000 -0.4803840404
O   O75       1.0  0.93717  0.52442  0.68195  1.0000 -0.4803840404
O   O76       1.0  0.15753  0.47558  0.41275  1.0000 -0.4803840404
O   O77       1.0  0.65015  0.49091  0.93864  1.0000 -0.5031879493
O   O78       1.0  0.44773  0.50909  0.15924  1.0000 -0.5031879493
O   O79       1.0  0.05227  0.71151  0.56136  1.0000 -0.5031879493
O   O80       1.0  0.84985  0.28849  0.34076  1.0000 -0.5031879493
O   O81       1.0  0.34985  0.50909  0.06136  1.0000 -0.5031879493
O   O82       1.0  0.55227  0.49091  0.84076  1.0000 -0.5031879493
O   O83       1.0  0.94773  0.28849  0.43864  1.0000 -0.5031879493
O   O84       1.0  0.15015  0.71151  0.65924  1.0000 -0.5031879493
O   O85       1.0  0.72042  0.45904  0.91358  1.0000 -0.5296146825
O   O86       1.0  0.45454  0.54096  0.26138  1.0000 -0.5296146825
O   O87       1.0  0.04546  0.80684  0.58642  1.0000 -0.5229592247
O   O88       1.0  0.77958  0.19316  0.23862  1.0000 -0.5229592247
O   O89       1.0  0.27958  0.54096  0.08642  1.0000 -0.5229592247
O   O90       1.0  0.54546  0.45904  0.73862  1.0000 -0.5296146825
O   O91       1.0  0.95454  0.19316  0.41358  1.0000 -0.5229592247
O   O92       1.0  0.22042  0.80684  0.76138  1.0000 -0.5229592247
O   O93       1.0  0.31911  0.95616  0.53695  1.0000 -0.4707539787
O   O94       1.0  0.58079  0.04384  0.36295  1.0000 -0.4707539787
O   O95       1.0  0.91921  0.78216  0.96305  1.0000 -0.4707539787
O   O96       1.0  0.18089  0.21784  0.13705  1.0000 -0.4707539787
O   O97       1.0  0.68089  0.04384  0.46305  1.0000 -0.4707539787
O   O98       1.0  0.41921  0.95616  0.63705  1.0000 -0.4707539787
O   O99       1.0  0.08079  0.21784  0.03695  1.0000 -0.4707539787
O   O100      1.0  0.81911  0.78216  0.86295  1.0000 -0.4707539787
O   O101      1.0  0.25381  0.99831  0.56890  1.0000 -0.4295044539
O   O102      1.0  0.57059  0.00169  0.25550  1.0000 -0.4295044539
O   O103      1.0  0.92941  0.68491  0.93110  1.0000 -0.4295044539
O   O104      1.0  0.24619  0.31509  0.24450  1.0000 -0.4295044539
O   O105      1.0  0.74619  0.00169  0.43110  1.0000 -0.4295044539
O   O106      1.0  0.42941  0.99831  0.74450  1.0000 -0.4295044539
O   O107      1.0  0.07059  0.31509  0.06890  1.0000 -0.4295044539
O   O108      1.0  0.75381  0.68491  0.75550  1.0000 -0.4295044539
O   O109      1.0  0.06856  0.82512  0.36564  1.0000 -0.5296146825
O   O110      1.0  0.54052  0.17488  0.24344  1.0000 -0.5296146825
O   O111      1.0  0.95948  0.70292  0.13436  1.0000 -0.5296146825
O   O112      1.0  0.43144  0.29708  0.25656  1.0000 -0.5296146825
O   O113      1.0  0.93144  0.17488  0.63436  1.0000 -0.5296146825
O   O114      1.0  0.45948  0.82512  0.75656  1.0000 -0.5296146825
O   O115      1.0  0.04052  0.29708  0.86564  1.0000 -0.5296146825
O   O116      1.0  0.56856  0.70292  0.74344  1.0000 -0.5296146825
O   O117      1.0  0.05794  0.71283  0.24171  1.0000 -0.5587793735
O   O118      1.0  0.52888  0.28717  0.34511  1.0000 -0.5587793735
O   O119      1.0  0.97112  0.81623  0.25829  1.0000 -0.5587793735
O   O120      1.0  0.44206  0.18377  0.15489  1.0000 -0.5587793735
O   O121      1.0  0.94206  0.28717  0.75829  1.0000 -0.5587793735
O   O122      1.0  0.47112  0.71283  0.65489  1.0000 -0.5587793735
O   O123      1.0  0.02888  0.18377  0.74171  1.0000 -0.5587793735
O   O124      1.0  0.55794  0.81623  0.84511  1.0000 -0.5587793735
O   O125      1.0  0.29027  0.70411  0.26876  1.0000 -0.4086676983
O   O126      1.0  0.56465  0.29589  0.58616  1.0000 -0.4086676983
O   O127      1.0  0.93535  0.02151  0.23124  1.0000 -0.4086676983
O   O128      1.0  0.20973  0.97849  0.91384  1.0000 -0.4086676983
O   O129      1.0  0.70973  0.29589  0.73124  1.0000 -0.4086676983
O   O130      1.0  0.43535  0.70411  0.41384  1.0000 -0.4086676983
O   O131      1.0  0.06465  0.97849  0.76876  1.0000 -0.4086676983
O   O132      1.0  0.79027  0.02151  0.08616  1.0000 -0.4086676983
O   O133      1.0  0.60450  0.35650  0.75200  1.0000 -0.8776621593
O   O134      1.0  0.39550  0.64350  0.24800  1.0000 -0.8776621593
O   O135      1.0  0.10450  0.85250  0.74800  1.0000 -0.8776621593
O   O136      1.0  0.89550  0.14750  0.25200  1.0000 -0.8776621593
O   O137      1.0  0.37822  0.10142  0.72320  1.0000 -0.8346587939
O   O138      1.0  0.62178  0.89858  0.27680  1.0000 -0.8360490722
O   O139      1.0  0.87822  0.65502  0.77680  1.0000 -0.8360490722
O   O140      1.0  0.12178  0.34498  0.22320  1.0000 -0.8360490722
O   O141      1.0  0.20650  0.65130  0.17000  1.0000 -0.1800859991
O   O142      1.0  0.51870  0.34870  0.55520  1.0000 -0.1800859991
O   O143      1.0  0.98130  0.03650  0.33000  1.0000 -0.1892858444
O   O144      1.0  0.29350  0.96350  0.94480  1.0000 -0.1892858444
O   O145      1.0  0.79350  0.34870  0.83000  1.0000 -0.1800859991
O   O146      1.0  0.48130  0.65130  0.44480  1.0000 -0.1800859991
O   O147      1.0  0.01870  0.96350  0.67000  1.0000 -0.1800859991
O   O148      1.0  0.70650  0.03650  0.05520  1.0000 -0.1800859991
O   O149      1.0  0.48860  0.09370  0.73590  1.0000 -0.2164080394
O   O150      1.0  0.64220  0.90630  0.39490  1.0000 -0.2164080394
O   O151      1.0  0.85780  0.75270  0.76410  1.0000 -0.2164080394
O   O152      1.0  0.01140  0.24730  0.10510  1.0000 -0.2130582604
O   O153      1.0  0.51140  0.90630  0.26410  1.0000 -0.2164080394
O   O154      1.0  0.35780  0.09370  0.60510  1.0000 -0.2130582604
O   O155      1.0  0.14220  0.24730  0.23590  1.0000 -0.2130582604
O   O156      1.0  0.98860  0.75270  0.89490  1.0000 -0.2164080394
O   O157      1.0  0.21580  0.62250  0.19310  1.0000 -0.1474450675
O   O158      1.0  0.57060  0.37750  0.59330  1.0000 -0.1416857047
O   O159      1.0  0.92940  0.02270  0.30690  1.0000 -0.1474450675
O   O160      1.0  0.28420  0.97730  0.90670  1.0000 -0.1554386241
O   O161      1.0  0.78420  0.37750  0.80690  1.0000 -0.1474450675
O   O162      1.0  0.42940  0.62250  0.40670  1.0000 -0.1416857047
O   O163      1.0  0.07060  0.97730  0.69310  1.0000 -0.1474450675
O   O164      1.0  0.71580  0.02270  0.09330  1.0000 -0.1474450675
O   O165      1.0  0.50979  0.12299  0.80560  1.0000 -0.1474450675
O   O166      1.0  0.68261  0.87701  0.38680  1.0000 -0.1474450675
O   O167      1.0  0.81739  0.70419  0.69440  1.0000 -0.1416857047
O   O168      1.0  0.99021  0.29581  0.11320  1.0000 -0.1474450675
O   O169      1.0  0.49021  0.87701  0.19440  1.0000 -0.1474450675
O   O170      1.0  0.31739  0.12299  0.61320  1.0000 -0.1416857047
O   O171      1.0  0.18261  0.29581  0.30560  1.0000 -0.1474450675
O   O172      1.0  0.00979  0.70419  0.88680  1.0000 -0.1416857047
