# DDEC6 charges by PACMAN v1.1 (https://github.com/mtap-research/PACMAN-charge/)
data_2013[Mg][acs]3[ASR]2
_chemical_formula_sum              "Mg2 H6 C6 O12"
_cell_length_a       7.2605
_cell_length_b       7.2605
_cell_length_c       8.2156
_cell_angle_alpha    90
_cell_angle_beta     90
_cell_angle_gamma    120

_symmetry_space_group_name_H-M    "P 1"
_symmetry_Int_Tables_number       1

loop_
  _symmetry_equiv_pos_as_xyz
  'x, y, z'

loop_
  _atom_site_type_symbol
  _atom_site_label
  _atom_site_symmetry_multiplicity
  _atom_site_fract_x
  _atom_site_fract_y
  _atom_site_fract_z
  _atom_site_occupancy
  _atom_site_charge
Mg  Mg1       1.0  0.66667  0.33333  0.75000  1.0000 1.2775704655
Mg  Mg2       1.0  0.33333  0.66667  0.25000  1.0000 1.2775704655
H   H1        1.0  0.00000  0.56830  0.00000  1.0000 0.1076802107
H   H2        1.0  0.43170  0.43170  0.00000  1.0000 0.1076802107
H   H3        1.0  0.56830  0.00000  0.00000  1.0000 0.1076802107
H   H4        1.0  0.00000  0.43170  0.50000  1.0000 0.1076802107
H   H5        1.0  0.56830  0.56830  0.50000  1.0000 0.1076802107
H   H6        1.0  0.43170  0.00000  0.50000  1.0000 0.1076802107
C   C1        1.0  0.00000  0.44020  0.00000  1.0000 0.5180781873
C   C2        1.0  0.55980  0.55980  0.00000  1.0000 0.5180781873
C   C3        1.0  0.44020  0.00000  0.00000  1.0000 0.5180781873
C   C4        1.0  0.00000  0.55980  0.50000  1.0000 0.5180781873
C   C5        1.0  0.44020  0.44020  0.50000  1.0000 0.5180781873
C   C6        1.0  0.55980  0.00000  0.50000  1.0000 0.5180781873
O   O1        1.0  0.89073  0.31009  0.89398  1.0000 -0.5258076099
O   O2        1.0  0.68991  0.58064  0.89398  1.0000 -0.5258076099
O   O3        1.0  0.41936  0.10927  0.89398  1.0000 -0.5258076099
O   O4        1.0  0.10927  0.68991  0.39398  1.0000 -0.5258076099
O   O5        1.0  0.31009  0.41936  0.39398  1.0000 -0.5258076099
O   O6        1.0  0.58064  0.89073  0.39398  1.0000 -0.5258076099
O   O7        1.0  0.31009  0.89073  0.10602  1.0000 -0.5258076099
O   O8        1.0  0.58064  0.68991  0.10602  1.0000 -0.5258076099
O   O9        1.0  0.10927  0.41936  0.10602  1.0000 -0.5258076099
O   O10       1.0  0.68991  0.10927  0.60602  1.0000 -0.5258076099
O   O11       1.0  0.41936  0.31009  0.60602  1.0000 -0.5258076099
O   O12       1.0  0.89073  0.58064  0.60602  1.0000 -0.5258076099
