# DDEC6 charges by PACMAN v1.1 (https://github.com/mtap-research/PACMAN-charge/)
data_2013[Eu][nan]3[ASR]6
_chemical_formula_sum              "Eu8 H16 C48 N16 O40"
_cell_length_a       7.5755
_cell_length_b       15.6186
_cell_length_c       16.6991
_cell_angle_alpha    90
_cell_angle_beta     94.375
_cell_angle_gamma    90

_symmetry_space_group_name_H-M    "P 1"
_symmetry_Int_Tables_number       1

loop_
  _symmetry_equiv_pos_as_xyz
  'x, y, z'

loop_
  _atom_site_type_symbol
  _atom_site_label
  _atom_site_symmetry_multiplicity
  _atom_site_fract_x
  _atom_site_fract_y
  _atom_site_fract_z
  _atom_site_occupancy
  _atom_site_charge
Eu  Eu1       1.0  0.62558  0.89792  0.54017  1.0000 2.0313041588
Eu  Eu2       1.0  0.37442  0.39792  0.95983  1.0000 2.0313041588
Eu  Eu3       1.0  0.37442  0.10208  0.45983  1.0000 2.0313041588
Eu  Eu4       1.0  0.62558  0.60208  0.04017  1.0000 2.0313041588
Eu  Eu5       1.0  0.86696  0.05043  0.40551  1.0000 2.0408788105
Eu  Eu6       1.0  0.13304  0.55043  0.09449  1.0000 2.0408788105
Eu  Eu7       1.0  0.13304  0.94957  0.59449  1.0000 2.0408788105
Eu  Eu8       1.0  0.86696  0.44957  0.90551  1.0000 2.0408788105
H   H1        1.0  0.23900  0.69520  0.32680  1.0000 0.1511072568
H   H2        1.0  0.76100  0.19520  0.17320  1.0000 0.1511072568
H   H3        1.0  0.76100  0.30480  0.67320  1.0000 0.1511072568
H   H4        1.0  0.23900  0.80480  0.82680  1.0000 0.1511072568
H   H5        1.0  0.80800  0.75390  0.40740  1.0000 0.1239540656
H   H6        1.0  0.19200  0.25390  0.09260  1.0000 0.1239540656
H   H7        1.0  0.19200  0.24610  0.59260  1.0000 0.1239540656
H   H8        1.0  0.80800  0.74610  0.90740  1.0000 0.1239540656
H   H9        1.0  0.17530  0.82670  0.20870  1.0000 0.1511072568
H   H10       1.0  0.82470  0.32670  0.29130  1.0000 0.1511072568
H   H11       1.0  0.82470  0.17330  0.79130  1.0000 0.1511072568
H   H12       1.0  0.17530  0.67330  0.70870  1.0000 0.1511072568
H   H13       1.0  0.63510  0.93030  0.25590  1.0000 0.1239540656
H   H14       1.0  0.36490  0.43030  0.24410  1.0000 0.1239540656
H   H15       1.0  0.36490  0.06970  0.74410  1.0000 0.1239540656
H   H16       1.0  0.63510  0.56970  0.75590  1.0000 0.1239540656
C   C1        1.0  0.25820  0.80820  0.44990  1.0000 0.5730886389
C   C2        1.0  0.74180  0.30820  0.05010  1.0000 0.5730886389
C   C3        1.0  0.74180  0.19180  0.55010  1.0000 0.5730886389
C   C4        1.0  0.25820  0.69180  0.94990  1.0000 0.5730886389
C   C5        1.0  0.39960  0.76540  0.40520  1.0000 0.1511072568
C   C6        1.0  0.60040  0.26540  0.09480  1.0000 0.1511072568
C   C7        1.0  0.60040  0.23460  0.59480  1.0000 0.1511072568
C   C8        1.0  0.39960  0.73460  0.90520  1.0000 0.1511072568
C   C9        1.0  0.35570  0.71070  0.34110  1.0000 -0.1857541422
C   C10       1.0  0.64430  0.21070  0.15890  1.0000 -0.1857541422
C   C11       1.0  0.64430  0.28930  0.65890  1.0000 -0.1857541422
C   C12       1.0  0.35570  0.78930  0.84110  1.0000 -0.1857541422
C   C13       1.0  0.49300  0.68070  0.29990  1.0000 0.1291846563
C   C14       1.0  0.50700  0.18070  0.20010  1.0000 0.1291846563
C   C15       1.0  0.50700  0.31930  0.70010  1.0000 0.1291846563
C   C16       1.0  0.49300  0.81930  0.79990  1.0000 0.1291846563
C   C17       1.0  0.45770  0.63260  0.22160  1.0000 0.6075524022
C   C18       1.0  0.54230  0.13260  0.27840  1.0000 0.6075524022
C   C19       1.0  0.54230  0.36740  0.77840  1.0000 0.6075524022
C   C20       1.0  0.45770  0.86740  0.72160  1.0000 0.6075524022
C   C21       1.0  0.69070  0.74570  0.38820  1.0000 0.2502489319
C   C22       1.0  0.30930  0.24570  0.11180  1.0000 0.2502489319
C   C23       1.0  0.30930  0.25430  0.61180  1.0000 0.2502489319
C   C24       1.0  0.69070  0.75430  0.88820  1.0000 0.2502489319
C   C25       1.0  0.20130  0.95200  0.32020  1.0000 0.5730886389
C   C26       1.0  0.79870  0.45200  0.17980  1.0000 0.5730886389
C   C27       1.0  0.79870  0.04800  0.67980  1.0000 0.5730886389
C   C28       1.0  0.20130  0.54800  0.82020  1.0000 0.5730886389
C   C29       1.0  0.04410  0.91250  0.27360  1.0000 0.1511072568
C   C30       1.0  0.95590  0.41250  0.22640  1.0000 0.1511072568
C   C31       1.0  0.95590  0.08750  0.72640  1.0000 0.1511072568
C   C32       1.0  0.04410  0.58750  0.77360  1.0000 0.1511072568
C   C33       1.0  0.06410  0.84740  0.21880  1.0000 -0.178850885
C   C34       1.0  0.93590  0.34740  0.28120  1.0000 -0.178850885
C   C35       1.0  0.93590  0.15260  0.78120  1.0000 -0.178850885
C   C36       1.0  0.06410  0.65260  0.71880  1.0000 -0.178850885
C   C37       1.0  0.91130  0.81450  0.17970  1.0000 0.1418380966
C   C38       1.0  0.08870  0.31450  0.32030  1.0000 0.1418380966
C   C39       1.0  0.08870  0.18550  0.82030  1.0000 0.1418380966
C   C40       1.0  0.91130  0.68550  0.67970  1.0000 0.1418380966
C   C41       1.0  0.91450  0.73840  0.12300  1.0000 0.6031946172
C   C42       1.0  0.08550  0.23840  0.37700  1.0000 0.6031946172
C   C43       1.0  0.08550  0.26160  0.87700  1.0000 0.6031946172
C   C44       1.0  0.91450  0.76160  0.62300  1.0000 0.6031946172
C   C45       1.0  0.74560  0.90800  0.24680  1.0000 0.2502489319
C   C46       1.0  0.25440  0.40800  0.25320  1.0000 0.2502489319
C   C47       1.0  0.25440  0.09200  0.75320  1.0000 0.2502489319
C   C48       1.0  0.74560  0.59200  0.74680  1.0000 0.2502489319
N   N1        1.0  0.56760  0.78500  0.42850  1.0000 -0.3419622178
N   N2        1.0  0.43240  0.28500  0.07150  1.0000 -0.3419622178
N   N3        1.0  0.43240  0.21500  0.57150  1.0000 -0.3419622178
N   N4        1.0  0.56760  0.71500  0.92850  1.0000 -0.3419622178
N   N5        1.0  0.66330  0.69630  0.32360  1.0000 -0.2872349913
N   N6        1.0  0.33670  0.19630  0.17640  1.0000 -0.2872349913
N   N7        1.0  0.33670  0.30370  0.67640  1.0000 -0.2872349913
N   N8        1.0  0.66330  0.80370  0.82360  1.0000 -0.2872349913
N   N9        1.0  0.88500  0.94050  0.29030  1.0000 -0.3419622178
N   N10       1.0  0.11500  0.44050  0.20970  1.0000 -0.3419622178
N   N11       1.0  0.11500  0.05950  0.70970  1.0000 -0.3419622178
N   N12       1.0  0.88500  0.55950  0.79030  1.0000 -0.3419622178
N   N13       1.0  0.75010  0.84650  0.19140  1.0000 -0.2790045883
N   N14       1.0  0.24990  0.34650  0.30860  1.0000 -0.2790045883
N   N15       1.0  0.24990  0.15350  0.80860  1.0000 -0.2790045883
N   N16       1.0  0.75010  0.65350  0.69140  1.0000 -0.2790045883
O   O1        1.0  0.31340  0.86050  0.50580  1.0000 -0.6465146612
O   O2        1.0  0.68660  0.36050  0.99420  1.0000 -0.6465146612
O   O3        1.0  0.68660  0.13950  0.49420  1.0000 -0.6465146612
O   O4        1.0  0.31340  0.63950  0.00580  1.0000 -0.6465146612
O   O5        1.0  0.10250  0.79290  0.42860  1.0000 -0.4309235881
O   O6        1.0  0.89750  0.29290  0.07140  1.0000 -0.4309235881
O   O7        1.0  0.89750  0.20710  0.57140  1.0000 -0.4309235881
O   O8        1.0  0.10250  0.70710  0.92860  1.0000 -0.4309235881
O   O9        1.0  0.31160  0.59580  0.21100  1.0000 -0.5978864725
O   O10       1.0  0.68840  0.09580  0.28900  1.0000 -0.5978864725
O   O11       1.0  0.68840  0.40420  0.78900  1.0000 -0.5978864725
O   O12       1.0  0.31160  0.90420  0.71100  1.0000 -0.5978864725
O   O13       1.0  0.57140  0.63670  0.17220  1.0000 -0.5751910726
O   O14       1.0  0.42860  0.13670  0.32780  1.0000 -0.5738532762
O   O15       1.0  0.42860  0.36330  0.82780  1.0000 -0.5751910726
O   O16       1.0  0.57140  0.86330  0.67220  1.0000 -0.5738532762
O   O17       1.0  0.16540  0.00850  0.37320  1.0000 -0.6465146612
O   O18       1.0  0.83460  0.50850  0.12680  1.0000 -0.6465146612
O   O19       1.0  0.83460  0.99150  0.62680  1.0000 -0.6465146612
O   O20       1.0  0.16540  0.49150  0.87320  1.0000 -0.6465146612
O   O21       1.0  0.35080  0.92880  0.30590  1.0000 -0.4309235881
O   O22       1.0  0.64920  0.42880  0.19410  1.0000 -0.4309235881
O   O23       1.0  0.64920  0.07120  0.69410  1.0000 -0.4309235881
O   O24       1.0  0.35080  0.57120  0.80590  1.0000 -0.4309235881
O   O25       1.0  0.04390  0.68950  0.13310  1.0000 -0.5978864725
O   O26       1.0  0.95610  0.18950  0.36690  1.0000 -0.5978864725
O   O27       1.0  0.95610  0.31050  0.86690  1.0000 -0.5978864725
O   O28       1.0  0.04390  0.81050  0.63310  1.0000 -0.5978864725
O   O29       1.0  0.78470  0.72850  0.07280  1.0000 -0.5891691069
O   O30       1.0  0.21530  0.22850  0.42720  1.0000 -0.5891691069
O   O31       1.0  0.21530  0.27150  0.92720  1.0000 -0.5891691069
O   O32       1.0  0.78470  0.77150  0.57280  1.0000 -0.5891691069
O   O33       1.0  0.90750  0.92360  0.48650  1.0000 -0.9599868278
O   O34       1.0  0.09250  0.42360  0.01350  1.0000 -0.9494211893
O   O35       1.0  0.09250  0.07640  0.51350  1.0000 -0.9599868278
O   O36       1.0  0.90750  0.57640  0.98650  1.0000 -0.9599868278
O   O37       1.0  0.58050  0.99060  0.42640  1.0000 -0.9599868278
O   O38       1.0  0.41950  0.49060  0.07360  1.0000 -0.9599868278
O   O39       1.0  0.41950  0.00940  0.57360  1.0000 -0.9730328838
O   O40       1.0  0.58050  0.50940  0.92640  1.0000 -0.9730328838
