# DDEC6 charges by PACMAN v1.1 (https://github.com/mtap-research/PACMAN-charge/)
data_2013[Fe][nan]3[ASR]1
_chemical_formula_sum              "Fe4 H48 C72 N24"
_cell_length_a       26.2606
_cell_length_b       22.951
_cell_length_c       13.7152
_cell_angle_alpha    87.7025
_cell_angle_beta     60.8409
_cell_angle_gamma    31.4566

_symmetry_space_group_name_H-M    "P 1"
_symmetry_Int_Tables_number       1

loop_
  _symmetry_equiv_pos_as_xyz
  'x, y, z'

loop_
  _atom_site_type_symbol
  _atom_site_label
  _atom_site_symmetry_multiplicity
  _atom_site_fract_x
  _atom_site_fract_y
  _atom_site_fract_z
  _atom_site_occupancy
  _atom_site_charge
Fe  Fe1       1.0  0.74496  0.74496  0.25504  1.0000 0.3909712717
Fe  Fe2       1.0  0.25504  0.25504  0.74496  1.0000 0.3909712717
Fe  Fe3       1.0  0.50504  0.50504  0.99496  1.0000 0.3909712717
Fe  Fe4       1.0  0.99496  0.99496  0.50504  1.0000 0.3909712717
H   H1        1.0  0.38650  0.94028  0.87028  1.0000 0.1204846148
H   H2        1.0  0.94028  0.38650  0.80294  1.0000 0.1204846148
H   H3        1.0  0.87028  0.80294  0.38650  1.0000 0.1204846148
H   H4        1.0  0.80294  0.87028  0.94028  1.0000 0.1204846148
H   H5        1.0  0.86350  0.30972  0.37972  1.0000 0.1204846148
H   H6        1.0  0.30972  0.86350  0.44706  1.0000 0.1204846148
H   H7        1.0  0.37972  0.44706  0.86350  1.0000 0.1204846148
H   H8        1.0  0.44706  0.37972  0.30972  1.0000 0.1204846148
H   H9        1.0  0.32943  0.06015  0.80380  1.0000 0.1204846148
H   H10       1.0  0.06014  0.32944  0.80661  1.0000 0.1204846148
H   H11       1.0  0.80380  0.80661  0.32943  1.0000 0.1204846148
H   H12       1.0  0.80661  0.80380  0.06014  1.0000 0.1204846148
H   H13       1.0  0.92056  0.18986  0.44620  1.0000 0.1204846148
H   H14       1.0  0.18986  0.92056  0.44338  1.0000 0.1204846148
H   H15       1.0  0.44620  0.44338  0.92056  1.0000 0.1204846148
H   H16       1.0  0.44338  0.44619  0.18985  1.0000 0.1204846148
H   H17       1.0  0.76515  0.58759  0.36047  1.0000 0.1204846148
H   H18       1.0  0.58759  0.76515  0.28679  1.0000 0.1204846148
H   H19       1.0  0.36047  0.28679  0.76515  1.0000 0.1204846148
H   H20       1.0  0.28679  0.36047  0.58759  1.0000 0.1204846148
H   H21       1.0  0.48485  0.66241  0.88953  1.0000 0.1204846148
H   H22       1.0  0.66241  0.48485  0.96321  1.0000 0.1204846148
H   H23       1.0  0.88953  0.96321  0.48485  1.0000 0.1204846148
H   H24       1.0  0.96321  0.88953  0.66241  1.0000 0.1204846148
H   H25       1.0  0.80714  0.45398  0.34862  1.0000 0.1204846148
H   H26       1.0  0.45398  0.80714  0.39026  1.0000 0.1204846148
H   H27       1.0  0.34862  0.39026  0.80714  1.0000 0.1204846148
H   H28       1.0  0.39026  0.34862  0.45398  1.0000 0.1204846148
H   H29       1.0  0.44286  0.79602  0.90138  1.0000 0.1204846148
H   H30       1.0  0.79602  0.44286  0.85974  1.0000 0.1204846148
H   H31       1.0  0.90138  0.85974  0.44286  1.0000 0.1204846148
H   H32       1.0  0.85974  0.90138  0.79602  1.0000 0.1204846148
H   H33       1.0  0.99108  0.50892  0.42060  1.0000 0.1204846148
H   H34       1.0  0.50892  0.99108  0.07940  1.0000 0.1204846148
H   H35       1.0  0.42060  0.07940  0.99108  1.0000 0.1204846148
H   H36       1.0  0.07940  0.42060  0.50892  1.0000 0.1204846148
H   H37       1.0  0.25892  0.74108  0.82940  1.0000 0.1204846148
H   H38       1.0  0.74108  0.25892  0.17060  1.0000 0.1204846148
H   H39       1.0  0.82940  0.17060  0.25892  1.0000 0.1204846148
H   H40       1.0  0.17060  0.82940  0.74108  1.0000 0.1204846148
H   H41       1.0  0.90567  0.59433  0.35083  1.0000 0.1204846148
H   H42       1.0  0.59433  0.90567  0.14917  1.0000 0.1204846148
H   H43       1.0  0.35083  0.14917  0.90567  1.0000 0.1204846148
H   H44       1.0  0.14917  0.35083  0.59433  1.0000 0.1204846148
H   H45       1.0  0.34433  0.65567  0.89917  1.0000 0.1204846148
H   H46       1.0  0.65567  0.34433  0.10083  1.0000 0.1204846148
H   H47       1.0  0.89917  0.10083  0.34433  1.0000 0.1204846148
H   H48       1.0  0.10083  0.89917  0.65567  1.0000 0.1204846148
C   C1        1.0  0.28033  0.01527  0.97369  1.0000 -0.14592226
C   C2        1.0  0.01527  0.28033  0.73071  1.0000 -0.14592226
C   C3        1.0  0.97369  0.73071  0.28033  1.0000 -0.14592226
C   C4        1.0  0.73071  0.97369  0.01527  1.0000 -0.14592226
C   C5        1.0  0.96967  0.23473  0.27631  1.0000 -0.14592226
C   C6        1.0  0.23473  0.96967  0.51929  1.0000 -0.14592226
C   C7        1.0  0.27631  0.51929  0.96967  1.0000 -0.14592226
C   C8        1.0  0.51929  0.27631  0.23473  1.0000 -0.14592226
C   C9        1.0  0.09151  0.21069  0.10652  1.0000 0.085877797
C   C10       1.0  0.21070  0.09151  0.59126  1.0000 0.085877797
C   C11       1.0  0.10653  0.59127  0.09151  1.0000 0.085877797
C   C12       1.0  0.59127  0.10652  0.21069  1.0000 0.085877797
C   C13       1.0  0.15848  0.03930  0.14347  1.0000 0.085877797
C   C14       1.0  0.03931  0.15848  0.65873  1.0000 0.085877797
C   C15       1.0  0.14347  0.65873  0.15848  1.0000 0.085877797
C   C16       1.0  0.65873  0.14347  0.03930  1.0000 0.085877797
C   C17       1.0  0.05660  0.30008  0.08726  1.0000 -0.004270814
C   C18       1.0  0.30008  0.05660  0.55606  1.0000 -0.004270814
C   C19       1.0  0.08726  0.55606  0.05660  1.0000 -0.004270814
C   C20       1.0  0.55606  0.08726  0.30008  1.0000 -0.004270814
C   C21       1.0  0.19340  0.94992  0.16274  1.0000 -0.004270814
C   C22       1.0  0.94992  0.19340  0.69394  1.0000 -0.004270814
C   C23       1.0  0.16274  0.69394  0.19340  1.0000 -0.004270814
C   C24       1.0  0.69394  0.16274  0.94992  1.0000 -0.004270814
C   C25       1.0  0.19789  0.19999  0.91761  1.0000 -0.0977416143
C   C26       1.0  0.19999  0.19789  0.68451  1.0000 -0.0977416143
C   C27       1.0  0.91761  0.68451  0.19789  1.0000 -0.0977416143
C   C28       1.0  0.68451  0.91761  0.19999  1.0000 -0.0977416143
C   C29       1.0  0.05211  0.05001  0.33239  1.0000 -0.0977416143
C   C30       1.0  0.05001  0.05211  0.56549  1.0000 -0.0977416143
C   C31       1.0  0.33239  0.56549  0.05211  1.0000 -0.0977416143
C   C32       1.0  0.56549  0.33239  0.05001  1.0000 -0.0977416143
C   C33       1.0  0.87593  0.50091  0.23521  1.0000 -0.1118110731
C   C34       1.0  0.50091  0.87593  0.38795  1.0000 -0.1118110731
C   C35       1.0  0.23521  0.38795  0.87593  1.0000 -0.1118110731
C   C36       1.0  0.38795  0.23521  0.50091  1.0000 -0.1118110731
C   C37       1.0  0.37407  0.74909  0.01479  1.0000 -0.1118110731
C   C38       1.0  0.74909  0.37407  0.86205  1.0000 -0.1118110731
C   C39       1.0  0.01479  0.86205  0.37407  1.0000 -0.1118110731
C   C40       1.0  0.86205  0.01479  0.74909  1.0000 -0.1118110731
C   C41       1.0  0.93618  0.32042  0.25784  1.0000 -0.14592226
C   C42       1.0  0.32042  0.93618  0.48556  1.0000 -0.14592226
C   C43       1.0  0.25784  0.48556  0.93618  1.0000 -0.14592226
C   C44       1.0  0.48556  0.25784  0.32042  1.0000 -0.14592226
C   C45       1.0  0.31382  0.92958  0.99216  1.0000 -0.14592226
C   C46       1.0  0.92958  0.31382  0.76444  1.0000 -0.14592226
C   C47       1.0  0.99216  0.76444  0.31382  1.0000 -0.14592226
C   C48       1.0  0.76444  0.99216  0.92958  1.0000 -0.14592226
C   C49       1.0  0.89321  0.60679  0.55433  1.0000 -0.14592226
C   C50       1.0  0.60679  0.89321  0.94567  1.0000 -0.14592226
C   C51       1.0  0.55433  0.94567  0.89321  1.0000 -0.14592226
C   C52       1.0  0.94567  0.55433  0.60679  1.0000 -0.14592226
C   C53       1.0  0.35679  0.64321  0.69567  1.0000 -0.14592226
C   C54       1.0  0.64321  0.35679  0.30433  1.0000 -0.14592226
C   C55       1.0  0.69567  0.30433  0.35679  1.0000 -0.14592226
C   C56       1.0  0.30433  0.69567  0.64321  1.0000 -0.14592226
C   C57       1.0  0.69754  0.80246  0.69754  1.0000 0.0839992896
C   C58       1.0  0.80246  0.69754  0.80246  1.0000 0.0839992896
C   C59       1.0  0.55246  0.44754  0.55246  1.0000 0.0839992896
C   C60       1.0  0.44754  0.55246  0.44754  1.0000 0.0839992896
C   C61       1.0  0.64281  0.85719  0.64281  1.0000 0.0030623397
C   C62       1.0  0.85719  0.64281  0.85719  1.0000 0.0030623397
C   C63       1.0  0.60719  0.39281  0.60719  1.0000 0.0030623397
C   C64       1.0  0.39281  0.60719  0.39281  1.0000 0.0030623397
C   C65       1.0  0.77025  0.72975  0.45369  1.0000 -0.1118110731
C   C66       1.0  0.72975  0.77025  0.04631  1.0000 -0.1118110731
C   C67       1.0  0.45369  0.04631  0.77025  1.0000 -0.1118110731
C   C68       1.0  0.04631  0.45369  0.72975  1.0000 -0.1118110731
C   C69       1.0  0.47975  0.52025  0.79631  1.0000 -0.1118110731
C   C70       1.0  0.52025  0.47975  0.20369  1.0000 -0.1118110731
C   C71       1.0  0.79631  0.20369  0.47975  1.0000 -0.1118110731
C   C72       1.0  0.20369  0.79631  0.52025  1.0000 -0.1118110731
N   N1        1.0  0.10456  0.33896  0.96070  1.0000 -0.0889173528
N   N2        1.0  0.33896  0.10456  0.59578  1.0000 -0.0889173528
N   N3        1.0  0.96070  0.59578  0.10456  1.0000 -0.0889173528
N   N4        1.0  0.59578  0.96070  0.33896  1.0000 -0.0889173528
N   N5        1.0  0.14544  0.91104  0.28930  1.0000 -0.0889173528
N   N6        1.0  0.91104  0.14544  0.65422  1.0000 -0.0889173528
N   N7        1.0  0.28930  0.65422  0.14544  1.0000 -0.0889173528
N   N8        1.0  0.65422  0.28930  0.91104  1.0000 -0.0889173528
N   N9        1.0  0.90558  0.52494  0.15698  1.0000 -0.0977416143
N   N10       1.0  0.52494  0.90558  0.41250  1.0000 -0.0977416143
N   N11       1.0  0.15698  0.41250  0.90558  1.0000 -0.0977416143
N   N12       1.0  0.41250  0.15698  0.52494  1.0000 -0.0977416143
N   N13       1.0  0.34442  0.72506  0.09302  1.0000 -0.0977416143
N   N14       1.0  0.72506  0.34442  0.83750  1.0000 -0.0977416143
N   N15       1.0  0.09302  0.83750  0.34442  1.0000 -0.0977416143
N   N16       1.0  0.83750  0.09302  0.72506  1.0000 -0.0977416143
N   N17       1.0  0.65989  0.84011  0.46425  1.0000 -0.0977416143
N   N18       1.0  0.84011  0.65989  0.03575  1.0000 -0.0977416143
N   N19       1.0  0.46425  0.03575  0.65989  1.0000 -0.0977416143
N   N20       1.0  0.03575  0.46425  0.84011  1.0000 -0.0977416143
N   N21       1.0  0.59011  0.40989  0.78575  1.0000 -0.0977416143
N   N22       1.0  0.40989  0.59011  0.21425  1.0000 -0.0977416143
N   N23       1.0  0.78575  0.21425  0.59011  1.0000 -0.0977416143
N   N24       1.0  0.21425  0.78575  0.40989  1.0000 -0.0977416143
