# DDEC6 charges by PACMAN v1.1 (https://github.com/mtap-research/PACMAN-charge/)
data_2013[Zn][apo]3[ASR]1
_chemical_formula_sum              "Zn8 H32 C64 O40"
_cell_length_a       18.3847
_cell_length_b       12.9256
_cell_length_c       14.555
_cell_angle_alpha    90
_cell_angle_beta     120.068
_cell_angle_gamma    90

_symmetry_space_group_name_H-M    "P 1"
_symmetry_Int_Tables_number       1

loop_
  _symmetry_equiv_pos_as_xyz
  'x, y, z'

loop_
  _atom_site_type_symbol
  _atom_site_label
  _atom_site_symmetry_multiplicity
  _atom_site_fract_x
  _atom_site_fract_y
  _atom_site_fract_z
  _atom_site_occupancy
  _atom_site_charge
Zn  Zn1       1.0  0.18210  0.51378  0.50182  1.0000 0.9272773108
Zn  Zn2       1.0  0.65449  0.44707  0.25374  1.0000 0.9272773108
Zn  Zn3       1.0  0.81790  0.01378  0.99818  1.0000 0.9272773108
Zn  Zn4       1.0  0.34551  0.94707  0.24626  1.0000 0.9272773108
Zn  Zn5       1.0  0.81790  0.48622  0.49818  1.0000 0.9272773108
Zn  Zn6       1.0  0.34551  0.55293  0.74626  1.0000 0.9272773108
Zn  Zn7       1.0  0.18210  0.98622  0.00182  1.0000 0.9272773108
Zn  Zn8       1.0  0.65449  0.05293  0.75374  1.0000 0.9272773108
H   H1        1.0  0.49850  0.33080  0.71520  1.0000 0.1492914511
H   H2        1.0  0.49090  0.07460  0.55530  1.0000 0.1492914511
H   H3        1.0  0.28960  0.26190  0.43780  1.0000 0.1492914511
H   H4        1.0  0.95720  0.23750  0.23730  1.0000 0.1417583107
H   H5        1.0  0.73240  0.27280  0.21670  1.0000 0.1292063064
H   H6        1.0  0.93080  0.44050  0.42720  1.0000 0.1624048716
H   H7        1.0  0.61953  0.25447  0.74959  1.0000 0.358804456
H   H8        1.0  0.22750  0.66217  0.61422  1.0000 0.3186523732
H   H9        1.0  0.50150  0.83080  0.78480  1.0000 0.1492914511
H   H10       1.0  0.50910  0.57460  0.94470  1.0000 0.1492914511
H   H11       1.0  0.71040  0.76190  0.06220  1.0000 0.1492914511
H   H12       1.0  0.04280  0.73750  0.26270  1.0000 0.1417583107
H   H13       1.0  0.26760  0.77280  0.28330  1.0000 0.1292063064
H   H14       1.0  0.06920  0.94050  0.07280  1.0000 0.1624048716
H   H15       1.0  0.38047  0.75447  0.75041  1.0000 0.358804456
H   H16       1.0  0.77250  0.16217  0.88578  1.0000 0.3186523732
H   H17       1.0  0.50150  0.66920  0.28480  1.0000 0.1492914511
H   H18       1.0  0.50910  0.92540  0.44470  1.0000 0.1492914511
H   H19       1.0  0.71040  0.73810  0.56220  1.0000 0.1492914511
H   H20       1.0  0.04280  0.76250  0.76270  1.0000 0.1417583107
H   H21       1.0  0.26760  0.72720  0.78330  1.0000 0.1292063064
H   H22       1.0  0.06920  0.55950  0.57280  1.0000 0.1624048716
H   H23       1.0  0.38047  0.74553  0.25041  1.0000 0.358804456
H   H24       1.0  0.77250  0.33783  0.38578  1.0000 0.3186523732
H   H25       1.0  0.49850  0.16920  0.21520  1.0000 0.1492914511
H   H26       1.0  0.49090  0.42540  0.05530  1.0000 0.1492914511
H   H27       1.0  0.28960  0.23810  0.93780  1.0000 0.1492914511
H   H28       1.0  0.95720  0.26250  0.73730  1.0000 0.1417583107
H   H29       1.0  0.73240  0.22720  0.71670  1.0000 0.1292063064
H   H30       1.0  0.93080  0.05950  0.92720  1.0000 0.1624048716
H   H31       1.0  0.61953  0.24553  0.24959  1.0000 0.358804456
H   H32       1.0  0.22750  0.83783  0.11422  1.0000 0.3186523732
C   C1        1.0  0.34290  0.40050  0.59350  1.0000 0.6033194876
C   C2        1.0  0.38650  0.30920  0.58060  1.0000 0.0096784143
C   C3        1.0  0.46950  0.28600  0.65810  1.0000 -0.2427648873
C   C4        1.0  0.50950  0.19680  0.65120  1.0000 0.3186523732
C   C5        1.0  0.46530  0.13400  0.56190  1.0000 -0.2153002703
C   C6        1.0  0.38460  0.15740  0.48290  1.0000 0.0096784143
C   C7        1.0  0.34070  0.09430  0.38200  1.0000 0.5600419921
C   C8        1.0  0.34390  0.24570  0.49100  1.0000 -0.0909098098
C   C9        1.0  0.04740  0.37820  0.38310  1.0000 0.5668851948
C   C10       1.0  0.95770  0.34430  0.34020  1.0000 0.0238457146
C   C11       1.0  0.92360  0.26940  0.25990  1.0000 -0.1018538819
C   C12       1.0  0.83950  0.24320  0.21440  1.0000 0.0281061996
C   C13       1.0  0.80340  0.16230  0.12780  1.0000 0.5600419921
C   C14       1.0  0.78880  0.29110  0.24760  1.0000 -0.2557137394
C   C15       1.0  0.82230  0.36630  0.32700  1.0000 0.2634505174
C   C16       1.0  0.90760  0.39140  0.37330  1.0000 -0.1998705724
C   C17       1.0  0.65710  0.90050  0.90650  1.0000 0.6033194876
C   C18       1.0  0.61350  0.80920  0.91940  1.0000 0.0096784143
C   C19       1.0  0.53050  0.78600  0.84190  1.0000 -0.2427648873
C   C20       1.0  0.49050  0.69680  0.84880  1.0000 0.3142400152
C   C21       1.0  0.53470  0.63400  0.93810  1.0000 -0.2145826453
C   C22       1.0  0.61540  0.65740  0.01710  1.0000 0.0096784143
C   C23       1.0  0.65930  0.59430  0.11800  1.0000 0.5600419921
C   C24       1.0  0.65610  0.74570  0.00900  1.0000 -0.0909098098
C   C25       1.0  0.95260  0.87820  0.11690  1.0000 0.5600419921
C   C26       1.0  0.04230  0.84430  0.15980  1.0000 0.0281061996
C   C27       1.0  0.07640  0.76940  0.24010  1.0000 -0.1018538819
C   C28       1.0  0.16050  0.74320  0.28560  1.0000 0.0281061996
C   C29       1.0  0.19660  0.66230  0.37220  1.0000 0.5600419921
C   C30       1.0  0.21120  0.79110  0.25240  1.0000 -0.2557137394
C   C31       1.0  0.17770  0.86630  0.17300  1.0000 0.2634505174
C   C32       1.0  0.09240  0.89140  0.12670  1.0000 -0.1998705724
C   C33       1.0  0.65710  0.59950  0.40650  1.0000 0.6033194876
C   C34       1.0  0.61350  0.69080  0.41940  1.0000 0.0096784143
C   C35       1.0  0.53050  0.71400  0.34190  1.0000 -0.2427648873
C   C36       1.0  0.49050  0.80320  0.34880  1.0000 0.3186523732
C   C37       1.0  0.53470  0.86600  0.43810  1.0000 -0.2153002703
C   C38       1.0  0.61540  0.84260  0.51710  1.0000 0.0096784143
C   C39       1.0  0.65930  0.90570  0.61800  1.0000 0.5600419921
C   C40       1.0  0.65610  0.75430  0.50900  1.0000 -0.0909098098
C   C41       1.0  0.95260  0.62180  0.61690  1.0000 0.5668851948
C   C42       1.0  0.04230  0.65570  0.65980  1.0000 0.0281061996
C   C43       1.0  0.07640  0.73060  0.74010  1.0000 -0.1018538819
C   C44       1.0  0.16050  0.75680  0.78560  1.0000 0.0281061996
C   C45       1.0  0.19660  0.83770  0.87220  1.0000 0.5600419921
C   C46       1.0  0.21120  0.70890  0.75240  1.0000 -0.2557137394
C   C47       1.0  0.17770  0.63370  0.67300  1.0000 0.2634505174
C   C48       1.0  0.09240  0.60860  0.62670  1.0000 -0.1998705724
C   C49       1.0  0.34290  0.09950  0.09350  1.0000 0.6033194876
C   C50       1.0  0.38650  0.19080  0.08060  1.0000 0.0096784143
C   C51       1.0  0.46950  0.21400  0.15810  1.0000 -0.2427648873
C   C52       1.0  0.50950  0.30320  0.15120  1.0000 0.3142400152
C   C53       1.0  0.46530  0.36600  0.06190  1.0000 -0.2145826453
C   C54       1.0  0.38460  0.34260  0.98290  1.0000 0.0096784143
C   C55       1.0  0.34070  0.40570  0.88200  1.0000 0.5600419921
C   C56       1.0  0.34390  0.25430  0.99100  1.0000 -0.0909098098
C   C57       1.0  0.04740  0.12180  0.88310  1.0000 0.5668851948
C   C58       1.0  0.95770  0.15570  0.84020  1.0000 0.0238457146
C   C59       1.0  0.92360  0.23060  0.75990  1.0000 -0.1018538819
C   C60       1.0  0.83950  0.25680  0.71440  1.0000 0.0281061996
C   C61       1.0  0.80340  0.33770  0.62780  1.0000 0.5600419921
C   C62       1.0  0.78880  0.20890  0.74760  1.0000 -0.2546101594
C   C63       1.0  0.82230  0.13370  0.82700  1.0000 0.2634505174
C   C64       1.0  0.90760  0.10860  0.87330  1.0000 -0.1998705724
O   O1        1.0  0.38400  0.45780  0.67300  1.0000 -0.5617457116
O   O2        1.0  0.26820  0.41410  0.52350  1.0000 -0.5096180299
O   O3        1.0  0.58810  0.17710  0.72970  1.0000 -0.456525195
O   O4        1.0  0.37780  0.01180  0.38190  1.0000 -0.5724794053
O   O5        1.0  0.27430  0.12390  0.30650  1.0000 -0.5096180299
O   O6        1.0  0.07640  0.44200  0.45930  1.0000 -0.5401248554
O   O7        1.0  0.08850  0.34640  0.34270  1.0000 -0.4911033892
O   O8        1.0  0.85500  0.11770  0.10800  1.0000 -0.5401248554
O   O9        1.0  0.72880  0.14050  0.08300  1.0000 -0.5401248554
O   O10       1.0  0.77250  0.41520  0.35830  1.0000 -0.5268433773
O   O11       1.0  0.61600  0.95780  0.82700  1.0000 -0.5617457116
O   O12       1.0  0.73180  0.91410  0.97650  1.0000 -0.5096180299
O   O13       1.0  0.41190  0.67710  0.77030  1.0000 -0.4549474799
O   O14       1.0  0.62220  0.51180  0.11810  1.0000 -0.5724794053
O   O15       1.0  0.72570  0.62390  0.19350  1.0000 -0.5096180299
O   O16       1.0  0.92360  0.94200  0.04070  1.0000 -0.5401248554
O   O17       1.0  0.91150  0.84640  0.15730  1.0000 -0.4911033892
O   O18       1.0  0.14500  0.61770  0.39200  1.0000 -0.5401248554
O   O19       1.0  0.27120  0.64050  0.41700  1.0000 -0.5401248554
O   O20       1.0  0.22750  0.91520  0.14170  1.0000 -0.5268433773
O   O21       1.0  0.61600  0.54220  0.32700  1.0000 -0.5617457116
O   O22       1.0  0.73180  0.58590  0.47650  1.0000 -0.5096180299
O   O23       1.0  0.41190  0.82290  0.27030  1.0000 -0.456525195
O   O24       1.0  0.62220  0.98820  0.61810  1.0000 -0.5724794053
O   O25       1.0  0.72570  0.87610  0.69350  1.0000 -0.5096180299
O   O26       1.0  0.92360  0.55800  0.54070  1.0000 -0.5460333609
O   O27       1.0  0.91150  0.65360  0.65730  1.0000 -0.4911033892
O   O28       1.0  0.14500  0.88230  0.89200  1.0000 -0.5401248554
O   O29       1.0  0.27120  0.85950  0.91700  1.0000 -0.5401248554
O   O30       1.0  0.22750  0.58480  0.64170  1.0000 -0.5268433773
O   O31       1.0  0.38400  0.04220  0.17300  1.0000 -0.5617457116
O   O32       1.0  0.26820  0.08590  0.02350  1.0000 -0.5096180299
O   O33       1.0  0.58810  0.32290  0.22970  1.0000 -0.456525195
O   O34       1.0  0.37780  0.48820  0.88190  1.0000 -0.5724794053
O   O35       1.0  0.27430  0.37610  0.80650  1.0000 -0.5096180299
O   O36       1.0  0.07640  0.05800  0.95930  1.0000 -0.5401248554
O   O37       1.0  0.08850  0.15360  0.84270  1.0000 -0.4911033892
O   O38       1.0  0.85500  0.38230  0.60800  1.0000 -0.5401248554
O   O39       1.0  0.72880  0.35950  0.58300  1.0000 -0.5401248554
O   O40       1.0  0.77250  0.08480  0.85830  1.0000 -0.5268433773
