# DDEC6 charges by PACMAN v1.1 (https://github.com/mtap-research/PACMAN-charge/)
data_2013[Cd][rob]3[ASR]1
_chemical_formula_sum              "Cd8 H72 C84 N8 O32"
_cell_length_a       16.8232
_cell_length_b       16.8232
_cell_length_c       12.0026
_cell_angle_alpha    74.3136
_cell_angle_beta     105.686
_cell_angle_gamma    128.505

_symmetry_space_group_name_H-M    "P 1"
_symmetry_Int_Tables_number       1

loop_
  _symmetry_equiv_pos_as_xyz
  'x, y, z'

loop_
  _atom_site_type_symbol
  _atom_site_label
  _atom_site_symmetry_multiplicity
  _atom_site_fract_x
  _atom_site_fract_y
  _atom_site_fract_z
  _atom_site_occupancy
  _atom_site_charge
Cd  Cd1       1.0  0.74272  0.17448  0.06867  1.0000 0.8896838625
Cd  Cd2       1.0  0.17448  0.74272  0.43133  1.0000 0.8896838625
Cd  Cd3       1.0  0.25728  0.82552  0.93133  1.0000 0.8896838625
Cd  Cd4       1.0  0.82552  0.25728  0.56867  1.0000 0.8896838625
Cd  Cd5       1.0  0.16066  0.51388  0.67245  1.0000 1.0020722498
Cd  Cd6       1.0  0.51388  0.16066  0.82755  1.0000 1.0020722498
Cd  Cd7       1.0  0.83934  0.48612  0.32755  1.0000 1.0020722498
Cd  Cd8       1.0  0.48612  0.83934  0.17245  1.0000 1.0020722498
H   H1        1.0  0.95290  0.52370  0.92060  1.0000 0.096954003
H   H2        1.0  0.52370  0.95290  0.57940  1.0000 0.096954003
H   H3        1.0  0.04710  0.47630  0.07940  1.0000 0.096954003
H   H4        1.0  0.47630  0.04710  0.42060  1.0000 0.096954003
H   H5        1.0  0.04160  0.50560  0.83470  1.0000 0.096954003
H   H6        1.0  0.50560  0.04160  0.66530  1.0000 0.096954003
H   H7        1.0  0.95840  0.49440  0.16530  1.0000 0.096954003
H   H8        1.0  0.49440  0.95840  0.33470  1.0000 0.096954003
H   H9        1.0  0.03880  0.64300  0.76700  1.0000 0.096954003
H   H10       1.0  0.64300  0.03880  0.73300  1.0000 0.096954003
H   H11       1.0  0.96120  0.35700  0.23300  1.0000 0.096954003
H   H12       1.0  0.35700  0.96120  0.26700  1.0000 0.096954003
H   H13       1.0  0.90490  0.63850  0.67480  1.0000 0.093353057
H   H14       1.0  0.63850  0.90490  0.82520  1.0000 0.0820347386
H   H15       1.0  0.09510  0.36150  0.32520  1.0000 0.0820347386
H   H16       1.0  0.36150  0.09510  0.17480  1.0000 0.0820347386
H   H17       1.0  0.82800  0.53700  0.82930  1.0000 0.093353057
H   H18       1.0  0.53700  0.82800  0.67070  1.0000 0.093353057
H   H19       1.0  0.17200  0.46300  0.17070  1.0000 0.093353057
H   H20       1.0  0.46300  0.17200  0.32930  1.0000 0.093353057
H   H21       1.0  0.77090  0.44110  0.76400  1.0000 0.1207701998
H   H22       1.0  0.44110  0.77090  0.73600  1.0000 0.1207701998
H   H23       1.0  0.22910  0.55890  0.23600  1.0000 0.1207701998
H   H24       1.0  0.55890  0.22910  0.26400  1.0000 0.1207701998
H   H25       1.0  0.80140  0.10320  0.33750  1.0000 0.1131756564
H   H26       1.0  0.10320  0.80140  0.16250  1.0000 0.1131756564
H   H27       1.0  0.19860  0.89680  0.66250  1.0000 0.1131756564
H   H28       1.0  0.89680  0.19860  0.83750  1.0000 0.1131756564
H   H29       1.0  0.92380  0.09080  0.46090  1.0000 0.1324576636
H   H30       1.0  0.09080  0.92380  0.03910  1.0000 0.1324576636
H   H31       1.0  0.07620  0.90920  0.53910  1.0000 0.1324576636
H   H32       1.0  0.90920  0.07620  0.96090  1.0000 0.1324576636
H   H33       1.0  0.08400  0.21200  0.19630  1.0000 0.1324576636
H   H34       1.0  0.21200  0.08400  0.30370  1.0000 0.1324576636
H   H35       1.0  0.91600  0.78800  0.80370  1.0000 0.1324576636
H   H36       1.0  0.78800  0.91600  0.69630  1.0000 0.1324576636
H   H37       1.0  0.95700  0.22200  0.07940  1.0000 0.1131756564
H   H38       1.0  0.22200  0.95700  0.42060  1.0000 0.1131756564
H   H39       1.0  0.04300  0.77800  0.92060  1.0000 0.1131756564
H   H40       1.0  0.77800  0.04300  0.57940  1.0000 0.1131756564
H   H41       1.0  0.19080  0.28480  0.47520  1.0000 0.1359896411
H   H42       1.0  0.28480  0.19080  0.02480  1.0000 0.1359896411
H   H43       1.0  0.80920  0.71520  0.52480  1.0000 0.1359896411
H   H44       1.0  0.71520  0.80920  0.97520  1.0000 0.1359896411
H   H45       1.0  0.11270  0.19790  0.56160  1.0000 0.1207701998
H   H46       1.0  0.19790  0.11270  0.93840  1.0000 0.1207701998
H   H47       1.0  0.88730  0.80210  0.43840  1.0000 0.1207701998
H   H48       1.0  0.80210  0.88730  0.06160  1.0000 0.1207701998
H   H49       1.0  0.15150  0.16350  0.37530  1.0000 0.1131756564
H   H50       1.0  0.16350  0.15150  0.12470  1.0000 0.1131756564
H   H51       1.0  0.84850  0.83650  0.62470  1.0000 0.1131756564
H   H52       1.0  0.83650  0.84850  0.87530  1.0000 0.1131756564
H   H53       1.0  0.07410  0.07650  0.46180  1.0000 0.1131756564
H   H54       1.0  0.07650  0.07410  0.03820  1.0000 0.1131756564
H   H55       1.0  0.92590  0.92350  0.53820  1.0000 0.1131756564
H   H56       1.0  0.92350  0.92590  0.96180  1.0000 0.1131756564
H   H57       1.0  0.28470  0.07110  0.81000  1.0000 0.1131756564
H   H58       1.0  0.07110  0.28470  0.69000  1.0000 0.1131756564
H   H59       1.0  0.71530  0.92890  0.19000  1.0000 0.1131756564
H   H60       1.0  0.92890  0.71530  0.31000  1.0000 0.1131756564
H   H61       1.0  0.15640  0.08560  0.70620  1.0000 0.1324576636
H   H62       1.0  0.08560  0.15640  0.79380  1.0000 0.1324576636
H   H63       1.0  0.84360  0.91440  0.29380  1.0000 0.1324576636
H   H64       1.0  0.91440  0.84360  0.20620  1.0000 0.1324576636
H   H65       1.0  0.35810  0.32410  0.50340  1.0000 0.1505395447
H   H66       1.0  0.32410  0.35810  0.99660  1.0000 0.1505395447
H   H67       1.0  0.64190  0.67590  0.49660  1.0000 0.1505395447
H   H68       1.0  0.67590  0.64190  0.00340  1.0000 0.1505395447
H   H69       1.0  0.48020  0.30060  0.61090  1.0000 0.1207701998
H   H70       1.0  0.30060  0.48020  0.88910  1.0000 0.1207701998
H   H71       1.0  0.51980  0.69940  0.38910  1.0000 0.1207701998
H   H72       1.0  0.69940  0.51980  0.11090  1.0000 0.1207701998
C   C1        1.0  0.90820  0.47280  0.86620  1.0000 -0.1217243352
C   C2        1.0  0.47280  0.90820  0.63380  1.0000 -0.1217243352
C   C3        1.0  0.09180  0.52720  0.13380  1.0000 -0.1217243352
C   C4        1.0  0.52720  0.09180  0.36620  1.0000 -0.1217243352
C   C5        1.0  0.97780  0.49180  0.78740  1.0000 -0.1527870695
C   C6        1.0  0.49180  0.97780  0.71260  1.0000 -0.1527870695
C   C7        1.0  0.02220  0.50820  0.21260  1.0000 -0.1527870695
C   C8        1.0  0.50820  0.02220  0.28740  1.0000 -0.1527870695
C   C9        1.0  0.99957  0.59263  0.71210  1.0000 -0.1527870695
C   C10       1.0  0.59263  0.99957  0.78790  1.0000 -0.1527870695
C   C11       1.0  0.00043  0.40737  0.28790  1.0000 -0.1527870695
C   C12       1.0  0.40737  0.00043  0.21210  1.0000 -0.1527870695
C   C13       1.0  0.89414  0.57326  0.68100  1.0000 -0.1217243352
C   C14       1.0  0.57326  0.89414  0.81900  1.0000 -0.1217243352
C   C15       1.0  0.10586  0.42674  0.31900  1.0000 -0.1217243352
C   C16       1.0  0.42674  0.10586  0.18100  1.0000 -0.1217243352
C   C17       1.0  0.83750  0.50170  0.78810  1.0000 -0.1900320395
C   C18       1.0  0.50170  0.83750  0.71190  1.0000 -0.1900320395
C   C19       1.0  0.16250  0.49830  0.21190  1.0000 -0.1900320395
C   C20       1.0  0.49830  0.16250  0.28810  1.0000 -0.1900320395
C   C21       1.0  0.85460  0.36900  0.94140  1.0000 0.5709132303
C   C22       1.0  0.36900  0.85460  0.55860  1.0000 0.5709132303
C   C23       1.0  0.14540  0.63100  0.05860  1.0000 0.5709132303
C   C24       1.0  0.63100  0.14540  0.44140  1.0000 0.5709132303
C   C25       1.0  0.92870  0.40350  0.71940  1.0000 0.5995644678
C   C26       1.0  0.40350  0.92870  0.78060  1.0000 0.5995644678
C   C27       1.0  0.07130  0.59650  0.28060  1.0000 0.5995644678
C   C28       1.0  0.59650  0.07130  0.21940  1.0000 0.5995644678
C   C29       1.0  0.06130  0.64410  0.61120  1.0000 0.6122852911
C   C30       1.0  0.64410  0.06130  0.88880  1.0000 0.6122852911
C   C31       1.0  0.93870  0.35590  0.38880  1.0000 0.6122852911
C   C32       1.0  0.35590  0.93870  0.11120  1.0000 0.6122852911
C   C33       1.0  0.83260  0.52800  0.56710  1.0000 0.5874384989
C   C34       1.0  0.52800  0.83260  0.93290  1.0000 0.5874384989
C   C35       1.0  0.16740  0.47200  0.43290  1.0000 0.5874384989
C   C36       1.0  0.47200  0.16740  0.06710  1.0000 0.5874384989
C   C37       1.0  0.85890  0.12530  0.30820  1.0000 0.093353057
C   C38       1.0  0.12530  0.85890  0.19180  1.0000 0.093353057
C   C39       1.0  0.14110  0.87470  0.69180  1.0000 0.093353057
C   C40       1.0  0.87470  0.14110  0.80820  1.0000 0.093353057
C   C41       1.0  0.93310  0.11810  0.38310  1.0000 -0.2053255688
C   C42       1.0  0.11810  0.93310  0.11690  1.0000 -0.2044587235
C   C43       1.0  0.06690  0.88190  0.61690  1.0000 -0.2053255688
C   C44       1.0  0.88190  0.06690  0.88310  1.0000 -0.2053255688
C   C45       1.0  0.01950  0.15010  0.34590  1.0000 0.161424001
C   C46       1.0  0.15010  0.01950  0.15410  1.0000 0.161424001
C   C47       1.0  0.98050  0.84990  0.65410  1.0000 0.161424001
C   C48       1.0  0.84990  0.98050  0.84590  1.0000 0.161424001
C   C49       1.0  0.02720  0.18940  0.22770  1.0000 -0.2310600542
C   C50       1.0  0.18940  0.02720  0.27230  1.0000 -0.2310600542
C   C51       1.0  0.97280  0.81060  0.77230  1.0000 -0.2310600542
C   C52       1.0  0.81060  0.97280  0.72770  1.0000 -0.2310600542
C   C53       1.0  0.95000  0.19460  0.15750  1.0000 0.0820347386
C   C54       1.0  0.19460  0.95000  0.34250  1.0000 0.0820347386
C   C55       1.0  0.05000  0.80540  0.84250  1.0000 0.0820347386
C   C56       1.0  0.80540  0.05000  0.65750  1.0000 0.0820347386
C   C57       1.0  0.16000  0.21460  0.51270  1.0000 -0.2310600542
C   C58       1.0  0.21460  0.16000  0.98730  1.0000 -0.2310600542
C   C59       1.0  0.84000  0.78540  0.48730  1.0000 -0.2310600542
C   C60       1.0  0.78540  0.84000  0.01270  1.0000 -0.2310600542
C   C61       1.0  0.10350  0.14630  0.42350  1.0000 -0.2508213173
C   C62       1.0  0.14630  0.10350  0.07650  1.0000 -0.2508213173
C   C63       1.0  0.89650  0.85370  0.57650  1.0000 -0.2508213173
C   C64       1.0  0.85370  0.89650  0.92350  1.0000 -0.2508213173
C   C65       1.0  0.30000  0.12220  0.74650  1.0000 0.0656613645
C   C66       1.0  0.12220  0.30000  0.75350  1.0000 0.0656613645
C   C67       1.0  0.70000  0.87780  0.25350  1.0000 0.0656613645
C   C68       1.0  0.87780  0.70000  0.24650  1.0000 0.0656613645
C   C69       1.0  0.22190  0.13010  0.68440  1.0000 -0.2195857565
C   C70       1.0  0.13010  0.22190  0.81560  1.0000 -0.2195857565
C   C71       1.0  0.77810  0.86990  0.31560  1.0000 -0.2195857565
C   C72       1.0  0.86990  0.77810  0.18440  1.0000 -0.2195857565
C   C73       1.0  0.24380  0.20620  0.58890  1.0000 0.1505395447
C   C74       1.0  0.20620  0.24380  0.91110  1.0000 0.1505395447
C   C75       1.0  0.75620  0.79380  0.41110  1.0000 0.1505395447
C   C76       1.0  0.79380  0.75620  0.08890  1.0000 0.1505395447
C   C77       1.0  0.34010  0.27030  0.56430  1.0000 -0.1900320395
C   C78       1.0  0.27030  0.34010  0.93570  1.0000 -0.1900320395
C   C79       1.0  0.65990  0.72970  0.43570  1.0000 -0.1900320395
C   C80       1.0  0.72970  0.65990  0.06430  1.0000 -0.1900320395
C   C81       1.0  0.41410  0.25630  0.63090  1.0000 0.0656613645
C   C82       1.0  0.25630  0.41410  0.86910  1.0000 0.0656613645
C   C83       1.0  0.58590  0.74370  0.36910  1.0000 0.0656613645
C   C84       1.0  0.74370  0.58590  0.13090  1.0000 0.0656613645
N   N1        1.0  0.86646  0.16254  0.19610  1.0000 -0.2379294063
N   N2        1.0  0.16254  0.86646  0.30390  1.0000 -0.2379294063
N   N3        1.0  0.13354  0.83746  0.80390  1.0000 -0.2379294063
N   N4        1.0  0.83746  0.13354  0.69610  1.0000 -0.2379294063
N   N5        1.0  0.39470  0.18350  0.72040  1.0000 -0.2310600542
N   N6        1.0  0.18350  0.39470  0.77960  1.0000 -0.2310600542
N   N7        1.0  0.60530  0.81650  0.27960  1.0000 -0.2310600542
N   N8        1.0  0.81650  0.60530  0.22040  1.0000 -0.2310600542
O   O1        1.0  0.77638  0.33722  0.98410  1.0000 -0.551313902
O   O2        1.0  0.33722  0.77638  0.51590  1.0000 -0.551313902
O   O3        1.0  0.22362  0.66278  0.01590  1.0000 -0.551313902
O   O4        1.0  0.66278  0.22362  0.48410  1.0000 -0.551313902
O   O5        1.0  0.88894  0.31846  0.96490  1.0000 -0.5661168943
O   O6        1.0  0.31846  0.88894  0.53510  1.0000 -0.5661168943
O   O7        1.0  0.11106  0.68154  0.03510  1.0000 -0.5661168943
O   O8        1.0  0.68154  0.11106  0.46490  1.0000 -0.5661168943
O   O9        1.0  0.83272  0.34208  0.69780  1.0000 -0.4873046528
O   O10       1.0  0.34208  0.83272  0.80220  1.0000 -0.4873046528
O   O11       1.0  0.16728  0.65792  0.30220  1.0000 -0.4873046528
O   O12       1.0  0.65792  0.16728  0.19780  1.0000 -0.4873046528
O   O13       1.0  0.98635  0.39225  0.68650  1.0000 -0.5895770441
O   O14       1.0  0.39225  0.98635  0.81350  1.0000 -0.5895770441
O   O15       1.0  0.01365  0.60775  0.31350  1.0000 -0.5895770441
O   O16       1.0  0.60775  0.01365  0.18650  1.0000 -0.5895770441
O   O17       1.0  0.11792  0.62128  0.59960  1.0000 -0.551313902
O   O18       1.0  0.62128  0.11792  0.90040  1.0000 -0.551313902
O   O19       1.0  0.88208  0.37872  0.40040  1.0000 -0.551313902
O   O20       1.0  0.37872  0.88208  0.09960  1.0000 -0.551313902
O   O21       1.0  0.06187  0.71493  0.54290  1.0000 -0.5315838705
O   O22       1.0  0.71493  0.06187  0.95710  1.0000 -0.5315838705
O   O23       1.0  0.93813  0.28507  0.45710  1.0000 -0.5315838705
O   O24       1.0  0.28507  0.93813  0.04290  1.0000 -0.5315838705
O   O25       1.0  0.87504  0.51576  0.50930  1.0000 -0.551313902
O   O26       1.0  0.51576  0.87504  0.99070  1.0000 -0.551313902
O   O27       1.0  0.12496  0.48424  0.49070  1.0000 -0.551313902
O   O28       1.0  0.48424  0.12496  0.00930  1.0000 -0.551313902
O   O29       1.0  0.74564  0.50756  0.53850  1.0000 -0.5975655566
O   O30       1.0  0.50756  0.74564  0.96150  1.0000 -0.5975655566
O   O31       1.0  0.25436  0.49244  0.46150  1.0000 -0.5975655566
O   O32       1.0  0.49244  0.25436  0.03850  1.0000 -0.5975655566
