# DDEC6 charges by PACMAN v1.1 (https://github.com/mtap-research/PACMAN-charge/)
data_2013[Ni][noz]3[ASR]1
_chemical_formula_sum              "Ni8 H64 C96 N16 O36"
_cell_length_a       10.728
_cell_length_b       19.576
_cell_length_c       13.79
_cell_angle_alpha    90
_cell_angle_beta     104.49
_cell_angle_gamma    90

_symmetry_space_group_name_H-M    "P 1"
_symmetry_Int_Tables_number       1

loop_
  _symmetry_equiv_pos_as_xyz
  'x, y, z'

loop_
  _atom_site_type_symbol
  _atom_site_label
  _atom_site_symmetry_multiplicity
  _atom_site_fract_x
  _atom_site_fract_y
  _atom_site_fract_z
  _atom_site_occupancy
  _atom_site_charge
Ni  Ni1       1.0  0.75409  0.97439  0.20476  1.0000 0.8204902757
Ni  Ni2       1.0  0.24591  0.47439  0.29524  1.0000 0.8204902757
Ni  Ni3       1.0  0.24591  0.02561  0.79524  1.0000 0.8204902757
Ni  Ni4       1.0  0.75409  0.52561  0.70476  1.0000 0.8204902757
Ni  Ni5       1.0  0.59494  0.88175  0.36062  1.0000 0.8204902757
Ni  Ni6       1.0  0.40506  0.38175  0.13938  1.0000 0.8204902757
Ni  Ni7       1.0  0.40506  0.11825  0.63938  1.0000 0.8204902757
Ni  Ni8       1.0  0.59494  0.61825  0.86062  1.0000 0.8204902757
H   H1        1.0  0.68200  0.91030  0.90460  1.0000 0.1203283585
H   H2        1.0  0.31800  0.41030  0.59540  1.0000 0.1203283585
H   H3        1.0  0.31800  0.08970  0.09540  1.0000 0.1203283585
H   H4        1.0  0.68200  0.58970  0.40460  1.0000 0.1203283585
H   H5        1.0  0.59430  0.86320  0.74850  1.0000 0.1376078884
H   H6        1.0  0.40570  0.36320  0.75150  1.0000 0.1376078884
H   H7        1.0  0.40570  0.13680  0.25150  1.0000 0.1376078884
H   H8        1.0  0.59430  0.63680  0.24850  1.0000 0.1376078884
H   H9        1.0  0.56090  0.74770  0.73320  1.0000 0.1121218836
H   H10       1.0  0.43910  0.24770  0.76680  1.0000 0.1121218836
H   H11       1.0  0.43910  0.25230  0.26680  1.0000 0.1121218836
H   H12       1.0  0.56090  0.75230  0.23320  1.0000 0.1121218836
H   H13       1.0  0.69240  0.72340  0.02050  1.0000 0.1203283585
H   H14       1.0  0.30760  0.22340  0.47950  1.0000 0.1203283585
H   H15       1.0  0.30760  0.27660  0.97950  1.0000 0.1203283585
H   H16       1.0  0.69240  0.77660  0.52050  1.0000 0.1203283585
H   H17       1.0  0.13020  0.80600  0.94830  1.0000 0.1376078884
H   H18       1.0  0.86980  0.30600  0.55170  1.0000 0.1376078884
H   H19       1.0  0.86980  0.19400  0.05170  1.0000 0.1376078884
H   H20       1.0  0.13020  0.69400  0.44830  1.0000 0.1376078884
H   H21       1.0  0.11240  0.88810  0.82850  1.0000 0.1121218836
H   H22       1.0  0.88760  0.38810  0.67150  1.0000 0.1121218836
H   H23       1.0  0.88760  0.11190  0.17150  1.0000 0.1121218836
H   H24       1.0  0.11240  0.61190  0.32850  1.0000 0.1121218836
H   H25       1.0  0.40080  0.98750  0.99390  1.0000 0.1203283585
H   H26       1.0  0.59920  0.48750  0.50610  1.0000 0.1203283585
H   H27       1.0  0.59920  0.01250  0.00610  1.0000 0.1203283585
H   H28       1.0  0.40080  0.51250  0.49390  1.0000 0.1203283585
H   H29       1.0  0.28850  0.81540  0.09820  1.0000 0.1310253738
H   H30       1.0  0.71150  0.31540  0.40180  1.0000 0.1310253738
H   H31       1.0  0.71150  0.18460  0.90180  1.0000 0.1310253738
H   H32       1.0  0.28850  0.68460  0.59820  1.0000 0.1310253738
H   H33       1.0  0.84040  0.11960  0.46180  1.0000 0.1376078884
H   H34       1.0  0.15960  0.61960  0.03820  1.0000 0.1376078884
H   H35       1.0  0.15960  0.88040  0.53820  1.0000 0.1376078884
H   H36       1.0  0.84040  0.38040  0.96180  1.0000 0.1376078884
H   H37       1.0  0.84800  0.18370  0.60470  1.0000 0.1376078884
H   H38       1.0  0.15200  0.68370  0.89530  1.0000 0.1376078884
H   H39       1.0  0.15200  0.81630  0.39530  1.0000 0.1376078884
H   H40       1.0  0.84800  0.31630  0.10470  1.0000 0.1376078884
H   H41       1.0  0.67390  0.18720  0.67200  1.0000 0.1121218836
H   H42       1.0  0.32610  0.68720  0.82800  1.0000 0.1121218836
H   H43       1.0  0.32610  0.81280  0.32800  1.0000 0.1121218836
H   H44       1.0  0.67390  0.31280  0.17200  1.0000 0.1121218836
H   H45       1.0  0.48820  0.05900  0.47170  1.0000 0.1121218836
H   H46       1.0  0.51180  0.55900  0.02830  1.0000 0.1121218836
H   H47       1.0  0.51180  0.94100  0.52830  1.0000 0.1121218836
H   H48       1.0  0.48820  0.44100  0.97170  1.0000 0.1121218836
H   H49       1.0  0.30200  0.03280  0.33860  1.0000 0.1310253738
H   H50       1.0  0.69800  0.53280  0.16140  1.0000 0.1310253738
H   H51       1.0  0.69800  0.96720  0.66140  1.0000 0.1310253738
H   H52       1.0  0.30200  0.46720  0.83860  1.0000 0.1310253738
H   H53       1.0  0.22070  0.97070  0.19310  1.0000 0.1310253738
H   H54       1.0  0.77930  0.47070  0.30690  1.0000 0.1310253738
H   H55       1.0  0.77930  0.02930  0.80690  1.0000 0.1310253738
H   H56       1.0  0.22070  0.52930  0.69310  1.0000 0.1310253738
H   H57       1.0  0.00630  0.94470  0.14510  1.0000 0.1121218836
H   H58       1.0  0.99370  0.44470  0.35490  1.0000 0.1121218836
H   H59       1.0  0.99370  0.05530  0.85490  1.0000 0.1121218836
H   H60       1.0  0.00630  0.55530  0.64510  1.0000 0.1121218836
H   H61       1.0  0.94820  0.03520  0.38120  1.0000 0.1121218836
H   H62       1.0  0.05180  0.53520  0.11880  1.0000 0.1121218836
H   H63       1.0  0.05180  0.96480  0.61880  1.0000 0.1121218836
H   H64       1.0  0.94820  0.46480  0.88120  1.0000 0.1121218836
C   C1        1.0  0.75220  0.84849  0.08400  1.0000 0.5570509109
C   C2        1.0  0.24780  0.34849  0.41600  1.0000 0.5570509109
C   C3        1.0  0.24780  0.15151  0.91600  1.0000 0.5570509109
C   C4        1.0  0.75220  0.65151  0.58400  1.0000 0.5570509109
C   C5        1.0  0.69870  0.82079  0.98010  1.0000 -0.0563736088
C   C6        1.0  0.30130  0.32079  0.51990  1.0000 -0.0563736088
C   C7        1.0  0.30130  0.17921  0.01990  1.0000 -0.0563736088
C   C8        1.0  0.69870  0.67921  0.48010  1.0000 -0.0563736088
C   C9        1.0  0.66750  0.86350  0.89760  1.0000 -0.0514115718
C   C10       1.0  0.33250  0.36350  0.60240  1.0000 -0.0514115718
C   C11       1.0  0.33250  0.13650  0.10240  1.0000 -0.0514115718
C   C12       1.0  0.66750  0.63650  0.39760  1.0000 -0.0514115718
C   C13       1.0  0.61650  0.83550  0.80490  1.0000 -0.1436211493
C   C14       1.0  0.38350  0.33550  0.69510  1.0000 -0.1436211493
C   C15       1.0  0.38350  0.16450  0.19510  1.0000 -0.1436211493
C   C16       1.0  0.61650  0.66450  0.30490  1.0000 -0.1436211493
C   C17       1.0  0.59660  0.76610  0.79630  1.0000 0.0935218904
C   C18       1.0  0.40340  0.26610  0.70370  1.0000 0.0935218904
C   C19       1.0  0.40340  0.23390  0.20370  1.0000 0.0935218904
C   C20       1.0  0.59660  0.73390  0.29630  1.0000 0.0935218904
C   C21       1.0  0.67420  0.75202  0.96490  1.0000 0.0497042165
C   C22       1.0  0.32580  0.25202  0.53510  1.0000 0.0497042165
C   C23       1.0  0.32580  0.24798  0.03510  1.0000 0.0497042165
C   C24       1.0  0.67420  0.74798  0.46490  1.0000 0.0497042165
C   C25       1.0  0.18650  0.84290  0.95920  1.0000 -0.1436211493
C   C26       1.0  0.81350  0.34290  0.54080  1.0000 -0.1436211493
C   C27       1.0  0.81350  0.15710  0.04080  1.0000 -0.1436211493
C   C28       1.0  0.18650  0.65710  0.45920  1.0000 -0.1436211493
C   C29       1.0  0.17780  0.89180  0.88710  1.0000 0.079389115
C   C30       1.0  0.82220  0.39180  0.61290  1.0000 0.079389115
C   C31       1.0  0.82220  0.10820  0.11290  1.0000 0.079389115
C   C32       1.0  0.17780  0.60820  0.38710  1.0000 0.079389115
C   C33       1.0  0.34720  0.94944  0.98400  1.0000 0.0681179728
C   C34       1.0  0.65280  0.44944  0.51600  1.0000 0.0681179728
C   C35       1.0  0.65280  0.05056  0.01600  1.0000 0.0681179728
C   C36       1.0  0.34720  0.55056  0.48400  1.0000 0.0681179728
C   C37       1.0  0.28270  0.84750  0.04750  1.0000 -0.0563736088
C   C38       1.0  0.71730  0.34750  0.45250  1.0000 -0.0563736088
C   C39       1.0  0.71730  0.15250  0.95250  1.0000 -0.0563736088
C   C40       1.0  0.28270  0.65250  0.54750  1.0000 -0.0563736088
C   C41       1.0  0.36730  0.90164  0.05950  1.0000 -0.0684213044
C   C42       1.0  0.63270  0.40164  0.44050  1.0000 -0.0684213044
C   C43       1.0  0.63270  0.09836  0.94050  1.0000 -0.0684213044
C   C44       1.0  0.36730  0.59836  0.55950  1.0000 -0.0684213044
C   C45       1.0  0.47770  0.90965  0.15010  1.0000 0.5754422817
C   C46       1.0  0.52230  0.40965  0.34990  1.0000 0.5754422817
C   C47       1.0  0.52230  0.09035  0.84990  1.0000 0.5754422817
C   C48       1.0  0.47770  0.59035  0.65010  1.0000 0.5754422817
C   C49       1.0  0.64980  0.03313  0.36460  1.0000 0.5677017096
C   C50       1.0  0.35020  0.53313  0.13540  1.0000 0.5677017096
C   C51       1.0  0.35020  0.96687  0.63540  1.0000 0.5677017096
C   C52       1.0  0.64980  0.46687  0.86460  1.0000 0.5677017096
C   C53       1.0  0.66020  0.08224  0.44990  1.0000 -0.0684213044
C   C54       1.0  0.33980  0.58224  0.05010  1.0000 -0.0684213044
C   C55       1.0  0.33980  0.91776  0.55010  1.0000 -0.0684213044
C   C56       1.0  0.66020  0.41776  0.94990  1.0000 -0.0684213044
C   C57       1.0  0.77070  0.12020  0.49060  1.0000 -0.0445673343
C   C58       1.0  0.22930  0.62020  0.00940  1.0000 -0.0514115718
C   C59       1.0  0.22930  0.87980  0.50940  1.0000 -0.0514115718
C   C60       1.0  0.77070  0.37980  0.99060  1.0000 -0.0445673343
C   C61       1.0  0.77460  0.15880  0.57510  1.0000 -0.1436211493
C   C62       1.0  0.22540  0.65880  0.92490  1.0000 -0.1436211493
C   C63       1.0  0.22540  0.84120  0.42490  1.0000 -0.1436211493
C   C64       1.0  0.77460  0.34120  0.07510  1.0000 -0.1436211493
C   C65       1.0  0.67000  0.16040  0.61560  1.0000 0.0681179728
C   C66       1.0  0.33000  0.66040  0.88440  1.0000 0.0681179728
C   C67       1.0  0.33000  0.83960  0.38440  1.0000 0.0681179728
C   C68       1.0  0.67000  0.33960  0.11560  1.0000 0.0681179728
C   C69       1.0  0.56080  0.08562  0.49700  1.0000 0.0681179728
C   C70       1.0  0.43920  0.58562  0.00300  1.0000 0.0681179728
C   C71       1.0  0.43920  0.91438  0.50300  1.0000 0.0681179728
C   C72       1.0  0.56080  0.41438  0.99700  1.0000 0.0681179728
C   C73       1.0  0.17440  0.08120  0.47120  1.0000 0.5534046116
C   C74       1.0  0.82560  0.58120  0.02880  1.0000 0.5534046116
C   C75       1.0  0.82560  0.91880  0.52880  1.0000 0.5534046116
C   C76       1.0  0.17440  0.41880  0.97120  1.0000 0.5534046116
C   C77       1.0  0.13130  0.04186  0.37460  1.0000 -0.0684213044
C   C78       1.0  0.86870  0.54186  0.12540  1.0000 -0.0684213044
C   C79       1.0  0.86870  0.95814  0.62540  1.0000 -0.0684213044
C   C80       1.0  0.13130  0.45814  0.87460  1.0000 -0.0684213044
C   C81       1.0  0.21500  0.02170  0.31870  1.0000 -0.0563736088
C   C82       1.0  0.78500  0.52170  0.18130  1.0000 -0.0563736088
C   C83       1.0  0.78500  0.97830  0.68130  1.0000 -0.0563736088
C   C84       1.0  0.21500  0.47830  0.81870  1.0000 -0.0563736088
C   C85       1.0  0.16650  0.98490  0.23220  1.0000 -0.1516197499
C   C86       1.0  0.83350  0.48490  0.26780  1.0000 -0.1516197499
C   C87       1.0  0.83350  0.01510  0.76780  1.0000 -0.1516197499
C   C88       1.0  0.16650  0.51510  0.73220  1.0000 -0.1516197499
C   C89       1.0  0.03730  0.96960  0.20350  1.0000 0.0681179728
C   C90       1.0  0.96270  0.46960  0.29650  1.0000 0.0681179728
C   C91       1.0  0.96270  0.03040  0.79650  1.0000 0.0681179728
C   C92       1.0  0.03730  0.53040  0.70350  1.0000 0.0681179728
C   C93       1.0  0.00370  0.02296  0.34200  1.0000 0.0681179728
C   C94       1.0  0.99630  0.52296  0.15800  1.0000 0.0681179728
C   C95       1.0  0.99630  0.97704  0.65800  1.0000 0.0681179728
C   C96       1.0  0.00370  0.47704  0.84200  1.0000 0.0681179728
N   N1        1.0  0.62560  0.72418  0.87474  1.0000 -0.2102868192
N   N2        1.0  0.37440  0.22418  0.62526  1.0000 -0.2102868192
N   N3        1.0  0.37440  0.27582  0.12526  1.0000 -0.2102868192
N   N4        1.0  0.62560  0.77582  0.37474  1.0000 -0.2102868192
N   N5        1.0  0.25740  0.94535  0.89774  1.0000 -0.2102868192
N   N6        1.0  0.74260  0.44535  0.60226  1.0000 -0.2102868192
N   N7        1.0  0.74260  0.05465  0.10226  1.0000 -0.2102868192
N   N8        1.0  0.25740  0.55465  0.39774  1.0000 -0.2102868192
N   N9        1.0  0.56230  0.12455  0.57693  1.0000 -0.2185604953
N   N10       1.0  0.43770  0.62455  0.92307  1.0000 -0.2185604953
N   N11       1.0  0.43770  0.87545  0.42307  1.0000 -0.2185604953
N   N12       1.0  0.56230  0.37545  0.07693  1.0000 -0.2185604953
N   N13       1.0  0.95500  0.98851  0.25729  1.0000 -0.2185604953
N   N14       1.0  0.04500  0.48851  0.24271  1.0000 -0.2185604953
N   N15       1.0  0.04500  0.01149  0.74271  1.0000 -0.2185604953
N   N16       1.0  0.95500  0.51149  0.75729  1.0000 -0.2185604953
O   O1        1.0  0.77610  0.91126  0.09038  1.0000 -0.5562260178
O   O2        1.0  0.22390  0.41126  0.40962  1.0000 -0.5562260178
O   O3        1.0  0.22390  0.08874  0.90962  1.0000 -0.5562260178
O   O4        1.0  0.77610  0.58874  0.59038  1.0000 -0.5562260178
O   O5        1.0  0.76470  0.80756  0.15574  1.0000 -0.5121726718
O   O6        1.0  0.23530  0.30756  0.34426  1.0000 -0.5121726718
O   O7        1.0  0.23530  0.19244  0.84426  1.0000 -0.5121726718
O   O8        1.0  0.76470  0.69244  0.65574  1.0000 -0.5121726718
O   O9        1.0  0.55790  0.95500  0.14521  1.0000 -0.5121726718
O   O10       1.0  0.44210  0.45500  0.35479  1.0000 -0.5121726718
O   O11       1.0  0.44210  0.04500  0.85479  1.0000 -0.5121726718
O   O12       1.0  0.55790  0.54500  0.64521  1.0000 -0.5121726718
O   O13       1.0  0.47890  0.86981  0.22185  1.0000 -0.5323901203
O   O14       1.0  0.52110  0.36981  0.27815  1.0000 -0.5323901203
O   O15       1.0  0.52110  0.13019  0.77815  1.0000 -0.5323901203
O   O16       1.0  0.47890  0.63019  0.72185  1.0000 -0.5323901203
O   O17       1.0  0.56510  0.98762  0.35536  1.0000 -0.5323901203
O   O18       1.0  0.43490  0.48762  0.14464  1.0000 -0.5323901203
O   O19       1.0  0.43490  0.01238  0.64464  1.0000 -0.5323901203
O   O20       1.0  0.56510  0.51238  0.85536  1.0000 -0.5323901203
O   O21       1.0  0.72890  0.04025  0.31223  1.0000 -0.5239664343
O   O22       1.0  0.27110  0.54025  0.18777  1.0000 -0.5239664343
O   O23       1.0  0.27110  0.95975  0.68777  1.0000 -0.5239664343
O   O24       1.0  0.72890  0.45975  0.81223  1.0000 -0.5239664343
O   O25       1.0  0.09270  0.09440  0.51883  1.0000 -0.4934040558
O   O26       1.0  0.90730  0.59440  0.98117  1.0000 -0.4934040558
O   O27       1.0  0.90730  0.90560  0.48117  1.0000 -0.4934040558
O   O28       1.0  0.09270  0.40560  0.01883  1.0000 -0.4934040558
O   O29       1.0  0.29120  0.09774  0.49699  1.0000 -0.5472930696
O   O30       1.0  0.70880  0.59774  0.00301  1.0000 -0.5472930696
O   O31       1.0  0.70880  0.90226  0.50301  1.0000 -0.5472930696
O   O32       1.0  0.29120  0.40226  0.99699  1.0000 -0.5472930696
O   O33       1.0  0.76000  0.89052  0.30215  1.0000 -0.3110304501
O   O34       1.0  0.24000  0.39052  0.19785  1.0000 -0.3110304501
O   O35       1.0  0.24000  0.10948  0.69785  1.0000 -0.3110304501
O   O36       1.0  0.76000  0.60948  0.80215  1.0000 -0.3110304501
