# DDEC6 charges by PACMAN v1.1 (https://github.com/mtap-research/PACMAN-charge/)
data_2013[Ni][nia]3[ASR]1
_chemical_formula_sum              "Ni6 H72 C132 O26"
_cell_length_a       19.1786
_cell_length_b       19.1786
_cell_length_c       27.926
_cell_angle_alpha    90
_cell_angle_beta     90
_cell_angle_gamma    120

_symmetry_space_group_name_H-M    "P 1"
_symmetry_Int_Tables_number       1

loop_
  _symmetry_equiv_pos_as_xyz
  'x, y, z'

loop_
  _atom_site_type_symbol
  _atom_site_label
  _atom_site_symmetry_multiplicity
  _atom_site_fract_x
  _atom_site_fract_y
  _atom_site_fract_z
  _atom_site_occupancy
  _atom_site_charge
Ni  Ni1       1.0  0.41929  0.78102  0.75000  1.0000 1.0538416169
Ni  Ni2       1.0  0.21898  0.63827  0.75000  1.0000 1.0538416169
Ni  Ni3       1.0  0.36173  0.58071  0.75000  1.0000 1.0538416169
Ni  Ni4       1.0  0.78102  0.41929  0.25000  1.0000 1.0567007723
Ni  Ni5       1.0  0.63827  0.21898  0.25000  1.0000 1.0567007723
Ni  Ni6       1.0  0.58071  0.36173  0.25000  1.0000 1.0567007723
H   H1        1.0  0.37070  0.98460  0.57730  1.0000 0.1176163931
H   H2        1.0  0.01540  0.38610  0.57730  1.0000 0.1176163931
H   H3        1.0  0.61390  0.62930  0.57730  1.0000 0.1176163931
H   H4        1.0  0.37070  0.98460  0.92270  1.0000 0.1176163931
H   H5        1.0  0.01540  0.38610  0.92270  1.0000 0.1176163931
H   H6        1.0  0.61390  0.62930  0.92270  1.0000 0.1176163931
H   H7        1.0  0.98460  0.37070  0.42270  1.0000 0.1176163931
H   H8        1.0  0.38610  0.01540  0.42270  1.0000 0.1176163931
H   H9        1.0  0.62930  0.61390  0.42270  1.0000 0.1176163931
H   H10       1.0  0.98460  0.37070  0.07730  1.0000 0.1176163931
H   H11       1.0  0.38610  0.01540  0.07730  1.0000 0.1176163931
H   H12       1.0  0.62930  0.61390  0.07730  1.0000 0.1176163931
H   H13       1.0  0.16440  0.74920  0.63640  1.0000 0.1358382317
H   H14       1.0  0.25080  0.41520  0.63640  1.0000 0.1358382317
H   H15       1.0  0.58480  0.83560  0.63640  1.0000 0.1358382317
H   H16       1.0  0.16440  0.74920  0.86360  1.0000 0.1358382317
H   H17       1.0  0.25080  0.41520  0.86360  1.0000 0.1358382317
H   H18       1.0  0.58480  0.83560  0.86360  1.0000 0.1358382317
H   H19       1.0  0.74920  0.16440  0.36360  1.0000 0.1358382317
H   H20       1.0  0.41520  0.25080  0.36360  1.0000 0.1358382317
H   H21       1.0  0.83560  0.58480  0.36360  1.0000 0.1358382317
H   H22       1.0  0.74920  0.16440  0.13640  1.0000 0.1358382317
H   H23       1.0  0.41520  0.25080  0.13640  1.0000 0.1358382317
H   H24       1.0  0.83560  0.58480  0.13640  1.0000 0.1358382317
H   H25       1.0  0.13840  0.81730  0.57890  1.0000 0.1176163931
H   H26       1.0  0.18270  0.32110  0.57890  1.0000 0.1176163931
H   H27       1.0  0.67890  0.86160  0.57890  1.0000 0.1176163931
H   H28       1.0  0.13840  0.81730  0.92110  1.0000 0.1176163931
H   H29       1.0  0.18270  0.32110  0.92110  1.0000 0.1176163931
H   H30       1.0  0.67890  0.86160  0.92110  1.0000 0.1176163931
H   H31       1.0  0.81730  0.13840  0.42110  1.0000 0.1176163931
H   H32       1.0  0.32110  0.18270  0.42110  1.0000 0.1176163931
H   H33       1.0  0.86160  0.67890  0.42110  1.0000 0.1176163931
H   H34       1.0  0.81730  0.13840  0.07890  1.0000 0.1176163931
H   H35       1.0  0.32110  0.18270  0.07890  1.0000 0.1176163931
H   H36       1.0  0.86160  0.67890  0.07890  1.0000 0.1176163931
H   H37       1.0  0.39390  0.91710  0.63810  1.0000 0.1340648792
H   H38       1.0  0.08290  0.47680  0.63810  1.0000 0.1340648792
H   H39       1.0  0.52320  0.60610  0.63810  1.0000 0.1340648792
H   H40       1.0  0.39390  0.91710  0.86190  1.0000 0.1340648792
H   H41       1.0  0.08290  0.47680  0.86190  1.0000 0.1340648792
H   H42       1.0  0.52320  0.60610  0.86190  1.0000 0.1340648792
H   H43       1.0  0.91710  0.39390  0.36190  1.0000 0.1340648792
H   H44       1.0  0.47680  0.08290  0.36190  1.0000 0.1340648792
H   H45       1.0  0.60610  0.52320  0.36190  1.0000 0.1340648792
H   H46       1.0  0.91710  0.39390  0.13810  1.0000 0.1340648792
H   H47       1.0  0.47680  0.08290  0.13810  1.0000 0.1340648792
H   H48       1.0  0.60610  0.52320  0.13810  1.0000 0.1340648792
H   H49       1.0  0.12420  0.92240  0.55490  1.0000 0.1176163931
H   H50       1.0  0.07760  0.20180  0.55490  1.0000 0.1176163931
H   H51       1.0  0.79820  0.87580  0.55490  1.0000 0.1176163931
H   H52       1.0  0.12420  0.92240  0.94510  1.0000 0.1176163931
H   H53       1.0  0.07760  0.20180  0.94510  1.0000 0.1176163931
H   H54       1.0  0.79820  0.87580  0.94510  1.0000 0.1176163931
H   H55       1.0  0.92240  0.12420  0.44510  1.0000 0.1176163931
H   H56       1.0  0.20180  0.07760  0.44510  1.0000 0.1176163931
H   H57       1.0  0.87580  0.79820  0.44510  1.0000 0.1176163931
H   H58       1.0  0.92240  0.12420  0.05490  1.0000 0.1176163931
H   H59       1.0  0.20180  0.07760  0.05490  1.0000 0.1176163931
H   H60       1.0  0.87580  0.79820  0.05490  1.0000 0.1176163931
H   H61       1.0  0.34170  0.00000  0.50000  1.0000 0.1176163931
H   H62       1.0  0.00000  0.34170  0.50000  1.0000 0.1176163931
H   H63       1.0  0.65830  0.65830  0.50000  1.0000 0.1176163931
H   H64       1.0  0.34170  0.00000  0.00000  1.0000 0.1176163931
H   H65       1.0  0.00000  0.34170  0.00000  1.0000 0.1176163931
H   H66       1.0  0.65830  0.65830  0.00000  1.0000 0.1176163931
H   H67       1.0  0.00000  0.87910  0.50000  1.0000 0.1176163931
H   H68       1.0  0.12090  0.12090  0.50000  1.0000 0.1176163931
H   H69       1.0  0.87910  0.00000  0.50000  1.0000 0.1176163931
H   H70       1.0  0.00000  0.87910  0.00000  1.0000 0.1176163931
H   H71       1.0  0.12090  0.12090  0.00000  1.0000 0.1176163931
H   H72       1.0  0.87910  0.00000  0.00000  1.0000 0.1176163931
C   C1        1.0  0.29510  0.78180  0.68390  1.0000 0.5912918858
C   C2        1.0  0.21820  0.51330  0.68390  1.0000 0.5912918858
C   C3        1.0  0.48670  0.70490  0.68390  1.0000 0.5912918858
C   C4        1.0  0.29510  0.78180  0.81610  1.0000 0.5912918858
C   C5        1.0  0.21820  0.51330  0.81610  1.0000 0.5912918858
C   C6        1.0  0.48670  0.70490  0.81610  1.0000 0.5912918858
C   C7        1.0  0.78180  0.29510  0.31610  1.0000 0.5912918858
C   C8        1.0  0.51330  0.21820  0.31610  1.0000 0.5912918858
C   C9        1.0  0.70490  0.48670  0.31610  1.0000 0.5912918858
C   C10       1.0  0.78180  0.29510  0.18390  1.0000 0.5912918858
C   C11       1.0  0.51330  0.21820  0.18390  1.0000 0.5912918858
C   C12       1.0  0.70490  0.48670  0.18390  1.0000 0.5912918858
C   C13       1.0  0.28020  0.82650  0.64420  1.0000 -0.0241549973
C   C14       1.0  0.17350  0.45370  0.64420  1.0000 -0.0241549973
C   C15       1.0  0.54630  0.71980  0.64420  1.0000 -0.0241549973
C   C16       1.0  0.28020  0.82650  0.85580  1.0000 -0.0241549973
C   C17       1.0  0.17350  0.45370  0.85580  1.0000 -0.0241549973
C   C18       1.0  0.54630  0.71980  0.85580  1.0000 -0.0241549973
C   C19       1.0  0.82650  0.28020  0.35580  1.0000 -0.0241549973
C   C20       1.0  0.45370  0.17350  0.35580  1.0000 -0.0241549973
C   C21       1.0  0.71980  0.54630  0.35580  1.0000 -0.0241549973
C   C22       1.0  0.82650  0.28020  0.14420  1.0000 -0.0241549973
C   C23       1.0  0.45370  0.17350  0.14420  1.0000 -0.0241549973
C   C24       1.0  0.71980  0.54630  0.14420  1.0000 -0.0241549973
C   C25       1.0  0.25180  0.90900  0.57130  1.0000 0.0706210433
C   C26       1.0  0.09100  0.34280  0.57130  1.0000 0.0706210433
C   C27       1.0  0.65720  0.74820  0.57130  1.0000 0.0706210433
C   C28       1.0  0.25180  0.90900  0.92870  1.0000 0.0706210433
C   C29       1.0  0.09100  0.34280  0.92870  1.0000 0.0706210433
C   C30       1.0  0.65720  0.74820  0.92870  1.0000 0.0706210433
C   C31       1.0  0.90900  0.25180  0.42870  1.0000 0.0706210433
C   C32       1.0  0.34280  0.09100  0.42870  1.0000 0.0706210433
C   C33       1.0  0.74820  0.65720  0.42870  1.0000 0.0706210433
C   C34       1.0  0.90900  0.25180  0.07130  1.0000 0.0706210433
C   C35       1.0  0.34280  0.09100  0.07130  1.0000 0.0706210433
C   C36       1.0  0.74820  0.65720  0.07130  1.0000 0.0706210433
C   C37       1.0  0.32800  0.93740  0.58950  1.0000 -0.1487279894
C   C38       1.0  0.06260  0.39060  0.58950  1.0000 -0.1487279894
C   C39       1.0  0.60940  0.67200  0.58950  1.0000 -0.1487279894
C   C40       1.0  0.32800  0.93740  0.91050  1.0000 -0.1487279894
C   C41       1.0  0.06260  0.39060  0.91050  1.0000 -0.1487279894
C   C42       1.0  0.60940  0.67200  0.91050  1.0000 -0.1487279894
C   C43       1.0  0.93740  0.32800  0.41050  1.0000 -0.1487279894
C   C44       1.0  0.39060  0.06260  0.41050  1.0000 -0.1487279894
C   C45       1.0  0.67200  0.60940  0.41050  1.0000 -0.1487279894
C   C46       1.0  0.93740  0.32800  0.08950  1.0000 -0.1487279894
C   C47       1.0  0.39060  0.06260  0.08950  1.0000 -0.1487279894
C   C48       1.0  0.67200  0.60940  0.08950  1.0000 -0.1487279894
C   C49       1.0  0.20630  0.79790  0.62530  1.0000 -0.0917890063
C   C50       1.0  0.20210  0.40840  0.62530  1.0000 -0.0917890063
C   C51       1.0  0.59160  0.79370  0.62530  1.0000 -0.0917890063
C   C52       1.0  0.20630  0.79790  0.87470  1.0000 -0.0917890063
C   C53       1.0  0.20210  0.40840  0.87470  1.0000 -0.0917890063
C   C54       1.0  0.59160  0.79370  0.87470  1.0000 -0.0917890063
C   C55       1.0  0.79790  0.20630  0.37470  1.0000 -0.0917890063
C   C56       1.0  0.40840  0.20210  0.37470  1.0000 -0.0917890063
C   C57       1.0  0.79370  0.59160  0.37470  1.0000 -0.0917890063
C   C58       1.0  0.79790  0.20630  0.12530  1.0000 -0.0917890063
C   C59       1.0  0.40840  0.20210  0.12530  1.0000 -0.0917890063
C   C60       1.0  0.79370  0.59160  0.12530  1.0000 -0.0917890063
C   C61       1.0  0.19070  0.83800  0.59020  1.0000 -0.1487279894
C   C62       1.0  0.16200  0.35270  0.59020  1.0000 -0.1487279894
C   C63       1.0  0.64730  0.80930  0.59020  1.0000 -0.1487279894
C   C64       1.0  0.19070  0.83800  0.90980  1.0000 -0.1487279894
C   C65       1.0  0.16200  0.35270  0.90980  1.0000 -0.1487279894
C   C66       1.0  0.64730  0.80930  0.90980  1.0000 -0.1487279894
C   C67       1.0  0.83800  0.19070  0.40980  1.0000 -0.1487279894
C   C68       1.0  0.35270  0.16200  0.40980  1.0000 -0.1487279894
C   C69       1.0  0.80930  0.64730  0.40980  1.0000 -0.1487279894
C   C70       1.0  0.83800  0.19070  0.09020  1.0000 -0.1487279894
C   C71       1.0  0.35270  0.16200  0.09020  1.0000 -0.1487279894
C   C72       1.0  0.80930  0.64730  0.09020  1.0000 -0.1487279894
C   C73       1.0  0.34210  0.89660  0.62600  1.0000 -0.0917890063
C   C74       1.0  0.10340  0.44550  0.62600  1.0000 -0.0917890063
C   C75       1.0  0.55450  0.65790  0.62600  1.0000 -0.0917890063
C   C76       1.0  0.34210  0.89660  0.87400  1.0000 -0.0917890063
C   C77       1.0  0.10340  0.44550  0.87400  1.0000 -0.0917890063
C   C78       1.0  0.55450  0.65790  0.87400  1.0000 -0.0917890063
C   C79       1.0  0.89660  0.34210  0.37400  1.0000 -0.0917890063
C   C80       1.0  0.44550  0.10340  0.37400  1.0000 -0.0917890063
C   C81       1.0  0.65790  0.55450  0.37400  1.0000 -0.0917890063
C   C82       1.0  0.89660  0.34210  0.12600  1.0000 -0.0917890063
C   C83       1.0  0.44550  0.10340  0.12600  1.0000 -0.0917890063
C   C84       1.0  0.65790  0.55450  0.12600  1.0000 -0.0917890063
C   C85       1.0  0.07080  0.00000  0.50000  1.0000 0.0706210433
C   C86       1.0  0.00000  0.07080  0.50000  1.0000 0.0706210433
C   C87       1.0  0.92920  0.92920  0.50000  1.0000 0.0755421879
C   C88       1.0  0.07080  0.00000  0.00000  1.0000 0.0706210433
C   C89       1.0  0.00000  0.07080  0.00000  1.0000 0.0706210433
C   C90       1.0  0.92920  0.92920  0.00000  1.0000 0.0706210433
C   C91       1.0  0.23660  0.95500  0.53420  1.0000 0.0755421879
C   C92       1.0  0.04500  0.28160  0.53420  1.0000 0.0706210433
C   C93       1.0  0.71840  0.76340  0.53420  1.0000 0.0755421879
C   C94       1.0  0.23660  0.95500  0.96580  1.0000 0.0755421879
C   C95       1.0  0.04500  0.28160  0.96580  1.0000 0.0706210433
C   C96       1.0  0.71840  0.76340  0.96580  1.0000 0.0755421879
C   C97       1.0  0.95500  0.23660  0.46580  1.0000 0.0755421879
C   C98       1.0  0.28160  0.04500  0.46580  1.0000 0.0706210433
C   C99       1.0  0.76340  0.71840  0.46580  1.0000 0.0755421879
C   C100      1.0  0.95500  0.23660  0.03420  1.0000 0.0755421879
C   C101      1.0  0.28160  0.04500  0.03420  1.0000 0.0706210433
C   C102      1.0  0.76340  0.71840  0.03420  1.0000 0.0755421879
C   C103      1.0  0.15060  0.00000  0.50000  1.0000 0.0861732103
C   C104      1.0  0.00000  0.15060  0.50000  1.0000 0.0861732103
C   C105      1.0  0.84940  0.84940  0.50000  1.0000 0.0861732103
C   C106      1.0  0.15060  0.00000  0.00000  1.0000 0.0861732103
C   C107      1.0  0.00000  0.15060  0.00000  1.0000 0.0861732103
C   C108      1.0  0.84940  0.84940  0.00000  1.0000 0.0861732103
C   C109      1.0  0.16430  0.95410  0.53310  1.0000 -0.196305722
C   C110      1.0  0.04590  0.21020  0.53310  1.0000 -0.196305722
C   C111      1.0  0.78980  0.83570  0.53310  1.0000 -0.196305722
C   C112      1.0  0.16430  0.95410  0.96690  1.0000 -0.196305722
C   C113      1.0  0.04590  0.21020  0.96690  1.0000 -0.196305722
C   C114      1.0  0.78980  0.83570  0.96690  1.0000 -0.196305722
C   C115      1.0  0.95410  0.16430  0.46690  1.0000 -0.196305722
C   C116      1.0  0.21020  0.04590  0.46690  1.0000 -0.196305722
C   C117      1.0  0.83570  0.78980  0.46690  1.0000 -0.196305722
C   C118      1.0  0.95410  0.16430  0.03310  1.0000 -0.196305722
C   C119      1.0  0.21020  0.04590  0.03310  1.0000 -0.196305722
C   C120      1.0  0.83570  0.78980  0.03310  1.0000 -0.196305722
C   C121      1.0  0.29320  0.00000  0.50000  1.0000 -0.1908838166
C   C122      1.0  0.00000  0.29320  0.50000  1.0000 -0.1908838166
C   C123      1.0  0.70680  0.70680  0.50000  1.0000 -0.1908838166
C   C124      1.0  0.29320  0.00000  0.00000  1.0000 -0.1908838166
C   C125      1.0  0.00000  0.29320  0.00000  1.0000 -0.1908838166
C   C126      1.0  0.70680  0.70680  0.00000  1.0000 -0.1908838166
C   C127      1.0  0.00000  0.92760  0.50000  1.0000 -0.1908838166
C   C128      1.0  0.07240  0.07240  0.50000  1.0000 -0.1908838166
C   C129      1.0  0.92760  0.00000  0.50000  1.0000 -0.1908838166
C   C130      1.0  0.00000  0.92760  0.00000  1.0000 -0.1908838166
C   C131      1.0  0.07240  0.07240  0.00000  1.0000 -0.1908838166
C   C132      1.0  0.92760  0.00000  0.00000  1.0000 -0.1908838166
O   O1        1.0  0.33333  0.66667  0.75000  1.0000 -0.8642060695
O   O2        1.0  0.66667  0.33333  0.25000  1.0000 -0.8655216632
O   O3        1.0  0.36590  0.81260  0.69829  1.0000 -0.5262392102
O   O4        1.0  0.18740  0.55330  0.69829  1.0000 -0.5262392102
O   O5        1.0  0.44670  0.63410  0.69829  1.0000 -0.5262392102
O   O6        1.0  0.36590  0.81260  0.80171  1.0000 -0.5262392102
O   O7        1.0  0.18740  0.55330  0.80171  1.0000 -0.5262392102
O   O8        1.0  0.44670  0.63410  0.80171  1.0000 -0.5262392102
O   O9        1.0  0.81260  0.36590  0.30171  1.0000 -0.5262392102
O   O10       1.0  0.55330  0.18740  0.30171  1.0000 -0.5262392102
O   O11       1.0  0.63410  0.44670  0.30171  1.0000 -0.5262392102
O   O12       1.0  0.81260  0.36590  0.19829  1.0000 -0.5262392102
O   O13       1.0  0.55330  0.18740  0.19829  1.0000 -0.5262392102
O   O14       1.0  0.63410  0.44670  0.19829  1.0000 -0.5262392102
O   O15       1.0  0.23560  0.71960  0.69866  1.0000 -0.5198645232
O   O16       1.0  0.28040  0.51600  0.69866  1.0000 -0.5198645232
O   O17       1.0  0.48400  0.76440  0.69866  1.0000 -0.5198645232
O   O18       1.0  0.23560  0.71960  0.80134  1.0000 -0.5198645232
O   O19       1.0  0.28040  0.51600  0.80134  1.0000 -0.5198645232
O   O20       1.0  0.48400  0.76440  0.80134  1.0000 -0.5198645232
O   O21       1.0  0.71960  0.23560  0.30134  1.0000 -0.5198645232
O   O22       1.0  0.51600  0.28040  0.30134  1.0000 -0.5198645232
O   O23       1.0  0.76440  0.48400  0.30134  1.0000 -0.5198645232
O   O24       1.0  0.71960  0.23560  0.19866  1.0000 -0.5198645232
O   O25       1.0  0.51600  0.28040  0.19866  1.0000 -0.5198645232
O   O26       1.0  0.76440  0.48400  0.19866  1.0000 -0.5198645232
