# DDEC6 charges by PACMAN v1.1 (https://github.com/mtap-research/PACMAN-charge/)
data_2013[Nd][llj]3[ASR]1
_chemical_formula_sum              "Nd16 B16 H576 C532 O108"
_cell_length_a       18.2151
_cell_length_b       27.286
_cell_length_c       37.614
_cell_angle_alpha    90
_cell_angle_beta     90
_cell_angle_gamma    90

_symmetry_space_group_name_H-M    "P 1"
_symmetry_Int_Tables_number       1

loop_
  _symmetry_equiv_pos_as_xyz
  'x, y, z'

loop_
  _atom_site_type_symbol
  _atom_site_label
  _atom_site_symmetry_multiplicity
  _atom_site_fract_x
  _atom_site_fract_y
  _atom_site_fract_z
  _atom_site_occupancy
  _atom_site_charge
Nd  Nd1       1.0  0.12156  0.25160  0.90436  1.0000 2.0906926412
Nd  Nd2       1.0  0.12156  0.74840  0.59564  1.0000 2.0906926412
Nd  Nd3       1.0  0.37844  0.24840  0.90436  1.0000 2.0906926412
Nd  Nd4       1.0  0.37844  0.75160  0.59564  1.0000 2.0906926412
Nd  Nd5       1.0  0.87844  0.74840  0.09564  1.0000 2.0906926412
Nd  Nd6       1.0  0.87844  0.25160  0.40436  1.0000 2.0906926412
Nd  Nd7       1.0  0.62156  0.75160  0.09564  1.0000 2.0906926412
Nd  Nd8       1.0  0.62156  0.24840  0.40436  1.0000 2.0906926412
Nd  Nd9       1.0  0.12616  0.25543  0.02671  1.0000 2.1116099375
Nd  Nd10      1.0  0.12616  0.74457  0.47329  1.0000 2.1116099375
Nd  Nd11      1.0  0.37384  0.24457  0.02671  1.0000 2.1116099375
Nd  Nd12      1.0  0.37384  0.75543  0.47329  1.0000 2.1116099375
Nd  Nd13      1.0  0.87384  0.74457  0.97329  1.0000 2.1116099375
Nd  Nd14      1.0  0.87384  0.25543  0.52671  1.0000 2.1116099375
Nd  Nd15      1.0  0.62616  0.75543  0.97329  1.0000 2.1116099375
Nd  Nd16      1.0  0.62616  0.24457  0.52671  1.0000 2.1116099375
B   B1        1.0  0.74430  0.43750  0.96800  1.0000 0.4229289336
B   B2        1.0  0.74430  0.56250  0.53200  1.0000 0.4229289336
B   B3        1.0  0.75570  0.06250  0.96800  1.0000 0.4229289336
B   B4        1.0  0.75570  0.93750  0.53200  1.0000 0.4229289336
B   B5        1.0  0.25570  0.56250  0.03200  1.0000 0.4229289336
B   B6        1.0  0.25570  0.43750  0.46800  1.0000 0.4229289336
B   B7        1.0  0.24430  0.93750  0.03200  1.0000 0.4229289336
B   B8        1.0  0.24430  0.06250  0.46800  1.0000 0.4229289336
B   B9        1.0  0.75000  0.25000  0.17740  1.0000 0.428721534
B   B10       1.0  0.75000  0.75000  0.32260  1.0000 0.428721534
B   B11       1.0  0.25000  0.75000  0.82260  1.0000 0.428721534
B   B12       1.0  0.25000  0.25000  0.67740  1.0000 0.428721534
B   B13       1.0  0.25000  0.25000  0.25550  1.0000 0.4229289336
B   B14       1.0  0.25000  0.75000  0.24450  1.0000 0.4229289336
B   B15       1.0  0.75000  0.75000  0.74450  1.0000 0.4229289336
B   B16       1.0  0.75000  0.25000  0.75550  1.0000 0.4229289336
H   H1        1.0  0.85140  0.29020  0.02660  1.0000 0.1306711571
H   H2        1.0  0.85140  0.70980  0.47340  1.0000 0.1306711571
H   H3        1.0  0.64860  0.20980  0.02660  1.0000 0.1306711571
H   H4        1.0  0.64860  0.79020  0.47340  1.0000 0.1306711571
H   H5        1.0  0.14860  0.70980  0.97340  1.0000 0.1306711571
H   H6        1.0  0.14860  0.29020  0.52660  1.0000 0.1306711571
H   H7        1.0  0.35140  0.79020  0.97340  1.0000 0.1306711571
H   H8        1.0  0.35140  0.20980  0.52660  1.0000 0.1306711571
H   H9        1.0  0.89710  0.26480  0.99650  1.0000 0.1390268767
H   H10       1.0  0.89710  0.73520  0.50350  1.0000 0.1390268767
H   H11       1.0  0.60290  0.23520  0.99650  1.0000 0.1390268767
H   H12       1.0  0.60290  0.76480  0.50350  1.0000 0.1390268767
H   H13       1.0  0.10290  0.73520  0.00350  1.0000 0.1390268767
H   H14       1.0  0.10290  0.26480  0.49650  1.0000 0.1390268767
H   H15       1.0  0.39710  0.76480  0.00350  1.0000 0.1390268767
H   H16       1.0  0.39710  0.23520  0.49650  1.0000 0.1390268767
H   H17       1.0  0.93740  0.29320  0.02700  1.0000 0.1470272259
H   H18       1.0  0.93740  0.70680  0.47300  1.0000 0.1470272259
H   H19       1.0  0.56260  0.20680  0.02700  1.0000 0.1470272259
H   H20       1.0  0.56260  0.79320  0.47300  1.0000 0.1470272259
H   H21       1.0  0.06260  0.70680  0.97300  1.0000 0.1470272259
H   H22       1.0  0.06260  0.29320  0.52700  1.0000 0.1470272259
H   H23       1.0  0.43740  0.79320  0.97300  1.0000 0.1470272259
H   H24       1.0  0.43740  0.20680  0.52700  1.0000 0.1470272259
H   H25       1.0  0.73020  0.37860  0.01700  1.0000 0.1306711571
H   H26       1.0  0.73020  0.62140  0.48300  1.0000 0.1306711571
H   H27       1.0  0.76980  0.12140  0.01700  1.0000 0.1306711571
H   H28       1.0  0.76980  0.87860  0.48300  1.0000 0.1306711571
H   H29       1.0  0.26980  0.62140  0.98300  1.0000 0.1306711571
H   H30       1.0  0.26980  0.37860  0.51700  1.0000 0.1306711571
H   H31       1.0  0.23020  0.87860  0.98300  1.0000 0.1306711571
H   H32       1.0  0.23020  0.12140  0.51700  1.0000 0.1306711571
H   H33       1.0  0.75350  0.32330  0.01620  1.0000 0.1306711571
H   H34       1.0  0.75350  0.67670  0.48380  1.0000 0.1306711571
H   H35       1.0  0.74650  0.17670  0.01620  1.0000 0.1306711571
H   H36       1.0  0.74650  0.82330  0.48380  1.0000 0.1306711571
H   H37       1.0  0.24650  0.67670  0.98380  1.0000 0.1306711571
H   H38       1.0  0.24650  0.32330  0.51620  1.0000 0.1306711571
H   H39       1.0  0.25350  0.82330  0.98380  1.0000 0.1306711571
H   H40       1.0  0.25350  0.17670  0.51620  1.0000 0.1306711571
H   H41       1.0  0.79200  0.35960  0.04260  1.0000 0.1390268767
H   H42       1.0  0.79200  0.64040  0.45740  1.0000 0.1390268767
H   H43       1.0  0.70800  0.14040  0.04260  1.0000 0.1390268767
H   H44       1.0  0.70800  0.85960  0.45740  1.0000 0.1390268767
H   H45       1.0  0.20800  0.64040  0.95740  1.0000 0.1390268767
H   H46       1.0  0.20800  0.35960  0.54260  1.0000 0.1390268767
H   H47       1.0  0.29200  0.85960  0.95740  1.0000 0.1390268767
H   H48       1.0  0.29200  0.14040  0.54260  1.0000 0.1390268767
H   H49       1.0  0.90980  0.46550  0.90400  1.0000 0.1216497863
H   H50       1.0  0.90980  0.53450  0.59600  1.0000 0.1216497863
H   H51       1.0  0.59020  0.03450  0.90400  1.0000 0.1216497863
H   H52       1.0  0.59020  0.96550  0.59600  1.0000 0.1216497863
H   H53       1.0  0.09020  0.53450  0.09600  1.0000 0.1306711571
H   H54       1.0  0.09020  0.46550  0.40400  1.0000 0.1216497863
H   H55       1.0  0.40980  0.96550  0.09600  1.0000 0.1306711571
H   H56       1.0  0.40980  0.03450  0.40400  1.0000 0.1216497863
H   H57       1.0  0.82570  0.45330  0.90290  1.0000 0.1306711571
H   H58       1.0  0.82570  0.54670  0.59710  1.0000 0.1306711571
H   H59       1.0  0.67430  0.04670  0.90290  1.0000 0.1306711571
H   H60       1.0  0.67430  0.95330  0.59710  1.0000 0.1306711571
H   H61       1.0  0.17430  0.54670  0.09710  1.0000 0.1306711571
H   H62       1.0  0.17430  0.45330  0.40290  1.0000 0.1306711571
H   H63       1.0  0.32570  0.95330  0.09710  1.0000 0.1306711571
H   H64       1.0  0.32570  0.04670  0.40290  1.0000 0.1306711571
H   H65       1.0  0.85570  0.49180  0.93020  1.0000 0.1306711571
H   H66       1.0  0.85570  0.50820  0.56980  1.0000 0.1306711571
H   H67       1.0  0.64430  0.00820  0.93020  1.0000 0.1306711571
H   H68       1.0  0.64430  0.99180  0.56980  1.0000 0.1306711571
H   H69       1.0  0.14430  0.50820  0.06980  1.0000 0.1306711571
H   H70       1.0  0.14430  0.49180  0.43020  1.0000 0.1306711571
H   H71       1.0  0.35570  0.99180  0.06980  1.0000 0.1306711571
H   H72       1.0  0.35570  0.00820  0.43020  1.0000 0.1306711571
H   H73       1.0  0.04740  0.38220  0.92330  1.0000 0.1306711571
H   H74       1.0  0.04740  0.61780  0.57670  1.0000 0.1306711571
H   H75       1.0  0.45260  0.11780  0.92330  1.0000 0.1306711571
H   H76       1.0  0.45260  0.88220  0.57670  1.0000 0.1306711571
H   H77       1.0  0.95260  0.61780  0.07670  1.0000 0.1306711571
H   H78       1.0  0.95260  0.38220  0.42330  1.0000 0.1306711571
H   H79       1.0  0.54740  0.88220  0.07670  1.0000 0.1306711571
H   H80       1.0  0.54740  0.11780  0.42330  1.0000 0.1306711571
H   H81       1.0  0.99400  0.40700  0.89610  1.0000 0.1390268767
H   H82       1.0  0.99400  0.59300  0.60390  1.0000 0.1390268767
H   H83       1.0  0.50600  0.09300  0.89610  1.0000 0.1390268767
H   H84       1.0  0.50600  0.90700  0.60390  1.0000 0.1390268767
H   H85       1.0  0.00600  0.59300  0.10390  1.0000 0.1390268767
H   H86       1.0  0.00600  0.40700  0.39610  1.0000 0.1390268767
H   H87       1.0  0.49400  0.90700  0.10390  1.0000 0.1390268767
H   H88       1.0  0.49400  0.09300  0.39610  1.0000 0.1390268767
H   H89       1.0  0.02700  0.43770  0.92740  1.0000 0.1306711571
H   H90       1.0  0.02700  0.56230  0.57260  1.0000 0.1306711571
H   H91       1.0  0.47300  0.06230  0.92740  1.0000 0.1306711571
H   H92       1.0  0.47300  0.93770  0.57260  1.0000 0.1306711571
H   H93       1.0  0.97300  0.56230  0.07260  1.0000 0.1306711571
H   H94       1.0  0.97300  0.43770  0.42740  1.0000 0.1306711571
H   H95       1.0  0.52700  0.93770  0.07260  1.0000 0.1306711571
H   H96       1.0  0.52700  0.06230  0.42740  1.0000 0.1306711571
H   H97       1.0  0.83620  0.57820  0.04320  1.0000 0.1216497863
H   H98       1.0  0.83620  0.42180  0.45680  1.0000 0.1216497863
H   H99       1.0  0.66380  0.92180  0.04320  1.0000 0.1216497863
H   H100      1.0  0.66380  0.07820  0.45680  1.0000 0.1216497863
H   H101      1.0  0.16380  0.42180  0.95680  1.0000 0.1216497863
H   H102      1.0  0.16380  0.57820  0.54320  1.0000 0.1216497863
H   H103      1.0  0.33620  0.07820  0.95680  1.0000 0.1216497863
H   H104      1.0  0.33620  0.92180  0.54320  1.0000 0.1216497863
H   H105      1.0  0.84740  0.62350  0.01820  1.0000 0.1390268767
H   H106      1.0  0.84740  0.37650  0.48180  1.0000 0.1390268767
H   H107      1.0  0.65260  0.87650  0.01820  1.0000 0.1390268767
H   H108      1.0  0.65260  0.12350  0.48180  1.0000 0.1390268767
H   H109      1.0  0.15260  0.37650  0.98180  1.0000 0.1390268767
H   H110      1.0  0.15260  0.62350  0.51820  1.0000 0.1390268767
H   H111      1.0  0.34740  0.12350  0.98180  1.0000 0.1390268767
H   H112      1.0  0.34740  0.87650  0.51820  1.0000 0.1390268767
H   H113      1.0  0.77570  0.61900  0.04100  1.0000 0.1390268767
H   H114      1.0  0.77570  0.38100  0.45900  1.0000 0.1390268767
H   H115      1.0  0.72430  0.88100  0.04100  1.0000 0.1390268767
H   H116      1.0  0.72430  0.11900  0.45900  1.0000 0.1390268767
H   H117      1.0  0.22430  0.38100  0.95900  1.0000 0.1390268767
H   H118      1.0  0.22430  0.61900  0.54100  1.0000 0.1390268767
H   H119      1.0  0.27570  0.11900  0.95900  1.0000 0.1390268767
H   H120      1.0  0.27570  0.88100  0.54100  1.0000 0.1390268767
H   H121      1.0  0.83800  0.51860  0.04230  1.0000 0.1087079407
H   H122      1.0  0.83800  0.48140  0.45770  1.0000 0.1087079407
H   H123      1.0  0.66200  0.98140  0.04230  1.0000 0.1087079407
H   H124      1.0  0.66200  0.01860  0.45770  1.0000 0.1087079407
H   H125      1.0  0.16200  0.48140  0.95770  1.0000 0.1087079407
H   H126      1.0  0.16200  0.51860  0.54230  1.0000 0.1087079407
H   H127      1.0  0.33800  0.01860  0.95770  1.0000 0.1087079407
H   H128      1.0  0.33800  0.98140  0.54230  1.0000 0.1087079407
H   H129      1.0  0.78210  0.47510  0.03880  1.0000 0.1306711571
H   H130      1.0  0.78210  0.52490  0.46120  1.0000 0.1306711571
H   H131      1.0  0.71790  0.02490  0.03880  1.0000 0.1306711571
H   H132      1.0  0.71790  0.97510  0.46120  1.0000 0.1306711571
H   H133      1.0  0.21790  0.52490  0.96120  1.0000 0.1306711571
H   H134      1.0  0.21790  0.47510  0.53880  1.0000 0.1306711571
H   H135      1.0  0.28210  0.97510  0.96120  1.0000 0.1306711571
H   H136      1.0  0.28210  0.02490  0.53880  1.0000 0.1306711571
H   H137      1.0  0.85470  0.47490  0.01650  1.0000 0.1306711571
H   H138      1.0  0.85470  0.52510  0.48350  1.0000 0.1306711571
H   H139      1.0  0.64530  0.02510  0.01650  1.0000 0.1306711571
H   H140      1.0  0.64530  0.97490  0.48350  1.0000 0.1306711571
H   H141      1.0  0.14530  0.52510  0.98350  1.0000 0.1306711571
H   H142      1.0  0.14530  0.47490  0.51650  1.0000 0.1306711571
H   H143      1.0  0.35470  0.97490  0.98350  1.0000 0.1306711571
H   H144      1.0  0.35470  0.02510  0.51650  1.0000 0.1306711571
H   H145      1.0  0.67030  0.46140  0.91570  1.0000 0.1216497863
H   H146      1.0  0.67030  0.53860  0.58430  1.0000 0.1216497863
H   H147      1.0  0.82970  0.03860  0.91570  1.0000 0.1216497863
H   H148      1.0  0.82970  0.96140  0.58430  1.0000 0.1306711571
H   H149      1.0  0.32970  0.53860  0.08430  1.0000 0.1306711571
H   H150      1.0  0.32970  0.46140  0.41570  1.0000 0.1306711571
H   H151      1.0  0.17030  0.96140  0.08430  1.0000 0.1306711571
H   H152      1.0  0.17030  0.03860  0.41570  1.0000 0.1306711571
H   H153      1.0  0.61230  0.50380  0.91380  1.0000 0.1306711571
H   H154      1.0  0.61230  0.49620  0.58620  1.0000 0.1306711571
H   H155      1.0  0.88770  0.99620  0.91380  1.0000 0.1306711571
H   H156      1.0  0.88770  0.00380  0.58620  1.0000 0.1306711571
H   H157      1.0  0.38770  0.49620  0.08620  1.0000 0.1306711571
H   H158      1.0  0.38770  0.50380  0.41380  1.0000 0.1306711571
H   H159      1.0  0.11230  0.00380  0.08620  1.0000 0.1306711571
H   H160      1.0  0.11230  0.99620  0.41380  1.0000 0.1306711571
H   H161      1.0  0.68410  0.50670  0.89080  1.0000 0.1306711571
H   H162      1.0  0.68410  0.49330  0.60920  1.0000 0.1306711571
H   H163      1.0  0.81590  0.99330  0.89080  1.0000 0.1306711571
H   H164      1.0  0.81590  0.00670  0.60920  1.0000 0.1306711571
H   H165      1.0  0.31590  0.49330  0.10920  1.0000 0.1306711571
H   H166      1.0  0.31590  0.50670  0.39080  1.0000 0.1306711571
H   H167      1.0  0.18410  0.00670  0.10920  1.0000 0.1306711571
H   H168      1.0  0.18410  0.99330  0.39080  1.0000 0.1306711571
H   H169      1.0  0.66010  0.63590  0.92090  1.0000 0.1470272259
H   H170      1.0  0.66010  0.36410  0.57910  1.0000 0.1470272259
H   H171      1.0  0.83990  0.86410  0.92090  1.0000 0.1470272259
H   H172      1.0  0.83990  0.13590  0.57910  1.0000 0.1470272259
H   H173      1.0  0.33990  0.36410  0.07910  1.0000 0.1470272259
H   H174      1.0  0.33990  0.63590  0.42090  1.0000 0.1470272259
H   H175      1.0  0.16010  0.13590  0.07910  1.0000 0.1470272259
H   H176      1.0  0.16010  0.86410  0.42090  1.0000 0.1470272259
H   H177      1.0  0.67620  0.59420  0.89320  1.0000 0.1306711571
H   H178      1.0  0.67620  0.40580  0.60680  1.0000 0.1306711571
H   H179      1.0  0.82380  0.90580  0.89320  1.0000 0.1306711571
H   H180      1.0  0.82380  0.09420  0.60680  1.0000 0.1306711571
H   H181      1.0  0.32380  0.40580  0.10680  1.0000 0.1306711571
H   H182      1.0  0.32380  0.59420  0.39320  1.0000 0.1306711571
H   H183      1.0  0.17620  0.09420  0.10680  1.0000 0.1306711571
H   H184      1.0  0.17620  0.90580  0.39320  1.0000 0.1306711571
H   H185      1.0  0.60600  0.59150  0.91720  1.0000 0.1390268767
H   H186      1.0  0.60600  0.40850  0.58280  1.0000 0.1390268767
H   H187      1.0  0.89400  0.90850  0.91720  1.0000 0.1390268767
H   H188      1.0  0.89400  0.09150  0.58280  1.0000 0.1390268767
H   H189      1.0  0.39400  0.40850  0.08280  1.0000 0.1390268767
H   H190      1.0  0.39400  0.59150  0.41720  1.0000 0.1390268767
H   H191      1.0  0.10600  0.09150  0.08280  1.0000 0.1390268767
H   H192      1.0  0.10600  0.90850  0.41720  1.0000 0.1390268767
H   H193      1.0  0.65280  0.28450  0.91040  1.0000 0.1306711571
H   H194      1.0  0.65280  0.71550  0.58960  1.0000 0.1306711571
H   H195      1.0  0.84720  0.21550  0.91040  1.0000 0.1306711571
H   H196      1.0  0.84720  0.78450  0.58960  1.0000 0.1306711571
H   H197      1.0  0.34720  0.71550  0.08960  1.0000 0.1306711571
H   H198      1.0  0.34720  0.28450  0.41040  1.0000 0.1306711571
H   H199      1.0  0.15280  0.78450  0.08960  1.0000 0.1306711571
H   H200      1.0  0.15280  0.21550  0.41040  1.0000 0.1306711571
H   H201      1.0  0.60760  0.25860  0.94050  1.0000 0.1306711571
H   H202      1.0  0.60760  0.74140  0.55950  1.0000 0.1306711571
H   H203      1.0  0.89240  0.24140  0.94050  1.0000 0.1306711571
H   H204      1.0  0.89240  0.75860  0.55950  1.0000 0.1306711571
H   H205      1.0  0.39240  0.74140  0.05950  1.0000 0.1306711571
H   H206      1.0  0.39240  0.25860  0.44050  1.0000 0.1306711571
H   H207      1.0  0.10760  0.75860  0.05950  1.0000 0.1306711571
H   H208      1.0  0.10760  0.24140  0.44050  1.0000 0.1306711571
H   H209      1.0  0.56680  0.28420  0.90880  1.0000 0.1390268767
H   H210      1.0  0.56680  0.71580  0.59120  1.0000 0.1390268767
H   H211      1.0  0.93320  0.21580  0.90880  1.0000 0.1390268767
H   H212      1.0  0.93320  0.78420  0.59120  1.0000 0.1390268767
H   H213      1.0  0.43320  0.71580  0.09120  1.0000 0.1390268767
H   H214      1.0  0.43320  0.28420  0.40880  1.0000 0.1390268767
H   H215      1.0  0.06680  0.78420  0.09120  1.0000 0.1390268767
H   H216      1.0  0.06680  0.21580  0.40880  1.0000 0.1390268767
H   H217      1.0  0.71510  0.32430  0.90470  1.0000 0.1306711571
H   H218      1.0  0.71510  0.67570  0.59530  1.0000 0.1306711571
H   H219      1.0  0.78490  0.17570  0.90470  1.0000 0.1306711571
H   H220      1.0  0.78490  0.82430  0.59530  1.0000 0.1306711571
H   H221      1.0  0.28490  0.67570  0.09530  1.0000 0.1306711571
H   H222      1.0  0.28490  0.32430  0.40470  1.0000 0.1306711571
H   H223      1.0  0.21510  0.82430  0.09530  1.0000 0.1306711571
H   H224      1.0  0.21510  0.17570  0.40470  1.0000 0.1306711571
H   H225      1.0  0.72720  0.38070  0.89970  1.0000 0.1390268767
H   H226      1.0  0.72720  0.61930  0.60030  1.0000 0.1390268767
H   H227      1.0  0.77280  0.11930  0.89970  1.0000 0.1390268767
H   H228      1.0  0.77280  0.88070  0.60030  1.0000 0.1390268767
H   H229      1.0  0.27280  0.61930  0.10030  1.0000 0.1390268767
H   H230      1.0  0.27280  0.38070  0.39970  1.0000 0.1390268767
H   H231      1.0  0.22720  0.88070  0.10030  1.0000 0.1390268767
H   H232      1.0  0.22720  0.11930  0.39970  1.0000 0.1390268767
H   H233      1.0  0.77330  0.35190  0.92800  1.0000 0.1306711571
H   H234      1.0  0.77330  0.64810  0.57200  1.0000 0.1306711571
H   H235      1.0  0.72670  0.14810  0.92800  1.0000 0.1306711571
H   H236      1.0  0.72670  0.85190  0.57200  1.0000 0.1306711571
H   H237      1.0  0.22670  0.64810  0.07200  1.0000 0.1306711571
H   H238      1.0  0.22670  0.35190  0.42800  1.0000 0.1306711571
H   H239      1.0  0.27330  0.85190  0.07200  1.0000 0.1306711571
H   H240      1.0  0.27330  0.14810  0.42800  1.0000 0.1306711571
H   H241      1.0  0.65980  0.47750  0.01150  1.0000 0.1216497863
H   H242      1.0  0.65980  0.52250  0.48850  1.0000 0.1216497863
H   H243      1.0  0.84020  0.02250  0.01150  1.0000 0.1216497863
H   H244      1.0  0.84020  0.97750  0.48850  1.0000 0.1216497863
H   H245      1.0  0.34020  0.52250  0.98850  1.0000 0.1216497863
H   H246      1.0  0.34020  0.47750  0.51150  1.0000 0.1216497863
H   H247      1.0  0.15980  0.97750  0.98850  1.0000 0.1216497863
H   H248      1.0  0.15980  0.02250  0.51150  1.0000 0.1216497863
H   H249      1.0  0.57390  0.48150  0.01170  1.0000 0.1390268767
H   H250      1.0  0.57390  0.51850  0.48830  1.0000 0.1390268767
H   H251      1.0  0.92610  0.01850  0.01170  1.0000 0.1390268767
H   H252      1.0  0.92610  0.98150  0.48830  1.0000 0.1390268767
H   H253      1.0  0.42610  0.51850  0.98830  1.0000 0.1390268767
H   H254      1.0  0.42610  0.48150  0.51170  1.0000 0.1390268767
H   H255      1.0  0.07390  0.98150  0.98830  1.0000 0.1390268767
H   H256      1.0  0.07390  0.01850  0.51170  1.0000 0.1390268767
H   H257      1.0  0.61370  0.44740  0.03920  1.0000 0.1390268767
H   H258      1.0  0.61370  0.55260  0.46080  1.0000 0.1390268767
H   H259      1.0  0.88630  0.05260  0.03920  1.0000 0.1390268767
H   H260      1.0  0.88630  0.94740  0.46080  1.0000 0.1390268767
H   H261      1.0  0.38630  0.55260  0.96080  1.0000 0.1390268767
H   H262      1.0  0.38630  0.44740  0.53920  1.0000 0.1390268767
H   H263      1.0  0.11370  0.94740  0.96080  1.0000 0.1390268767
H   H264      1.0  0.11370  0.05260  0.53920  1.0000 0.1390268767
H   H265      1.0  0.48770  0.42680  0.02510  1.0000 0.1216497863
H   H266      1.0  0.48770  0.57320  0.47490  1.0000 0.1216497863
H   H267      1.0  0.01230  0.07320  0.02510  1.0000 0.1216497863
H   H268      1.0  0.01230  0.92680  0.47490  1.0000 0.1216497863
H   H269      1.0  0.51230  0.57320  0.97490  1.0000 0.1216497863
H   H270      1.0  0.51230  0.42680  0.52510  1.0000 0.1216497863
H   H271      1.0  0.98770  0.92680  0.97490  1.0000 0.1216497863
H   H272      1.0  0.98770  0.07320  0.52510  1.0000 0.1216497863
H   H273      1.0  0.43870  0.40280  0.99570  1.0000 0.1470272259
H   H274      1.0  0.43870  0.59720  0.50430  1.0000 0.1470272259
H   H275      1.0  0.06130  0.09720  0.99570  1.0000 0.1470272259
H   H276      1.0  0.06130  0.90280  0.50430  1.0000 0.1470272259
H   H277      1.0  0.56130  0.59720  0.00430  1.0000 0.1470272259
H   H278      1.0  0.56130  0.40280  0.49570  1.0000 0.1470272259
H   H279      1.0  0.93870  0.90280  0.00430  1.0000 0.1470272259
H   H280      1.0  0.93870  0.09720  0.49570  1.0000 0.1470272259
H   H281      1.0  0.46880  0.37090  0.02710  1.0000 0.1470272259
H   H282      1.0  0.46880  0.62910  0.47290  1.0000 0.1470272259
H   H283      1.0  0.03120  0.12910  0.02710  1.0000 0.1470272259
H   H284      1.0  0.03120  0.87090  0.47290  1.0000 0.1470272259
H   H285      1.0  0.53120  0.62910  0.97290  1.0000 0.1470272259
H   H286      1.0  0.53120  0.37090  0.52710  1.0000 0.1470272259
H   H287      1.0  0.96880  0.87090  0.97290  1.0000 0.1470272259
H   H288      1.0  0.96880  0.12910  0.52710  1.0000 0.1470272259
H   H289      1.0  0.01440  0.31300  0.17560  1.0000 0.1216497863
H   H290      1.0  0.01440  0.68700  0.32440  1.0000 0.1216497863
H   H291      1.0  0.48560  0.18700  0.17560  1.0000 0.1216497863
H   H292      1.0  0.48560  0.81300  0.32440  1.0000 0.1216497863
H   H293      1.0  0.98560  0.68700  0.82440  1.0000 0.1216497863
H   H294      1.0  0.98560  0.31300  0.67560  1.0000 0.1216497863
H   H295      1.0  0.51440  0.81300  0.82440  1.0000 0.1216497863
H   H296      1.0  0.51440  0.18700  0.67560  1.0000 0.1216497863
H   H297      1.0  0.05960  0.26980  0.15890  1.0000 0.1390268767
H   H298      1.0  0.05960  0.73020  0.34110  1.0000 0.1390268767
H   H299      1.0  0.44040  0.23020  0.15890  1.0000 0.1390268767
H   H300      1.0  0.44040  0.76980  0.34110  1.0000 0.1390268767
H   H301      1.0  0.94040  0.73020  0.84110  1.0000 0.1390268767
H   H302      1.0  0.94040  0.26980  0.65890  1.0000 0.1390268767
H   H303      1.0  0.55960  0.76980  0.84110  1.0000 0.1390268767
H   H304      1.0  0.55960  0.23020  0.65890  1.0000 0.1390268767
H   H305      1.0  0.03760  0.31500  0.13550  1.0000 0.1470272259
H   H306      1.0  0.03760  0.68500  0.36450  1.0000 0.1390268767
H   H307      1.0  0.46240  0.18500  0.13550  1.0000 0.1470272259
H   H308      1.0  0.46240  0.81500  0.36450  1.0000 0.1390268767
H   H309      1.0  0.96240  0.68500  0.86450  1.0000 0.1390268767
H   H310      1.0  0.96240  0.31500  0.63550  1.0000 0.1390268767
H   H311      1.0  0.53760  0.81500  0.86450  1.0000 0.1390268767
H   H312      1.0  0.53760  0.18500  0.63550  1.0000 0.1390268767
H   H313      1.0  0.84250  0.30440  0.20860  1.0000 0.1306711571
H   H314      1.0  0.84250  0.69560  0.29140  1.0000 0.1306711571
H   H315      1.0  0.65750  0.19560  0.20860  1.0000 0.1306711571
H   H316      1.0  0.65750  0.80440  0.29140  1.0000 0.1306711571
H   H317      1.0  0.15750  0.69560  0.79140  1.0000 0.1306711571
H   H318      1.0  0.15750  0.30440  0.70860  1.0000 0.1306711571
H   H319      1.0  0.34250  0.80440  0.79140  1.0000 0.1306711571
H   H320      1.0  0.34250  0.19560  0.70860  1.0000 0.1306711571
H   H321      1.0  0.92820  0.30010  0.21140  1.0000 0.1390268767
H   H322      1.0  0.92820  0.69990  0.28860  1.0000 0.1390268767
H   H323      1.0  0.57180  0.19990  0.21140  1.0000 0.1390268767
H   H324      1.0  0.57180  0.80010  0.28860  1.0000 0.1390268767
H   H325      1.0  0.07180  0.69990  0.78860  1.0000 0.1390268767
H   H326      1.0  0.07180  0.30010  0.71140  1.0000 0.1390268767
H   H327      1.0  0.42820  0.80010  0.78860  1.0000 0.1390268767
H   H328      1.0  0.42820  0.19990  0.71140  1.0000 0.1390268767
H   H329      1.0  0.89290  0.33920  0.18610  1.0000 0.1390268767
H   H330      1.0  0.89290  0.66080  0.31390  1.0000 0.1390268767
H   H331      1.0  0.60710  0.16080  0.18610  1.0000 0.1390268767
H   H332      1.0  0.60710  0.83920  0.31390  1.0000 0.1390268767
H   H333      1.0  0.10710  0.66080  0.81390  1.0000 0.1390268767
H   H334      1.0  0.10710  0.33920  0.68610  1.0000 0.1390268767
H   H335      1.0  0.39290  0.83920  0.81390  1.0000 0.1390268767
H   H336      1.0  0.39290  0.16080  0.68610  1.0000 0.1390268767
H   H337      1.0  0.77540  0.16120  0.09590  1.0000 0.1216497863
H   H338      1.0  0.77540  0.83880  0.40410  1.0000 0.1216497863
H   H339      1.0  0.72460  0.33880  0.09590  1.0000 0.1216497863
H   H340      1.0  0.72460  0.66120  0.40410  1.0000 0.1216497863
H   H341      1.0  0.22460  0.83880  0.90410  1.0000 0.1216497863
H   H342      1.0  0.22460  0.16120  0.59590  1.0000 0.1216497863
H   H343      1.0  0.27540  0.66120  0.90410  1.0000 0.1216497863
H   H344      1.0  0.27540  0.33880  0.59590  1.0000 0.1216497863
H   H345      1.0  0.75650  0.15550  0.13630  1.0000 0.1470272259
H   H346      1.0  0.75650  0.84450  0.36370  1.0000 0.1470272259
H   H347      1.0  0.74350  0.34450  0.13630  1.0000 0.1470272259
H   H348      1.0  0.74350  0.65550  0.36370  1.0000 0.1470272259
H   H349      1.0  0.24350  0.84450  0.86370  1.0000 0.1470272259
H   H350      1.0  0.24350  0.15550  0.63630  1.0000 0.1470272259
H   H351      1.0  0.25650  0.65550  0.86370  1.0000 0.1470272259
H   H352      1.0  0.25650  0.34450  0.63630  1.0000 0.1470272259
H   H353      1.0  0.72090  0.19790  0.11410  1.0000 0.1306711571
H   H354      1.0  0.72090  0.80210  0.38590  1.0000 0.1306711571
H   H355      1.0  0.77910  0.30210  0.11410  1.0000 0.1306711571
H   H356      1.0  0.77910  0.69790  0.38590  1.0000 0.1306711571
H   H357      1.0  0.27910  0.80210  0.88590  1.0000 0.1306711571
H   H358      1.0  0.27910  0.19790  0.61410  1.0000 0.1306711571
H   H359      1.0  0.22090  0.69790  0.88590  1.0000 0.1306711571
H   H360      1.0  0.22090  0.30210  0.61410  1.0000 0.1306711571
H   H361      1.0  0.93710  0.18120  0.05910  1.0000 0.1470272259
H   H362      1.0  0.93710  0.81880  0.44090  1.0000 0.1470272259
H   H363      1.0  0.56290  0.31880  0.05910  1.0000 0.1470272259
H   H364      1.0  0.56290  0.68120  0.44090  1.0000 0.1470272259
H   H365      1.0  0.06290  0.81880  0.94090  1.0000 0.1470272259
H   H366      1.0  0.06290  0.18120  0.55910  1.0000 0.1470272259
H   H367      1.0  0.43710  0.68120  0.94090  1.0000 0.1470272259
H   H368      1.0  0.43710  0.31880  0.55910  1.0000 0.1470272259
H   H369      1.0  0.88200  0.14440  0.07670  1.0000 0.1390268767
H   H370      1.0  0.88200  0.85560  0.42330  1.0000 0.1390268767
H   H371      1.0  0.61800  0.35560  0.07670  1.0000 0.1390268767
H   H372      1.0  0.61800  0.64440  0.42330  1.0000 0.1390268767
H   H373      1.0  0.11800  0.85560  0.92330  1.0000 0.1390268767
H   H374      1.0  0.11800  0.14440  0.57670  1.0000 0.1390268767
H   H375      1.0  0.38200  0.64440  0.92330  1.0000 0.1390268767
H   H376      1.0  0.38200  0.35560  0.57670  1.0000 0.1390268767
H   H377      1.0  0.85230  0.18920  0.05500  1.0000 0.1390268767
H   H378      1.0  0.85230  0.81080  0.44500  1.0000 0.1390268767
H   H379      1.0  0.64770  0.31080  0.05500  1.0000 0.1390268767
H   H380      1.0  0.64770  0.68920  0.44500  1.0000 0.1390268767
H   H381      1.0  0.14770  0.81080  0.94500  1.0000 0.1390268767
H   H382      1.0  0.14770  0.18920  0.55500  1.0000 0.1390268767
H   H383      1.0  0.35230  0.68920  0.94500  1.0000 0.1390268767
H   H384      1.0  0.35230  0.31080  0.55500  1.0000 0.1390268767
H   H385      1.0  0.70000  0.33210  0.19400  1.0000 0.1216497863
H   H386      1.0  0.70000  0.66790  0.30600  1.0000 0.1216497863
H   H387      1.0  0.80000  0.16790  0.19400  1.0000 0.1216497863
H   H388      1.0  0.80000  0.83210  0.30600  1.0000 0.1216497863
H   H389      1.0  0.30000  0.66790  0.80600  1.0000 0.1216497863
H   H390      1.0  0.30000  0.33210  0.69400  1.0000 0.1216497863
H   H391      1.0  0.20000  0.83210  0.80600  1.0000 0.1216497863
H   H392      1.0  0.20000  0.16790  0.69400  1.0000 0.1216497863
H   H393      1.0  0.64850  0.34400  0.22630  1.0000 0.1306711571
H   H394      1.0  0.64850  0.65600  0.27370  1.0000 0.1306711571
H   H395      1.0  0.85150  0.15600  0.22630  1.0000 0.1306711571
H   H396      1.0  0.85150  0.84400  0.27370  1.0000 0.1306711571
H   H397      1.0  0.35150  0.65600  0.77370  1.0000 0.1306711571
H   H398      1.0  0.35150  0.34400  0.72630  1.0000 0.1306711571
H   H399      1.0  0.14850  0.84400  0.77370  1.0000 0.1306711571
H   H400      1.0  0.14850  0.15600  0.72630  1.0000 0.1306711571
H   H401      1.0  0.72880  0.36460  0.22550  1.0000 0.1306711571
H   H402      1.0  0.72880  0.63540  0.27450  1.0000 0.1306711571
H   H403      1.0  0.77120  0.13540  0.22550  1.0000 0.1306711571
H   H404      1.0  0.77120  0.86460  0.27450  1.0000 0.1306711571
H   H405      1.0  0.27120  0.63540  0.77450  1.0000 0.1306711571
H   H406      1.0  0.27120  0.36460  0.72550  1.0000 0.1306711571
H   H407      1.0  0.22880  0.86460  0.77450  1.0000 0.1306711571
H   H408      1.0  0.22880  0.13540  0.72550  1.0000 0.1306711571
H   H409      1.0  0.70830  0.33120  0.32120  1.0000 0.1306711571
H   H410      1.0  0.70830  0.66880  0.17880  1.0000 0.1306711571
H   H411      1.0  0.79170  0.16880  0.32120  1.0000 0.1306711571
H   H412      1.0  0.79170  0.83120  0.17880  1.0000 0.1306711571
H   H413      1.0  0.29170  0.66880  0.67880  1.0000 0.1306711571
H   H414      1.0  0.29170  0.33120  0.82120  1.0000 0.1306711571
H   H415      1.0  0.20830  0.83120  0.67880  1.0000 0.1306711571
H   H416      1.0  0.20830  0.16880  0.82120  1.0000 0.1306711571
H   H417      1.0  0.73550  0.36420  0.28970  1.0000 0.1306711571
H   H418      1.0  0.73550  0.63580  0.21030  1.0000 0.1306711571
H   H419      1.0  0.76450  0.13580  0.28970  1.0000 0.1306711571
H   H420      1.0  0.76450  0.86420  0.21030  1.0000 0.1306711571
H   H421      1.0  0.26450  0.63580  0.71030  1.0000 0.1306711571
H   H422      1.0  0.26450  0.36420  0.78970  1.0000 0.1306711571
H   H423      1.0  0.23550  0.86420  0.71030  1.0000 0.1306711571
H   H424      1.0  0.23550  0.13580  0.78970  1.0000 0.1306711571
H   H425      1.0  0.65420  0.34550  0.29050  1.0000 0.1216497863
H   H426      1.0  0.65420  0.65450  0.20950  1.0000 0.1216497863
H   H427      1.0  0.84580  0.15450  0.29050  1.0000 0.1216497863
H   H428      1.0  0.84580  0.84550  0.20950  1.0000 0.1216497863
H   H429      1.0  0.34580  0.65450  0.70950  1.0000 0.1216497863
H   H430      1.0  0.34580  0.34550  0.79050  1.0000 0.1216497863
H   H431      1.0  0.15420  0.84550  0.70950  1.0000 0.1216497863
H   H432      1.0  0.15420  0.15450  0.79050  1.0000 0.1216497863
H   H433      1.0  0.29780  0.16940  0.24080  1.0000 0.1216497863
H   H434      1.0  0.29780  0.83060  0.25920  1.0000 0.1216497863
H   H435      1.0  0.20220  0.33060  0.24080  1.0000 0.1216497863
H   H436      1.0  0.20220  0.66940  0.25920  1.0000 0.1216497863
H   H437      1.0  0.70220  0.83060  0.75920  1.0000 0.1216497863
H   H438      1.0  0.70220  0.16940  0.74080  1.0000 0.1216497863
H   H439      1.0  0.79780  0.66940  0.75920  1.0000 0.1216497863
H   H440      1.0  0.79780  0.33060  0.74080  1.0000 0.1216497863
H   H441      1.0  0.26860  0.13560  0.21020  1.0000 0.1306711571
H   H442      1.0  0.26860  0.86440  0.28980  1.0000 0.1306711571
H   H443      1.0  0.23140  0.36440  0.21020  1.0000 0.1306711571
H   H444      1.0  0.23140  0.63560  0.28980  1.0000 0.1306711571
H   H445      1.0  0.73140  0.86440  0.78980  1.0000 0.1306711571
H   H446      1.0  0.73140  0.13560  0.71020  1.0000 0.1306711571
H   H447      1.0  0.76860  0.63560  0.78980  1.0000 0.1306711571
H   H448      1.0  0.76860  0.36440  0.71020  1.0000 0.1306711571
H   H449      1.0  0.34970  0.15490  0.20930  1.0000 0.1306711571
H   H450      1.0  0.34970  0.84510  0.29070  1.0000 0.1306711571
H   H451      1.0  0.15030  0.34510  0.20930  1.0000 0.1306711571
H   H452      1.0  0.15030  0.65490  0.29070  1.0000 0.1306711571
H   H453      1.0  0.65030  0.84510  0.79070  1.0000 0.1306711571
H   H454      1.0  0.65030  0.15490  0.70930  1.0000 0.1306711571
H   H455      1.0  0.84970  0.65490  0.79070  1.0000 0.1306711571
H   H456      1.0  0.84970  0.34510  0.70930  1.0000 0.1306711571
H   H457      1.0  0.29060  0.17200  0.11060  1.0000 0.1470272259
H   H458      1.0  0.29060  0.82800  0.38940  1.0000 0.1470272259
H   H459      1.0  0.20940  0.32800  0.11060  1.0000 0.1470272259
H   H460      1.0  0.20940  0.67200  0.38940  1.0000 0.1470272259
H   H461      1.0  0.70940  0.82800  0.88940  1.0000 0.1470272259
H   H462      1.0  0.70940  0.17200  0.61060  1.0000 0.1470272259
H   H463      1.0  0.79060  0.67200  0.88940  1.0000 0.1470272259
H   H464      1.0  0.79060  0.32800  0.61060  1.0000 0.1470272259
H   H465      1.0  0.34650  0.15660  0.14020  1.0000 0.1306711571
H   H466      1.0  0.34650  0.84340  0.35980  1.0000 0.1306711571
H   H467      1.0  0.15350  0.34340  0.14020  1.0000 0.1306711571
H   H468      1.0  0.15350  0.65660  0.35980  1.0000 0.1306711571
H   H469      1.0  0.65350  0.84340  0.85980  1.0000 0.1306711571
H   H470      1.0  0.65350  0.15660  0.64020  1.0000 0.1306711571
H   H471      1.0  0.84650  0.65660  0.85980  1.0000 0.1306711571
H   H472      1.0  0.84650  0.34340  0.64020  1.0000 0.1306711571
H   H473      1.0  0.26580  0.13670  0.14120  1.0000 0.1306711571
H   H474      1.0  0.26580  0.86330  0.35880  1.0000 0.1306711571
H   H475      1.0  0.23420  0.36330  0.14120  1.0000 0.1306711571
H   H476      1.0  0.23420  0.63670  0.35880  1.0000 0.1306711571
H   H477      1.0  0.73420  0.86330  0.85880  1.0000 0.1306711571
H   H478      1.0  0.73420  0.13670  0.64120  1.0000 0.1306711571
H   H479      1.0  0.76580  0.63670  0.85880  1.0000 0.1306711571
H   H480      1.0  0.76580  0.36330  0.64120  1.0000 0.1306711571
H   H481      1.0  0.52220  0.30550  0.26130  1.0000 0.1216497863
H   H482      1.0  0.52220  0.69450  0.23870  1.0000 0.1216497863
H   H483      1.0  0.97780  0.19450  0.26130  1.0000 0.1216497863
H   H484      1.0  0.97780  0.80550  0.23870  1.0000 0.1216497863
H   H485      1.0  0.47780  0.69450  0.73870  1.0000 0.1216497863
H   H486      1.0  0.47780  0.30550  0.76130  1.0000 0.1216497863
H   H487      1.0  0.02220  0.80550  0.73870  1.0000 0.1216497863
H   H488      1.0  0.02220  0.19450  0.76130  1.0000 0.1216497863
H   H489      1.0  0.54120  0.30700  0.30190  1.0000 0.1390268767
H   H490      1.0  0.54120  0.69300  0.19810  1.0000 0.1390268767
H   H491      1.0  0.95880  0.19300  0.30190  1.0000 0.1390268767
H   H492      1.0  0.95880  0.80700  0.19810  1.0000 0.1390268767
H   H493      1.0  0.45880  0.69300  0.69810  1.0000 0.1390268767
H   H494      1.0  0.45880  0.30700  0.80190  1.0000 0.1390268767
H   H495      1.0  0.04120  0.80700  0.69810  1.0000 0.1390268767
H   H496      1.0  0.04120  0.19300  0.80190  1.0000 0.1390268767
H   H497      1.0  0.56180  0.26090  0.27920  1.0000 0.1390268767
H   H498      1.0  0.56180  0.73910  0.22080  1.0000 0.1390268767
H   H499      1.0  0.93820  0.23910  0.27920  1.0000 0.1390268767
H   H500      1.0  0.93820  0.76090  0.22080  1.0000 0.1390268767
H   H501      1.0  0.43820  0.73910  0.72080  1.0000 0.1390268767
H   H502      1.0  0.43820  0.26090  0.77920  1.0000 0.1390268767
H   H503      1.0  0.06180  0.76090  0.72080  1.0000 0.1390268767
H   H504      1.0  0.06180  0.23910  0.77920  1.0000 0.1390268767
H   H505      1.0  0.43940  0.31540  0.23470  1.0000 0.1306711571
H   H506      1.0  0.43940  0.68460  0.26530  1.0000 0.1306711571
H   H507      1.0  0.06060  0.18460  0.23470  1.0000 0.1306711571
H   H508      1.0  0.06060  0.81540  0.26530  1.0000 0.1306711571
H   H509      1.0  0.56060  0.68460  0.76530  1.0000 0.1306711571
H   H510      1.0  0.56060  0.31540  0.73470  1.0000 0.1306711571
H   H511      1.0  0.93940  0.81540  0.76530  1.0000 0.1306711571
H   H512      1.0  0.93940  0.18460  0.73470  1.0000 0.1306711571
H   H513      1.0  0.38220  0.28200  0.21510  1.0000 0.1306711571
H   H514      1.0  0.38220  0.71800  0.28490  1.0000 0.1306711571
H   H515      1.0  0.11780  0.21800  0.21510  1.0000 0.1306711571
H   H516      1.0  0.11780  0.78200  0.28490  1.0000 0.1306711571
H   H517      1.0  0.61780  0.71800  0.78490  1.0000 0.1306711571
H   H518      1.0  0.61780  0.28200  0.71510  1.0000 0.1306711571
H   H519      1.0  0.88220  0.78200  0.78490  1.0000 0.1306711571
H   H520      1.0  0.88220  0.21800  0.71510  1.0000 0.1306711571
H   H521      1.0  0.35520  0.32550  0.23900  1.0000 0.1306711571
H   H522      1.0  0.35520  0.67450  0.26100  1.0000 0.1306711571
H   H523      1.0  0.14480  0.17450  0.23900  1.0000 0.1306711571
H   H524      1.0  0.14480  0.82550  0.26100  1.0000 0.1306711571
H   H525      1.0  0.64480  0.67450  0.76100  1.0000 0.1306711571
H   H526      1.0  0.64480  0.32550  0.73900  1.0000 0.1306711571
H   H527      1.0  0.85520  0.82550  0.76100  1.0000 0.1306711571
H   H528      1.0  0.85520  0.17450  0.73900  1.0000 0.1306711571
H   H529      1.0  0.22090  0.18330  0.29900  1.0000 0.1306711571
H   H530      1.0  0.22090  0.81670  0.20100  1.0000 0.1306711571
H   H531      1.0  0.27910  0.31670  0.29900  1.0000 0.1306711571
H   H532      1.0  0.27910  0.68330  0.20100  1.0000 0.1306711571
H   H533      1.0  0.77910  0.81670  0.70100  1.0000 0.1306711571
H   H534      1.0  0.77910  0.18330  0.79900  1.0000 0.1306711571
H   H535      1.0  0.72090  0.68330  0.70100  1.0000 0.1306711571
H   H536      1.0  0.72090  0.31670  0.79900  1.0000 0.1306711571
H   H537      1.0  0.27440  0.14450  0.31540  1.0000 0.1470272259
H   H538      1.0  0.27440  0.85550  0.18460  1.0000 0.1470272259
H   H539      1.0  0.22560  0.35550  0.31540  1.0000 0.1470272259
H   H540      1.0  0.22560  0.64450  0.18460  1.0000 0.1470272259
H   H541      1.0  0.72560  0.85550  0.68460  1.0000 0.1470272259
H   H542      1.0  0.72560  0.14450  0.81540  1.0000 0.1470272259
H   H543      1.0  0.77440  0.64450  0.68460  1.0000 0.1470272259
H   H544      1.0  0.77440  0.35550  0.81540  1.0000 0.1470272259
H   H545      1.0  0.24100  0.18580  0.33940  1.0000 0.1390268767
H   H546      1.0  0.24100  0.81420  0.16060  1.0000 0.1390268767
H   H547      1.0  0.25900  0.31420  0.33940  1.0000 0.1390268767
H   H548      1.0  0.25900  0.68580  0.16060  1.0000 0.1390268767
H   H549      1.0  0.75900  0.81420  0.66060  1.0000 0.1390268767
H   H550      1.0  0.75900  0.18580  0.83940  1.0000 0.1390268767
H   H551      1.0  0.74100  0.68580  0.66060  1.0000 0.1390268767
H   H552      1.0  0.74100  0.31420  0.83940  1.0000 0.1390268767
H   H553      1.0  0.33560  0.16150  0.36580  1.0000 0.1216497863
H   H554      1.0  0.33560  0.83850  0.13420  1.0000 0.1216497863
H   H555      1.0  0.16440  0.33850  0.36580  1.0000 0.1216497863
H   H556      1.0  0.16440  0.66150  0.13420  1.0000 0.1216497863
H   H557      1.0  0.66440  0.83850  0.63420  1.0000 0.1216497863
H   H558      1.0  0.66440  0.16150  0.86580  1.0000 0.1216497863
H   H559      1.0  0.83560  0.66150  0.63420  1.0000 0.1216497863
H   H560      1.0  0.83560  0.33850  0.86580  1.0000 0.1216497863
H   H561      1.0  0.42040  0.15290  0.36260  1.0000 0.1470272259
H   H562      1.0  0.42040  0.84710  0.13740  1.0000 0.1470272259
H   H563      1.0  0.07960  0.34710  0.36260  1.0000 0.1470272259
H   H564      1.0  0.07960  0.65290  0.13740  1.0000 0.1470272259
H   H565      1.0  0.57960  0.84710  0.63740  1.0000 0.1470272259
H   H566      1.0  0.57960  0.15290  0.86260  1.0000 0.1470272259
H   H567      1.0  0.92040  0.65290  0.63740  1.0000 0.1470272259
H   H568      1.0  0.92040  0.34710  0.86260  1.0000 0.1470272259
H   H569      1.0  0.39050  0.19820  0.38390  1.0000 0.1390268767
H   H570      1.0  0.39050  0.80180  0.11610  1.0000 0.1390268767
H   H571      1.0  0.10950  0.30180  0.38390  1.0000 0.1390268767
H   H572      1.0  0.10950  0.69820  0.11610  1.0000 0.1390268767
H   H573      1.0  0.60950  0.80180  0.61610  1.0000 0.1390268767
H   H574      1.0  0.60950  0.19820  0.88390  1.0000 0.1390268767
H   H575      1.0  0.89050  0.69820  0.61610  1.0000 0.1390268767
H   H576      1.0  0.89050  0.30180  0.88390  1.0000 0.1390268767
C   C1        1.0  0.01840  0.32110  0.96730  1.0000 0.6419493127
C   C2        1.0  0.01840  0.67890  0.53270  1.0000 0.6419493127
C   C3        1.0  0.48160  0.17890  0.96730  1.0000 0.6419493127
C   C4        1.0  0.48160  0.82110  0.53270  1.0000 0.6419493127
C   C5        1.0  0.98160  0.67890  0.03270  1.0000 0.6419493127
C   C6        1.0  0.98160  0.32110  0.46730  1.0000 0.6419493127
C   C7        1.0  0.51840  0.82110  0.03270  1.0000 0.6419493127
C   C8        1.0  0.51840  0.17890  0.46730  1.0000 0.6419493127
C   C9        1.0  0.94800  0.35117  0.96697  1.0000 -0.1315667611
C   C10       1.0  0.94800  0.64883  0.53303  1.0000 -0.1315667611
C   C11       1.0  0.55200  0.14883  0.96697  1.0000 -0.1315667611
C   C12       1.0  0.55200  0.85117  0.53303  1.0000 -0.1315667611
C   C13       1.0  0.05200  0.64883  0.03303  1.0000 -0.1315667611
C   C14       1.0  0.05200  0.35117  0.46697  1.0000 -0.1315667611
C   C15       1.0  0.44800  0.85117  0.03303  1.0000 -0.1315667611
C   C16       1.0  0.44800  0.14883  0.46697  1.0000 -0.1315667611
C   C17       1.0  0.94140  0.39150  0.94466  1.0000 0.0865004206
C   C18       1.0  0.94140  0.60850  0.55534  1.0000 0.0865004206
C   C19       1.0  0.55860  0.10850  0.94466  1.0000 0.0865004206
C   C20       1.0  0.55860  0.89150  0.55534  1.0000 0.0865004206
C   C21       1.0  0.05860  0.60850  0.05534  1.0000 0.0865004206
C   C22       1.0  0.05860  0.39150  0.44466  1.0000 0.0865004206
C   C23       1.0  0.44140  0.89150  0.05534  1.0000 0.0865004206
C   C24       1.0  0.44140  0.10850  0.44466  1.0000 0.0865004206
C   C25       1.0  0.87820  0.42008  0.94566  1.0000 0.1003741136
C   C26       1.0  0.87820  0.57992  0.55434  1.0000 0.1003741136
C   C27       1.0  0.62180  0.07992  0.94566  1.0000 0.1003741136
C   C28       1.0  0.62180  0.92008  0.55434  1.0000 0.1003741136
C   C29       1.0  0.12180  0.57992  0.05434  1.0000 0.1003741136
C   C30       1.0  0.12180  0.42008  0.44566  1.0000 0.1003741136
C   C31       1.0  0.37820  0.92008  0.05434  1.0000 0.1003741136
C   C32       1.0  0.37820  0.07992  0.44566  1.0000 0.1003741136
C   C33       1.0  0.82170  0.40820  0.96897  1.0000 -0.213430912
C   C34       1.0  0.82170  0.59180  0.53103  1.0000 -0.213430912
C   C35       1.0  0.67830  0.09180  0.96897  1.0000 -0.213430912
C   C36       1.0  0.67830  0.90820  0.53103  1.0000 -0.213430912
C   C37       1.0  0.17830  0.59180  0.03103  1.0000 -0.213430912
C   C38       1.0  0.17830  0.40820  0.46897  1.0000 -0.213430912
C   C39       1.0  0.32170  0.90820  0.03103  1.0000 -0.213430912
C   C40       1.0  0.32170  0.09180  0.46897  1.0000 -0.213430912
C   C41       1.0  0.82830  0.36790  0.99127  1.0000 0.1216497863
C   C42       1.0  0.82830  0.63210  0.50873  1.0000 0.1216497863
C   C43       1.0  0.67170  0.13210  0.99127  1.0000 0.1216497863
C   C44       1.0  0.67170  0.86790  0.50873  1.0000 0.1216497863
C   C45       1.0  0.17170  0.63210  0.00873  1.0000 0.1216497863
C   C46       1.0  0.17170  0.36790  0.49127  1.0000 0.1216497863
C   C47       1.0  0.32830  0.86790  0.00873  1.0000 0.1216497863
C   C48       1.0  0.32830  0.13210  0.49127  1.0000 0.1216497863
C   C49       1.0  0.89150  0.33933  0.99027  1.0000 0.1003741136
C   C50       1.0  0.89150  0.66067  0.50973  1.0000 0.1003741136
C   C51       1.0  0.60850  0.16067  0.99027  1.0000 0.1003741136
C   C52       1.0  0.60850  0.83933  0.50973  1.0000 0.1003741136
C   C53       1.0  0.10850  0.66067  0.00973  1.0000 0.1003741136
C   C54       1.0  0.10850  0.33933  0.49027  1.0000 0.1003741136
C   C55       1.0  0.39150  0.83933  0.00973  1.0000 0.1003741136
C   C56       1.0  0.39150  0.16067  0.49027  1.0000 0.1003741136
C   C57       1.0  0.89460  0.29260  0.01210  1.0000 -0.4509898084
C   C58       1.0  0.89460  0.70740  0.48790  1.0000 -0.4509898084
C   C59       1.0  0.60540  0.20740  0.01210  1.0000 -0.4509898084
C   C60       1.0  0.60540  0.79260  0.48790  1.0000 -0.4509898084
C   C61       1.0  0.10540  0.70740  0.98790  1.0000 -0.4509898084
C   C62       1.0  0.10540  0.29260  0.51210  1.0000 -0.4509898084
C   C63       1.0  0.39460  0.79260  0.98790  1.0000 -0.4509898084
C   C64       1.0  0.39460  0.20740  0.51210  1.0000 -0.4509898084
C   C65       1.0  0.77070  0.35630  0.01940  1.0000 -0.467702685
C   C66       1.0  0.77070  0.64370  0.48060  1.0000 -0.467702685
C   C67       1.0  0.72930  0.14370  0.01940  1.0000 -0.467702685
C   C68       1.0  0.72930  0.85630  0.48060  1.0000 -0.467702685
C   C69       1.0  0.22930  0.64370  0.98060  1.0000 -0.467702685
C   C70       1.0  0.22930  0.35630  0.51940  1.0000 -0.467702685
C   C71       1.0  0.27070  0.85630  0.98060  1.0000 -0.467702685
C   C72       1.0  0.27070  0.14370  0.51940  1.0000 -0.467702685
C   C73       1.0  0.86620  0.46160  0.91810  1.0000 -0.4402707214
C   C74       1.0  0.86620  0.53840  0.58190  1.0000 -0.4402707214
C   C75       1.0  0.63380  0.03840  0.91810  1.0000 -0.4402707214
C   C76       1.0  0.63380  0.96160  0.58190  1.0000 -0.4402707214
C   C77       1.0  0.13380  0.53840  0.08190  1.0000 -0.4402707214
C   C78       1.0  0.13380  0.46160  0.41810  1.0000 -0.4402707214
C   C79       1.0  0.36620  0.96160  0.08190  1.0000 -0.4402707214
C   C80       1.0  0.36620  0.03840  0.41810  1.0000 -0.4402707214
C   C81       1.0  0.00910  0.40600  0.92050  1.0000 -0.4219536372
C   C82       1.0  0.00910  0.59400  0.57950  1.0000 -0.4219536372
C   C83       1.0  0.49090  0.09400  0.92050  1.0000 -0.4219536372
C   C84       1.0  0.49090  0.90600  0.57950  1.0000 -0.4219536372
C   C85       1.0  0.99090  0.59400  0.07950  1.0000 -0.4219536372
C   C86       1.0  0.99090  0.40600  0.42050  1.0000 -0.4219536372
C   C87       1.0  0.50910  0.90600  0.07950  1.0000 -0.4219536372
C   C88       1.0  0.50910  0.09400  0.42050  1.0000 -0.4219536372
C   C89       1.0  0.73440  0.65370  0.97230  1.0000 0.6504820007
C   C90       1.0  0.73440  0.34630  0.52770  1.0000 0.6504820007
C   C91       1.0  0.76560  0.84630  0.97230  1.0000 0.6504820007
C   C92       1.0  0.76560  0.15370  0.52770  1.0000 0.6504820007
C   C93       1.0  0.26560  0.34630  0.02770  1.0000 0.6504820007
C   C94       1.0  0.26560  0.65370  0.47230  1.0000 0.6504820007
C   C95       1.0  0.23440  0.15370  0.02770  1.0000 0.6504820007
C   C96       1.0  0.23440  0.84630  0.47230  1.0000 0.6504820007
C   C97       1.0  0.73580  0.59872  0.97135  1.0000 -0.12251441
C   C98       1.0  0.73580  0.40128  0.52865  1.0000 -0.12251441
C   C99       1.0  0.76420  0.90128  0.97135  1.0000 -0.12251441
C   C100      1.0  0.76420  0.09872  0.52865  1.0000 -0.12251441
C   C101      1.0  0.26420  0.40128  0.02865  1.0000 -0.12251441
C   C102      1.0  0.26420  0.59872  0.47135  1.0000 -0.12251441
C   C103      1.0  0.23580  0.09872  0.02865  1.0000 -0.12251441
C   C104      1.0  0.23580  0.90128  0.47135  1.0000 -0.12251441
C   C105      1.0  0.69980  0.57338  0.94443  1.0000 0.0865004206
C   C106      1.0  0.69980  0.42662  0.55557  1.0000 0.0865004206
C   C107      1.0  0.80020  0.92662  0.94443  1.0000 0.0865004206
C   C108      1.0  0.80020  0.07338  0.55557  1.0000 0.0865004206
C   C109      1.0  0.30020  0.42662  0.05557  1.0000 0.0865004206
C   C110      1.0  0.30020  0.57338  0.44443  1.0000 0.0865004206
C   C111      1.0  0.19980  0.07338  0.05557  1.0000 0.0865004206
C   C112      1.0  0.19980  0.92662  0.44443  1.0000 0.0865004206
C   C113      1.0  0.70270  0.52249  0.94339  1.0000 0.1003741136
C   C114      1.0  0.70270  0.47751  0.55661  1.0000 0.1003741136
C   C115      1.0  0.79730  0.97751  0.94339  1.0000 0.1003741136
C   C116      1.0  0.79730  0.02249  0.55661  1.0000 0.1003741136
C   C117      1.0  0.29730  0.47751  0.05661  1.0000 0.1003741136
C   C118      1.0  0.29730  0.52249  0.44339  1.0000 0.1003741136
C   C119      1.0  0.20270  0.02249  0.05661  1.0000 0.1003741136
C   C120      1.0  0.20270  0.97751  0.44339  1.0000 0.1003741136
C   C121      1.0  0.74150  0.49695  0.96926  1.0000 -0.2164614713
C   C122      1.0  0.74150  0.50305  0.53074  1.0000 -0.2164614713
C   C123      1.0  0.75850  0.00305  0.96926  1.0000 -0.2164614713
C   C124      1.0  0.75850  0.99695  0.53074  1.0000 -0.2164614713
C   C125      1.0  0.25850  0.50305  0.03074  1.0000 -0.2164614713
C   C126      1.0  0.25850  0.49695  0.46926  1.0000 -0.2164614713
C   C127      1.0  0.24150  0.99695  0.03074  1.0000 -0.2164614713
C   C128      1.0  0.24150  0.00305  0.46926  1.0000 -0.2164614713
C   C129      1.0  0.77740  0.52229  0.99618  1.0000 0.1003741136
C   C130      1.0  0.77740  0.47771  0.50382  1.0000 0.1003741136
C   C131      1.0  0.72260  0.97771  0.99618  1.0000 0.1003741136
C   C132      1.0  0.72260  0.02229  0.50382  1.0000 0.1003741136
C   C133      1.0  0.22260  0.47771  0.00382  1.0000 0.1003741136
C   C134      1.0  0.22260  0.52229  0.49618  1.0000 0.1003741136
C   C135      1.0  0.27740  0.02229  0.00382  1.0000 0.1003741136
C   C136      1.0  0.27740  0.97771  0.49618  1.0000 0.1003741136
C   C137      1.0  0.77460  0.57318  0.99722  1.0000 0.0865004206
C   C138      1.0  0.77460  0.42682  0.50278  1.0000 0.0865004206
C   C139      1.0  0.72540  0.92682  0.99722  1.0000 0.0865004206
C   C140      1.0  0.72540  0.07318  0.50278  1.0000 0.0865004206
C   C141      1.0  0.22540  0.42682  0.00278  1.0000 0.0865004206
C   C142      1.0  0.22540  0.57318  0.49722  1.0000 0.0865004206
C   C143      1.0  0.27460  0.07318  0.00278  1.0000 0.0865004206
C   C144      1.0  0.27460  0.92682  0.49722  1.0000 0.0865004206
C   C145      1.0  0.81200  0.60110  0.02780  1.0000 -0.4219536372
C   C146      1.0  0.81200  0.39890  0.47220  1.0000 -0.4219536372
C   C147      1.0  0.68800  0.89890  0.02780  1.0000 -0.4219536372
C   C148      1.0  0.68800  0.10110  0.47220  1.0000 -0.4219536372
C   C149      1.0  0.18800  0.39890  0.97220  1.0000 -0.4219536372
C   C150      1.0  0.18800  0.60110  0.52780  1.0000 -0.4219536372
C   C151      1.0  0.31200  0.10110  0.97220  1.0000 -0.4219536372
C   C152      1.0  0.31200  0.89890  0.52780  1.0000 -0.4219536372
C   C153      1.0  0.81670  0.49520  0.02620  1.0000 -0.4319232908
C   C154      1.0  0.81670  0.50480  0.47380  1.0000 -0.4319232908
C   C155      1.0  0.68330  0.00480  0.02620  1.0000 -0.4319232908
C   C156      1.0  0.68330  0.99520  0.47380  1.0000 -0.4319232908
C   C157      1.0  0.18330  0.50480  0.97380  1.0000 -0.4319232908
C   C158      1.0  0.18330  0.49520  0.52620  1.0000 -0.4319232908
C   C159      1.0  0.31670  0.99520  0.97380  1.0000 -0.4319232908
C   C160      1.0  0.31670  0.00480  0.52620  1.0000 -0.4319232908
C   C161      1.0  0.66380  0.49620  0.91310  1.0000 -0.4509898084
C   C162      1.0  0.66380  0.50380  0.58690  1.0000 -0.4509898084
C   C163      1.0  0.83620  0.00380  0.91310  1.0000 -0.4509898084
C   C164      1.0  0.83620  0.99620  0.58690  1.0000 -0.4509898084
C   C165      1.0  0.33620  0.50380  0.08690  1.0000 -0.4509898084
C   C166      1.0  0.33620  0.49620  0.41310  1.0000 -0.4509898084
C   C167      1.0  0.16380  0.99620  0.08690  1.0000 -0.4509898084
C   C168      1.0  0.16380  0.00380  0.41310  1.0000 -0.4509898084
C   C169      1.0  0.65650  0.60130  0.91640  1.0000 -0.4402707214
C   C170      1.0  0.65650  0.39870  0.58360  1.0000 -0.4402707214
C   C171      1.0  0.84350  0.89870  0.91640  1.0000 -0.4402707214
C   C172      1.0  0.84350  0.10130  0.58360  1.0000 -0.4402707214
C   C173      1.0  0.34350  0.39870  0.08360  1.0000 -0.4402707214
C   C174      1.0  0.34350  0.60130  0.41640  1.0000 -0.4402707214
C   C175      1.0  0.15650  0.10130  0.08360  1.0000 -0.4402707214
C   C176      1.0  0.15650  0.89870  0.41640  1.0000 -0.4402707214
C   C177      1.0  0.48260  0.31070  0.96750  1.0000 0.6620467124
C   C178      1.0  0.48260  0.68930  0.53250  1.0000 0.6620467124
C   C179      1.0  0.01740  0.18930  0.96750  1.0000 0.6620467124
C   C180      1.0  0.01740  0.81070  0.53250  1.0000 0.6620467124
C   C181      1.0  0.51740  0.68930  0.03250  1.0000 0.6620467124
C   C182      1.0  0.51740  0.31070  0.46750  1.0000 0.6620467124
C   C183      1.0  0.98260  0.81070  0.03250  1.0000 0.6620467124
C   C184      1.0  0.98260  0.18930  0.46750  1.0000 0.6620467124
C   C185      1.0  0.54760  0.34437  0.96761  1.0000 -0.1413814159
C   C186      1.0  0.54760  0.65563  0.53239  1.0000 -0.1413814159
C   C187      1.0  0.95240  0.15563  0.96761  1.0000 -0.1413814159
C   C188      1.0  0.95240  0.84437  0.53239  1.0000 -0.1413814159
C   C189      1.0  0.45240  0.65563  0.03239  1.0000 -0.1413814159
C   C190      1.0  0.45240  0.34437  0.46761  1.0000 -0.1413814159
C   C191      1.0  0.04760  0.84437  0.03239  1.0000 -0.1413814159
C   C192      1.0  0.04760  0.15563  0.46761  1.0000 -0.1413814159
C   C193      1.0  0.54940  0.38570  0.98923  1.0000 0.1003741136
C   C194      1.0  0.54940  0.61430  0.51077  1.0000 0.1003741136
C   C195      1.0  0.95060  0.11430  0.98923  1.0000 0.1003741136
C   C196      1.0  0.95060  0.88570  0.51077  1.0000 0.1003741136
C   C197      1.0  0.45060  0.61430  0.01077  1.0000 0.1003741136
C   C198      1.0  0.45060  0.38570  0.48923  1.0000 0.1003741136
C   C199      1.0  0.04940  0.88570  0.01077  1.0000 0.1003741136
C   C200      1.0  0.04940  0.11430  0.48923  1.0000 0.1003741136
C   C201      1.0  0.61020  0.41651  0.98860  1.0000 0.1087079407
C   C202      1.0  0.61020  0.58349  0.51140  1.0000 0.1087079407
C   C203      1.0  0.88980  0.08349  0.98860  1.0000 0.1087079407
C   C204      1.0  0.88980  0.91651  0.51140  1.0000 0.1087079407
C   C205      1.0  0.38980  0.58349  0.01140  1.0000 0.1003741136
C   C206      1.0  0.38980  0.41651  0.48860  1.0000 0.1087079407
C   C207      1.0  0.11020  0.91651  0.01140  1.0000 0.1087079407
C   C208      1.0  0.11020  0.08349  0.48860  1.0000 0.1087079407
C   C209      1.0  0.66900  0.40606  0.96636  1.0000 -0.213430912
C   C210      1.0  0.66900  0.59394  0.53364  1.0000 -0.213430912
C   C211      1.0  0.83100  0.09394  0.96636  1.0000 -0.213430912
C   C212      1.0  0.83100  0.90606  0.53364  1.0000 -0.213430912
C   C213      1.0  0.33100  0.59394  0.03364  1.0000 -0.213430912
C   C214      1.0  0.33100  0.40606  0.46636  1.0000 -0.213430912
C   C215      1.0  0.16900  0.90606  0.03364  1.0000 -0.213430912
C   C216      1.0  0.16900  0.09394  0.46636  1.0000 -0.213430912
C   C217      1.0  0.66720  0.36480  0.94474  1.0000 0.1216497863
C   C218      1.0  0.66720  0.63520  0.55526  1.0000 0.1216497863
C   C219      1.0  0.83280  0.13520  0.94474  1.0000 0.1216497863
C   C220      1.0  0.83280  0.86480  0.55526  1.0000 0.1216497863
C   C221      1.0  0.33280  0.63520  0.05526  1.0000 0.1216497863
C   C222      1.0  0.33280  0.36480  0.44474  1.0000 0.1216497863
C   C223      1.0  0.16720  0.86480  0.05526  1.0000 0.1216497863
C   C224      1.0  0.16720  0.13520  0.44474  1.0000 0.1216497863
C   C225      1.0  0.60650  0.33392  0.94536  1.0000 0.1003741136
C   C226      1.0  0.60650  0.66608  0.55464  1.0000 0.1003741136
C   C227      1.0  0.89350  0.16608  0.94536  1.0000 0.1003741136
C   C228      1.0  0.89350  0.83392  0.55464  1.0000 0.1003741136
C   C229      1.0  0.39350  0.66608  0.05464  1.0000 0.1003741136
C   C230      1.0  0.39350  0.33392  0.44536  1.0000 0.1003741136
C   C231      1.0  0.10650  0.83392  0.05464  1.0000 0.1003741136
C   C232      1.0  0.10650  0.16608  0.44536  1.0000 0.1003741136
C   C233      1.0  0.60860  0.28580  0.92430  1.0000 -0.4402707214
C   C234      1.0  0.60860  0.71420  0.57570  1.0000 -0.4402707214
C   C235      1.0  0.89140  0.21420  0.92430  1.0000 -0.4402707214
C   C236      1.0  0.89140  0.78580  0.57570  1.0000 -0.4402707214
C   C237      1.0  0.39140  0.71420  0.07570  1.0000 -0.4402707214
C   C238      1.0  0.39140  0.28580  0.42430  1.0000 -0.4402707214
C   C239      1.0  0.10860  0.78580  0.07570  1.0000 -0.4402707214
C   C240      1.0  0.10860  0.21420  0.42430  1.0000 -0.4402707214
C   C241      1.0  0.72620  0.35450  0.91660  1.0000 -0.4601008333
C   C242      1.0  0.72620  0.64550  0.58340  1.0000 -0.4601008333
C   C243      1.0  0.77380  0.14550  0.91660  1.0000 -0.4601008333
C   C244      1.0  0.77380  0.85450  0.58340  1.0000 -0.4601008333
C   C245      1.0  0.27380  0.64550  0.08340  1.0000 -0.4601008333
C   C246      1.0  0.27380  0.35450  0.41660  1.0000 -0.4601008333
C   C247      1.0  0.22620  0.85450  0.08340  1.0000 -0.4601008333
C   C248      1.0  0.22620  0.14550  0.41660  1.0000 -0.4601008333
C   C249      1.0  0.61480  0.45990  0.01530  1.0000 -0.4601008333
C   C250      1.0  0.61480  0.54010  0.48470  1.0000 -0.4601008333
C   C251      1.0  0.88520  0.04010  0.01530  1.0000 -0.4601008333
C   C252      1.0  0.88520  0.95990  0.48470  1.0000 -0.4601008333
C   C253      1.0  0.38520  0.54010  0.98470  1.0000 -0.4601008333
C   C254      1.0  0.38520  0.45990  0.51530  1.0000 -0.4601008333
C   C255      1.0  0.11480  0.95990  0.98470  1.0000 -0.4601008333
C   C256      1.0  0.11480  0.04010  0.51530  1.0000 -0.4601008333
C   C257      1.0  0.01280  0.23730  0.08880  1.0000 0.5536947268
C   C258      1.0  0.01280  0.76270  0.41120  1.0000 0.5536947268
C   C259      1.0  0.48720  0.26270  0.08880  1.0000 0.5536947268
C   C260      1.0  0.48720  0.73730  0.41120  1.0000 0.5536947268
C   C261      1.0  0.98720  0.76270  0.91120  1.0000 0.5536947268
C   C262      1.0  0.98720  0.23730  0.58880  1.0000 0.5536947268
C   C263      1.0  0.51280  0.73730  0.91120  1.0000 0.5536947268
C   C264      1.0  0.51280  0.26270  0.58880  1.0000 0.5536947268
C   C265      1.0  0.47940  0.39770  0.01140  1.0000 -0.4402707214
C   C266      1.0  0.47940  0.60230  0.48860  1.0000 -0.4402707214
C   C267      1.0  0.02060  0.10230  0.01140  1.0000 -0.4402707214
C   C268      1.0  0.02060  0.89770  0.48860  1.0000 -0.4402707214
C   C269      1.0  0.52060  0.60230  0.98860  1.0000 -0.4402707214
C   C270      1.0  0.52060  0.39770  0.51140  1.0000 -0.4402707214
C   C271      1.0  0.97940  0.89770  0.98860  1.0000 -0.4402707214
C   C272      1.0  0.97940  0.10230  0.51140  1.0000 -0.4402707214
C   C273      1.0  0.95110  0.23800  0.11400  1.0000 -0.1555167419
C   C274      1.0  0.95110  0.76200  0.38600  1.0000 -0.1555167419
C   C275      1.0  0.54890  0.26200  0.11400  1.0000 -0.1555167419
C   C276      1.0  0.54890  0.73800  0.38600  1.0000 -0.1555167419
C   C277      1.0  0.04890  0.76200  0.88600  1.0000 -0.1555167419
C   C278      1.0  0.04890  0.23800  0.61400  1.0000 -0.1555167419
C   C279      1.0  0.45110  0.73800  0.88600  1.0000 -0.1555167419
C   C280      1.0  0.45110  0.26200  0.61400  1.0000 -0.1555167419
C   C281      1.0  0.89000  0.20990  0.10543  1.0000 0.1087079407
C   C282      1.0  0.89000  0.79010  0.39457  1.0000 0.1087079407
C   C283      1.0  0.61000  0.29010  0.10543  1.0000 0.1087079407
C   C284      1.0  0.61000  0.70990  0.39457  1.0000 0.1087079407
C   C285      1.0  0.11000  0.79010  0.89457  1.0000 0.1087079407
C   C286      1.0  0.11000  0.20990  0.60543  1.0000 0.1087079407
C   C287      1.0  0.39000  0.70990  0.89457  1.0000 0.1087079407
C   C288      1.0  0.39000  0.29010  0.60543  1.0000 0.1087079407
C   C289      1.0  0.82780  0.21160  0.12680  1.0000 0.1003741136
C   C290      1.0  0.82780  0.78840  0.37320  1.0000 0.1003741136
C   C291      1.0  0.67220  0.28840  0.12680  1.0000 0.1003741136
C   C292      1.0  0.67220  0.71160  0.37320  1.0000 0.1003741136
C   C293      1.0  0.17220  0.78840  0.87320  1.0000 0.1003741136
C   C294      1.0  0.17220  0.21160  0.62680  1.0000 0.1003741136
C   C295      1.0  0.32780  0.71160  0.87320  1.0000 0.1003741136
C   C296      1.0  0.32780  0.28840  0.62680  1.0000 0.1003741136
C   C297      1.0  0.82680  0.24130  0.15681  1.0000 -0.2164614713
C   C298      1.0  0.82680  0.75870  0.34319  1.0000 -0.2164614713
C   C299      1.0  0.67320  0.25870  0.15681  1.0000 -0.2164614713
C   C300      1.0  0.67320  0.74130  0.34319  1.0000 -0.2164614713
C   C301      1.0  0.17320  0.75870  0.84319  1.0000 -0.2164614713
C   C302      1.0  0.17320  0.24130  0.65681  1.0000 -0.2164614713
C   C303      1.0  0.32680  0.74130  0.84319  1.0000 -0.2164614713
C   C304      1.0  0.32680  0.25870  0.65681  1.0000 -0.2164614713
C   C305      1.0  0.88790  0.26950  0.16541  1.0000 0.1003741136
C   C306      1.0  0.88790  0.73050  0.33459  1.0000 0.1003741136
C   C307      1.0  0.61210  0.23050  0.16541  1.0000 0.1003741136
C   C308      1.0  0.61210  0.76950  0.33459  1.0000 0.1003741136
C   C309      1.0  0.11210  0.73050  0.83459  1.0000 0.1003741136
C   C310      1.0  0.11210  0.26950  0.66541  1.0000 0.1003741136
C   C311      1.0  0.38790  0.76950  0.83459  1.0000 0.1003741136
C   C312      1.0  0.38790  0.23050  0.66541  1.0000 0.1003741136
C   C313      1.0  0.95010  0.26780  0.14400  1.0000 0.1003741136
C   C314      1.0  0.95010  0.73220  0.35600  1.0000 0.1003741136
C   C315      1.0  0.54990  0.23220  0.14400  1.0000 0.1003741136
C   C316      1.0  0.54990  0.76780  0.35600  1.0000 0.1003741136
C   C317      1.0  0.04990  0.73220  0.85600  1.0000 0.1003741136
C   C318      1.0  0.04990  0.26780  0.64400  1.0000 0.1003741136
C   C319      1.0  0.45010  0.76780  0.85600  1.0000 0.1003741136
C   C320      1.0  0.45010  0.23220  0.64400  1.0000 0.1003741136
C   C321      1.0  0.02230  0.29390  0.15450  1.0000 -0.4402707214
C   C322      1.0  0.02230  0.70610  0.34550  1.0000 -0.4402707214
C   C323      1.0  0.47770  0.20610  0.15450  1.0000 -0.4402707214
C   C324      1.0  0.47770  0.79390  0.34550  1.0000 -0.4402707214
C   C325      1.0  0.97770  0.70610  0.84550  1.0000 -0.4402707214
C   C326      1.0  0.97770  0.29390  0.65450  1.0000 -0.4402707214
C   C327      1.0  0.52230  0.79390  0.84550  1.0000 -0.4402707214
C   C328      1.0  0.52230  0.20610  0.65450  1.0000 -0.4402707214
C   C329      1.0  0.88790  0.30680  0.19570  1.0000 -0.4509898084
C   C330      1.0  0.88790  0.69320  0.30430  1.0000 -0.4509898084
C   C331      1.0  0.61210  0.19320  0.19570  1.0000 -0.4509898084
C   C332      1.0  0.61210  0.80680  0.30430  1.0000 -0.4509898084
C   C333      1.0  0.11210  0.69320  0.80430  1.0000 -0.4509898084
C   C334      1.0  0.11210  0.30680  0.69570  1.0000 -0.4509898084
C   C335      1.0  0.38790  0.80680  0.80430  1.0000 -0.4509898084
C   C336      1.0  0.38790  0.19320  0.69570  1.0000 -0.4509898084
C   C337      1.0  0.76440  0.17850  0.11740  1.0000 -0.4601008333
C   C338      1.0  0.76440  0.82150  0.38260  1.0000 -0.4601008333
C   C339      1.0  0.73560  0.32150  0.11740  1.0000 -0.4601008333
C   C340      1.0  0.73560  0.67850  0.38260  1.0000 -0.4601008333
C   C341      1.0  0.23560  0.82150  0.88260  1.0000 -0.4601008333
C   C342      1.0  0.23560  0.17850  0.61740  1.0000 -0.4601008333
C   C343      1.0  0.26440  0.67850  0.88260  1.0000 -0.4601008333
C   C344      1.0  0.26440  0.32150  0.61740  1.0000 -0.4601008333
C   C345      1.0  0.89040  0.17810  0.07070  1.0000 -0.4402707214
C   C346      1.0  0.89040  0.82190  0.42930  1.0000 -0.4402707214
C   C347      1.0  0.60960  0.32190  0.07070  1.0000 -0.4402707214
C   C348      1.0  0.60960  0.67810  0.42930  1.0000 -0.4402707214
C   C349      1.0  0.10960  0.82190  0.92930  1.0000 -0.4402707214
C   C350      1.0  0.10960  0.17810  0.57070  1.0000 -0.4402707214
C   C351      1.0  0.39040  0.67810  0.92930  1.0000 -0.4402707214
C   C352      1.0  0.39040  0.32190  0.57070  1.0000 -0.4402707214
C   C353      1.0  0.75000  0.25000  0.33340  1.0000 0.6620467124
C   C354      1.0  0.75000  0.75000  0.16660  1.0000 0.6620467124
C   C355      1.0  0.25000  0.75000  0.66667  1.0000 0.6620467124
C   C356      1.0  0.25000  0.25000  0.83340  1.0000 0.6620467124
C   C357      1.0  0.75000  0.25000  0.29380  1.0000 -0.1413814159
C   C358      1.0  0.75000  0.75000  0.20620  1.0000 -0.1413814159
C   C359      1.0  0.25000  0.75000  0.70620  1.0000 -0.1413814159
C   C360      1.0  0.25000  0.25000  0.79380  1.0000 -0.1413814159
C   C361      1.0  0.72670  0.29190  0.27570  1.0000 0.0865004206
C   C362      1.0  0.72670  0.70810  0.22430  1.0000 0.0865004206
C   C363      1.0  0.77330  0.20810  0.27570  1.0000 0.0865004206
C   C364      1.0  0.77330  0.79190  0.22430  1.0000 0.0865004206
C   C365      1.0  0.27330  0.70810  0.72430  1.0000 0.0865004206
C   C366      1.0  0.27330  0.29190  0.77570  1.0000 0.0784942493
C   C367      1.0  0.22670  0.79190  0.72430  1.0000 0.0865004206
C   C368      1.0  0.22670  0.20810  0.77570  1.0000 0.0784942493
C   C369      1.0  0.72520  0.29170  0.23830  1.0000 0.1003741136
C   C370      1.0  0.72520  0.70830  0.26170  1.0000 0.1003741136
C   C371      1.0  0.77480  0.20830  0.23830  1.0000 0.1003741136
C   C372      1.0  0.77480  0.79170  0.26170  1.0000 0.1003741136
C   C373      1.0  0.27480  0.70830  0.76170  1.0000 0.1003741136
C   C374      1.0  0.27480  0.29170  0.73830  1.0000 0.1003741136
C   C375      1.0  0.22520  0.79170  0.76170  1.0000 0.1003741136
C   C376      1.0  0.22520  0.20830  0.73830  1.0000 0.1003741136
C   C377      1.0  0.75000  0.25000  0.21980  1.0000 -0.2251821888
C   C378      1.0  0.75000  0.75000  0.28020  1.0000 -0.2164614713
C   C379      1.0  0.25000  0.75000  0.78020  1.0000 -0.2164614713
C   C380      1.0  0.25000  0.25000  0.71980  1.0000 -0.2251821888
C   C381      1.0  0.69810  0.33730  0.21930  1.0000 -0.4402707214
C   C382      1.0  0.69810  0.66270  0.28070  1.0000 -0.4402707214
C   C383      1.0  0.80190  0.16270  0.21930  1.0000 -0.4402707214
C   C384      1.0  0.80190  0.83730  0.28070  1.0000 -0.4402707214
C   C385      1.0  0.30190  0.66270  0.78070  1.0000 -0.4402707214
C   C386      1.0  0.30190  0.33730  0.71930  1.0000 -0.4402707214
C   C387      1.0  0.19810  0.83730  0.78070  1.0000 -0.4402707214
C   C388      1.0  0.19810  0.16270  0.71930  1.0000 -0.4402707214
C   C389      1.0  0.70410  0.33740  0.29620  1.0000 -0.4219536372
C   C390      1.0  0.70410  0.66260  0.20380  1.0000 -0.4219536372
C   C391      1.0  0.79590  0.16260  0.29620  1.0000 -0.4219536372
C   C392      1.0  0.79590  0.83740  0.20380  1.0000 -0.4219536372
C   C393      1.0  0.29590  0.66260  0.70380  1.0000 -0.4219536372
C   C394      1.0  0.29590  0.33740  0.79620  1.0000 -0.4219536372
C   C395      1.0  0.20410  0.83740  0.70380  1.0000 -0.4219536372
C   C396      1.0  0.20410  0.16260  0.79620  1.0000 -0.4219536372
C   C397      1.0  0.25000  0.25000  0.09970  1.0000 0.6250849384
C   C398      1.0  0.25000  0.75000  0.40030  1.0000 0.6250849384
C   C399      1.0  0.75000  0.75000  0.90030  1.0000 0.6248890179
C   C400      1.0  0.75000  0.25000  0.59970  1.0000 0.6250849384
C   C401      1.0  0.25000  0.25000  0.13930  1.0000 -0.1117565614
C   C402      1.0  0.25000  0.75000  0.36070  1.0000 -0.1117565614
C   C403      1.0  0.75000  0.75000  0.86070  1.0000 -0.1117565614
C   C404      1.0  0.75000  0.25000  0.63930  1.0000 -0.1117565614
C   C405      1.0  0.27320  0.20780  0.15740  1.0000 0.0784942493
C   C406      1.0  0.27320  0.79220  0.34260  1.0000 0.0784942493
C   C407      1.0  0.22680  0.29220  0.15740  1.0000 0.0784942493
C   C408      1.0  0.22680  0.70780  0.34260  1.0000 0.0784942493
C   C409      1.0  0.72680  0.79220  0.84260  1.0000 0.0784942493
C   C410      1.0  0.72680  0.20780  0.65740  1.0000 0.0784942493
C   C411      1.0  0.77320  0.70780  0.84260  1.0000 0.0784942493
C   C412      1.0  0.77320  0.29220  0.65740  1.0000 0.0784942493
C   C413      1.0  0.27450  0.20880  0.19470  1.0000 0.1003741136
C   C414      1.0  0.27450  0.79120  0.30530  1.0000 0.1003741136
C   C415      1.0  0.22550  0.29120  0.19470  1.0000 0.1003741136
C   C416      1.0  0.22550  0.70880  0.30530  1.0000 0.1003741136
C   C417      1.0  0.72550  0.79120  0.80530  1.0000 0.1003741136
C   C418      1.0  0.72550  0.20880  0.69470  1.0000 0.1003741136
C   C419      1.0  0.77450  0.70880  0.80530  1.0000 0.1003741136
C   C420      1.0  0.77450  0.29120  0.69470  1.0000 0.1003741136
C   C421      1.0  0.25000  0.25000  0.21360  1.0000 -0.2452662569
C   C422      1.0  0.25000  0.75000  0.28640  1.0000 -0.2452662569
C   C423      1.0  0.75000  0.75000  0.78640  1.0000 -0.2452662569
C   C424      1.0  0.75000  0.25000  0.71360  1.0000 -0.2452662569
C   C425      1.0  0.30010  0.16280  0.21570  1.0000 -0.4509898084
C   C426      1.0  0.30010  0.83720  0.28430  1.0000 -0.4509898084
C   C427      1.0  0.19990  0.33720  0.21570  1.0000 -0.4509898084
C   C428      1.0  0.19990  0.66280  0.28430  1.0000 -0.4509898084
C   C429      1.0  0.69990  0.83720  0.78430  1.0000 -0.4509898084
C   C430      1.0  0.69990  0.16280  0.71570  1.0000 -0.4509898084
C   C431      1.0  0.80010  0.66280  0.78430  1.0000 -0.4509898084
C   C432      1.0  0.80010  0.33720  0.71570  1.0000 -0.4509898084
C   C433      1.0  0.29610  0.16440  0.13540  1.0000 -0.4319232908
C   C434      1.0  0.29610  0.83560  0.36460  1.0000 -0.4402707214
C   C435      1.0  0.20390  0.33560  0.13540  1.0000 -0.4319232908
C   C436      1.0  0.20390  0.66440  0.36460  1.0000 -0.4319232908
C   C437      1.0  0.70390  0.83560  0.86460  1.0000 -0.4402707214
C   C438      1.0  0.70390  0.16440  0.63540  1.0000 -0.4319232908
C   C439      1.0  0.79610  0.66440  0.86460  1.0000 -0.4402707214
C   C440      1.0  0.79610  0.33560  0.63540  1.0000 -0.4319232908
C   C441      1.0  0.51160  0.23880  0.35020  1.0000 0.5554063934
C   C442      1.0  0.51160  0.76120  0.14980  1.0000 0.5554063934
C   C443      1.0  0.98840  0.26120  0.35020  1.0000 0.5554063934
C   C444      1.0  0.98840  0.73880  0.14980  1.0000 0.5554063934
C   C445      1.0  0.48840  0.76120  0.64980  1.0000 0.5554063934
C   C446      1.0  0.48840  0.23880  0.85020  1.0000 0.5554063934
C   C447      1.0  0.01160  0.73880  0.64980  1.0000 0.5554063934
C   C448      1.0  0.01160  0.26120  0.85020  1.0000 0.5554063934
C   C449      1.0  0.44740  0.23400  0.32182  1.0000 -0.0917865132
C   C450      1.0  0.44740  0.76600  0.17818  1.0000 -0.0917865132
C   C451      1.0  0.05260  0.26600  0.32182  1.0000 -0.0917865132
C   C452      1.0  0.05260  0.73400  0.17818  1.0000 -0.0917865132
C   C453      1.0  0.55260  0.76600  0.67818  1.0000 -0.0917865132
C   C454      1.0  0.55260  0.23400  0.82182  1.0000 -0.0917865132
C   C455      1.0  0.94740  0.73400  0.67818  1.0000 -0.0917865132
C   C456      1.0  0.94740  0.26600  0.82182  1.0000 -0.0917865132
C   C457      1.0  0.38400  0.20790  0.32991  1.0000 0.0865004206
C   C458      1.0  0.38400  0.79210  0.17009  1.0000 0.0865004206
C   C459      1.0  0.11600  0.29210  0.32991  1.0000 0.0865004206
C   C460      1.0  0.11600  0.70790  0.17009  1.0000 0.0865004206
C   C461      1.0  0.61600  0.79210  0.67009  1.0000 0.0865004206
C   C462      1.0  0.61600  0.20790  0.82991  1.0000 0.0865004206
C   C463      1.0  0.88400  0.70790  0.67009  1.0000 0.0865004206
C   C464      1.0  0.88400  0.29210  0.82991  1.0000 0.0865004206
C   C465      1.0  0.32330  0.21070  0.30759  1.0000 0.1087079407
C   C466      1.0  0.32330  0.78930  0.19241  1.0000 0.1087079407
C   C467      1.0  0.17670  0.28930  0.30759  1.0000 0.1087079407
C   C468      1.0  0.17670  0.71070  0.19241  1.0000 0.1087079407
C   C469      1.0  0.67670  0.78930  0.69241  1.0000 0.1087079407
C   C470      1.0  0.67670  0.21070  0.80759  1.0000 0.1087079407
C   C471      1.0  0.82330  0.71070  0.69241  1.0000 0.1087079407
C   C472      1.0  0.82330  0.28930  0.80759  1.0000 0.1087079407
C   C473      1.0  0.32600  0.23960  0.27719  1.0000 -0.213430912
C   C474      1.0  0.32600  0.76040  0.22281  1.0000 -0.213430912
C   C475      1.0  0.17400  0.26040  0.27719  1.0000 -0.213430912
C   C476      1.0  0.17400  0.73960  0.22281  1.0000 -0.213430912
C   C477      1.0  0.67400  0.76040  0.72281  1.0000 -0.213430912
C   C478      1.0  0.67400  0.23960  0.77719  1.0000 -0.213430912
C   C479      1.0  0.82600  0.73960  0.72281  1.0000 -0.213430912
C   C480      1.0  0.82600  0.26040  0.77719  1.0000 -0.213430912
C   C481      1.0  0.38940  0.26570  0.26911  1.0000 0.1003741136
C   C482      1.0  0.38940  0.73430  0.23089  1.0000 0.1003741136
C   C483      1.0  0.11060  0.23430  0.26911  1.0000 0.1003741136
C   C484      1.0  0.11060  0.76570  0.23089  1.0000 0.1003741136
C   C485      1.0  0.61060  0.73430  0.73089  1.0000 0.1003741136
C   C486      1.0  0.61060  0.26570  0.76911  1.0000 0.1003741136
C   C487      1.0  0.88940  0.76570  0.73089  1.0000 0.1003741136
C   C488      1.0  0.88940  0.23430  0.76911  1.0000 0.1003741136
C   C489      1.0  0.45000  0.26290  0.29140  1.0000 0.0784942493
C   C490      1.0  0.45000  0.73710  0.20860  1.0000 0.0784942493
C   C491      1.0  0.05000  0.23710  0.29140  1.0000 0.0784942493
C   C492      1.0  0.05000  0.76290  0.20860  1.0000 0.0784942493
C   C493      1.0  0.55000  0.73710  0.70860  1.0000 0.0784942493
C   C494      1.0  0.55000  0.26290  0.79140  1.0000 0.0784942493
C   C495      1.0  0.95000  0.76290  0.70860  1.0000 0.0784942493
C   C496      1.0  0.95000  0.23710  0.79140  1.0000 0.0784942493
C   C497      1.0  0.52620  0.28630  0.28260  1.0000 -0.4219536372
C   C498      1.0  0.52620  0.71370  0.21740  1.0000 -0.4219536372
C   C499      1.0  0.97380  0.21370  0.28260  1.0000 -0.4219536372
C   C500      1.0  0.97380  0.78630  0.21740  1.0000 -0.4219536372
C   C501      1.0  0.47380  0.71370  0.71740  1.0000 -0.4219536372
C   C502      1.0  0.47380  0.28630  0.78260  1.0000 -0.4219536372
C   C503      1.0  0.02620  0.78630  0.71740  1.0000 -0.4219536372
C   C504      1.0  0.02620  0.21370  0.78260  1.0000 -0.4219536372
C   C505      1.0  0.39180  0.30050  0.23640  1.0000 -0.4402707214
C   C506      1.0  0.39180  0.69950  0.26360  1.0000 -0.4402707214
C   C507      1.0  0.10820  0.19950  0.23640  1.0000 -0.4402707214
C   C508      1.0  0.10820  0.80050  0.26360  1.0000 -0.4402707214
C   C509      1.0  0.60820  0.69950  0.76360  1.0000 -0.4402707214
C   C510      1.0  0.60820  0.30050  0.73640  1.0000 -0.4402707214
C   C511      1.0  0.89180  0.80050  0.76360  1.0000 -0.4402707214
C   C512      1.0  0.89180  0.19950  0.73640  1.0000 -0.4402707214
C   C513      1.0  0.25910  0.17810  0.31610  1.0000 -0.4509898084
C   C514      1.0  0.25910  0.82190  0.18390  1.0000 -0.4509898084
C   C515      1.0  0.24090  0.32190  0.31610  1.0000 -0.4509898084
C   C516      1.0  0.24090  0.67810  0.18390  1.0000 -0.4509898084
C   C517      1.0  0.74090  0.82190  0.68390  1.0000 -0.4601008333
C   C518      1.0  0.74090  0.17810  0.81610  1.0000 -0.4509898084
C   C519      1.0  0.75910  0.67810  0.68390  1.0000 -0.4601008333
C   C520      1.0  0.75910  0.32190  0.81610  1.0000 -0.4601008333
C   C521      1.0  0.38250  0.17730  0.36370  1.0000 -0.4319232908
C   C522      1.0  0.38250  0.82270  0.13630  1.0000 -0.4319232908
C   C523      1.0  0.11750  0.32270  0.36370  1.0000 -0.4319232908
C   C524      1.0  0.11750  0.67730  0.13630  1.0000 -0.4319232908
C   C525      1.0  0.61750  0.82270  0.63630  1.0000 -0.4319232908
C   C526      1.0  0.61750  0.17730  0.86370  1.0000 -0.4319232908
C   C527      1.0  0.88250  0.67730  0.63630  1.0000 -0.4402707214
C   C528      1.0  0.88250  0.32270  0.86370  1.0000 -0.4319232908
C   C529      1.0  0.25000  0.25000  0.95510  1.0000 0.839052664
C   C530      1.0  0.25000  0.75000  0.54490  1.0000 0.839052664
C   C531      1.0  0.75000  0.75000  0.04490  1.0000 0.839052664
C   C532      1.0  0.75000  0.25000  0.45510  1.0000 0.839052664
O   O1        1.0  0.05330  0.31770  0.99500  1.0000 -0.6105350834
O   O2        1.0  0.05330  0.68230  0.50500  1.0000 -0.6105350834
O   O3        1.0  0.44670  0.18230  0.99500  1.0000 -0.6105350834
O   O4        1.0  0.44670  0.81770  0.50500  1.0000 -0.6105350834
O   O5        1.0  0.94670  0.68230  0.00500  1.0000 -0.6105350834
O   O6        1.0  0.94670  0.31770  0.49500  1.0000 -0.6105350834
O   O7        1.0  0.55330  0.81770  0.00500  1.0000 -0.6105350834
O   O8        1.0  0.55330  0.18230  0.49500  1.0000 -0.6105350834
O   O9        1.0  0.03530  0.30060  0.93840  1.0000 -0.6630772036
O   O10       1.0  0.03530  0.69940  0.56160  1.0000 -0.6630772036
O   O11       1.0  0.46470  0.19940  0.93840  1.0000 -0.6630772036
O   O12       1.0  0.46470  0.80060  0.56160  1.0000 -0.6630772036
O   O13       1.0  0.96470  0.69940  0.06160  1.0000 -0.6630772036
O   O14       1.0  0.96470  0.30060  0.43840  1.0000 -0.6630772036
O   O15       1.0  0.53530  0.80060  0.06160  1.0000 -0.6630772036
O   O16       1.0  0.53530  0.19940  0.43840  1.0000 -0.6630772036
O   O17       1.0  0.79540  0.67490  0.96680  1.0000 -0.6852207762
O   O18       1.0  0.79540  0.32510  0.53320  1.0000 -0.6852207762
O   O19       1.0  0.70460  0.82510  0.96680  1.0000 -0.6852207762
O   O20       1.0  0.70460  0.17490  0.53320  1.0000 -0.6852207762
O   O21       1.0  0.20460  0.32510  0.03320  1.0000 -0.6852207762
O   O22       1.0  0.20460  0.67490  0.46680  1.0000 -0.6852207762
O   O23       1.0  0.29540  0.17490  0.03320  1.0000 -0.6852207762
O   O24       1.0  0.29540  0.82510  0.46680  1.0000 -0.6852207762
O   O25       1.0  0.67500  0.67410  0.97790  1.0000 -0.6205947381
O   O26       1.0  0.67500  0.32590  0.52210  1.0000 -0.6205947381
O   O27       1.0  0.82500  0.82590  0.97790  1.0000 -0.6205947381
O   O28       1.0  0.82500  0.17410  0.52210  1.0000 -0.6205947381
O   O29       1.0  0.32500  0.32590  0.02210  1.0000 -0.6205947381
O   O30       1.0  0.32500  0.67410  0.47790  1.0000 -0.6205947381
O   O31       1.0  0.17500  0.17410  0.02210  1.0000 -0.6205947381
O   O32       1.0  0.17500  0.82590  0.47790  1.0000 -0.6205947381
O   O33       1.0  0.44670  0.30630  0.93950  1.0000 -0.6465048102
O   O34       1.0  0.44670  0.69370  0.56050  1.0000 -0.6465048102
O   O35       1.0  0.05330  0.19370  0.93950  1.0000 -0.6465048102
O   O36       1.0  0.05330  0.80630  0.56050  1.0000 -0.6465048102
O   O37       1.0  0.55330  0.69370  0.06050  1.0000 -0.6465048102
O   O38       1.0  0.55330  0.30630  0.43950  1.0000 -0.6465048102
O   O39       1.0  0.94670  0.80630  0.06050  1.0000 -0.6465048102
O   O40       1.0  0.94670  0.19370  0.43950  1.0000 -0.6465048102
O   O41       1.0  0.46810  0.28890  0.99629  1.0000 -0.6630772036
O   O42       1.0  0.46810  0.71110  0.50371  1.0000 -0.6630772036
O   O43       1.0  0.03190  0.21110  0.99629  1.0000 -0.6630772036
O   O44       1.0  0.03190  0.78890  0.50371  1.0000 -0.6630772036
O   O45       1.0  0.53190  0.71110  0.00371  1.0000 -0.6630772036
O   O46       1.0  0.53190  0.28890  0.49629  1.0000 -0.6630772036
O   O47       1.0  0.96810  0.78890  0.00371  1.0000 -0.6630772036
O   O48       1.0  0.96810  0.21110  0.49629  1.0000 -0.6630772036
O   O49       1.0  0.03220  0.27770  0.07280  1.0000 -0.5258967263
O   O50       1.0  0.03220  0.72230  0.42720  1.0000 -0.5258967263
O   O51       1.0  0.46780  0.22230  0.07280  1.0000 -0.5258967263
O   O52       1.0  0.46780  0.77770  0.42720  1.0000 -0.5258967263
O   O53       1.0  0.96780  0.72230  0.92720  1.0000 -0.5258967263
O   O54       1.0  0.96780  0.27770  0.57280  1.0000 -0.5258967263
O   O55       1.0  0.53220  0.77770  0.92720  1.0000 -0.5258967263
O   O56       1.0  0.53220  0.22230  0.57280  1.0000 -0.5258967263
O   O57       1.0  0.04230  0.20430  0.07240  1.0000 -0.4319232908
O   O58       1.0  0.04230  0.79570  0.42760  1.0000 -0.4319232908
O   O59       1.0  0.45770  0.29570  0.07240  1.0000 -0.4319232908
O   O60       1.0  0.45770  0.70430  0.42760  1.0000 -0.4319232908
O   O61       1.0  0.95770  0.79570  0.92760  1.0000 -0.4319232908
O   O62       1.0  0.95770  0.20430  0.57240  1.0000 -0.4319232908
O   O63       1.0  0.54230  0.70430  0.92760  1.0000 -0.4319232908
O   O64       1.0  0.54230  0.29570  0.57240  1.0000 -0.4319232908
O   O65       1.0  0.81040  0.25040  0.34890  1.0000 -0.6465048102
O   O66       1.0  0.81040  0.74960  0.15110  1.0000 -0.6465048102
O   O67       1.0  0.68960  0.24960  0.34890  1.0000 -0.6465048102
O   O68       1.0  0.68960  0.75040  0.15110  1.0000 -0.6465048102
O   O69       1.0  0.18960  0.74960  0.65110  1.0000 -0.6465048102
O   O70       1.0  0.18960  0.25040  0.84890  1.0000 -0.6465048102
O   O71       1.0  0.31040  0.75040  0.65110  1.0000 -0.6465048102
O   O72       1.0  0.31040  0.24960  0.84890  1.0000 -0.6465048102
O   O73       1.0  0.19100  0.24190  0.08398  1.0000 -0.6414732319
O   O74       1.0  0.19100  0.75810  0.41602  1.0000 -0.6414732319
O   O75       1.0  0.30900  0.25810  0.08398  1.0000 -0.6414732319
O   O76       1.0  0.30900  0.74190  0.41602  1.0000 -0.6414732319
O   O77       1.0  0.80900  0.75810  0.91602  1.0000 -0.6414732319
O   O78       1.0  0.80900  0.24190  0.58398  1.0000 -0.6414732319
O   O79       1.0  0.69100  0.74190  0.91602  1.0000 -0.6414732319
O   O80       1.0  0.69100  0.25810  0.58398  1.0000 -0.6414732319
O   O81       1.0  0.54440  0.20070  0.35720  1.0000 -0.5745810849
O   O82       1.0  0.54440  0.79930  0.14280  1.0000 -0.5745810849
O   O83       1.0  0.95560  0.29930  0.35720  1.0000 -0.5745810849
O   O84       1.0  0.95560  0.70070  0.14280  1.0000 -0.5745810849
O   O85       1.0  0.45560  0.79930  0.64280  1.0000 -0.5745810849
O   O86       1.0  0.45560  0.20070  0.85720  1.0000 -0.5745810849
O   O87       1.0  0.04440  0.70070  0.64280  1.0000 -0.5745810849
O   O88       1.0  0.04440  0.29930  0.85720  1.0000 -0.5745810849
O   O89       1.0  0.52500  0.27970  0.36280  1.0000 -0.5991352927
O   O90       1.0  0.52500  0.72030  0.13720  1.0000 -0.5991352927
O   O91       1.0  0.97500  0.22030  0.36280  1.0000 -0.5991352927
O   O92       1.0  0.97500  0.77970  0.13720  1.0000 -0.5991352927
O   O93       1.0  0.47500  0.72030  0.63720  1.0000 -0.5991352927
O   O94       1.0  0.47500  0.27970  0.86280  1.0000 -0.5991352927
O   O95       1.0  0.02500  0.77970  0.63720  1.0000 -0.5991352927
O   O96       1.0  0.02500  0.22030  0.86280  1.0000 -0.5991352927
O   O97       1.0  0.18880  0.25550  0.96896  1.0000 -0.7199867126
O   O98       1.0  0.18880  0.74450  0.53104  1.0000 -0.7199867126
O   O99       1.0  0.31120  0.24450  0.96896  1.0000 -0.7199867126
O   O100      1.0  0.31120  0.75550  0.53104  1.0000 -0.7199867126
O   O101      1.0  0.81120  0.74450  0.03104  1.0000 -0.7199867126
O   O102      1.0  0.81120  0.25550  0.46896  1.0000 -0.7199867126
O   O103      1.0  0.68880  0.75550  0.03104  1.0000 -0.7199867126
O   O104      1.0  0.68880  0.24450  0.46896  1.0000 -0.7199867126
O   O105      1.0  0.25000  0.25000  0.92000  1.0000 -0.8399596047
O   O106      1.0  0.25000  0.75000  0.58000  1.0000 -0.8399596047
O   O107      1.0  0.75000  0.75000  0.08000  1.0000 -0.8399596047
O   O108      1.0  0.75000  0.25000  0.42000  1.0000 -0.8399596047
