# DDEC6 charges by PACMAN v1.1 (https://github.com/mtap-research/PACMAN-charge/)
data_2013[ZnCo][flu]3[ASR]1
_chemical_formula_sum              "Zn10 Co4 H88 C168 N24 O54"
_cell_length_a       16.082
_cell_length_b       17.074
_cell_length_c       27.878
_cell_angle_alpha    92.586
_cell_angle_beta     105.969
_cell_angle_gamma    117

_symmetry_space_group_name_H-M    "P 1"
_symmetry_Int_Tables_number       1

loop_
  _symmetry_equiv_pos_as_xyz
  'x, y, z'

loop_
  _atom_site_type_symbol
  _atom_site_label
  _atom_site_symmetry_multiplicity
  _atom_site_fract_x
  _atom_site_fract_y
  _atom_site_fract_z
  _atom_site_occupancy
  _atom_site_charge
Zn  Zn1       1.0  0.41551  0.36207  0.73604  1.0000 0.9620313459
Zn  Zn2       1.0  0.58449  0.63793  0.26396  1.0000 0.9620313459
Zn  Zn3       1.0  0.47203  0.21738  0.79810  1.0000 1.1019422823
Zn  Zn4       1.0  0.52797  0.78262  0.20190  1.0000 1.1019422823
Zn  Zn5       1.0  0.28991  0.23499  0.80717  1.0000 0.9989281707
Zn  Zn6       1.0  0.71009  0.76501  0.19283  1.0000 0.9989281707
Zn  Zn7       1.0  0.35300  0.77531  0.24348  1.0000 0.9424773269
Zn  Zn8       1.0  0.64700  0.22469  0.75652  1.0000 0.9424773269
Zn  Zn9       1.0  0.57437  0.93078  0.31092  1.0000 0.9539587312
Zn  Zn10      1.0  0.42563  0.06922  0.68908  1.0000 0.9539587312
Co  Co1       1.0  0.12351  0.66048  0.87833  1.0000 0.5634056045
Co  Co2       1.0  0.87649  0.33952  0.12167  1.0000 0.5634056045
Co  Co3       1.0  0.25804  0.25439  0.38569  1.0000 0.5634056045
Co  Co4       1.0  0.74196  0.74561  0.61431  1.0000 0.5634056045
H   H1        1.0  0.32040  0.45560  0.88620  1.0000 0.1303164076
H   H2        1.0  0.67960  0.54440  0.11380  1.0000 0.1303164076
H   H3        1.0  0.27190  0.55180  0.91550  1.0000 0.1394571003
H   H4        1.0  0.72810  0.44820  0.08450  1.0000 0.1394571003
H   H5        1.0  0.25840  0.64600  0.78790  1.0000 0.1394571003
H   H6        1.0  0.74160  0.35400  0.21210  1.0000 0.1394571003
H   H7        1.0  0.29160  0.54290  0.75380  1.0000 0.1303164076
H   H8        1.0  0.70840  0.45710  0.24620  1.0000 0.1303164076
H   H9        1.0  0.42730  0.92480  0.96560  1.0000 0.1484977537
H   H10       1.0  0.57270  0.07520  0.03440  1.0000 0.1484977537
H   H11       1.0  0.35770  0.00190  0.99810  1.0000 0.1394571003
H   H12       1.0  0.64230  0.99810  0.00190  1.0000 0.1394571003
H   H13       1.0  0.18340  0.92930  0.97860  1.0000 0.1484977537
H   H14       1.0  0.81660  0.07070  0.02140  1.0000 0.1484977537
H   H15       1.0  0.88240  0.68130  0.81500  1.0000 0.1394571003
H   H16       1.0  0.11760  0.31870  0.18500  1.0000 0.1394571003
H   H17       1.0  0.71610  0.58100  0.78160  1.0000 0.1206928386
H   H18       1.0  0.28390  0.41900  0.21840  1.0000 0.1206928386
H   H19       1.0  0.74730  0.42990  0.88280  1.0000 0.1206928386
H   H20       1.0  0.25270  0.57010  0.11720  1.0000 0.1206928386
H   H21       1.0  0.91750  0.53170  0.91850  1.0000 0.1394571003
H   H22       1.0  0.08250  0.46830  0.08150  1.0000 0.1394571003
H   H23       1.0  0.13490  0.67680  0.08900  1.0000 0.1206928386
H   H24       1.0  0.86510  0.32320  0.91100  1.0000 0.1206928386
H   H25       1.0  0.05390  0.61110  0.00320  1.0000 0.1394571003
H   H26       1.0  0.94610  0.38890  0.99680  1.0000 0.1394571003
H   H27       1.0  0.31590  0.67670  0.98340  1.0000 0.1303164076
H   H28       1.0  0.68410  0.32330  0.01660  1.0000 0.1303164076
H   H29       1.0  0.39430  0.74450  0.06940  1.0000 0.1303164076
H   H30       1.0  0.60570  0.25550  0.93060  1.0000 0.1303164076
H   H31       1.0  0.96300  0.33920  0.84970  1.0000 0.1586549382
H   H32       1.0  0.03700  0.66080  0.15030  1.0000 0.1586549382
H   H33       1.0  0.89250  0.32090  0.76270  1.0000 0.1484977537
H   H34       1.0  0.10750  0.67910  0.23730  1.0000 0.1484977537
H   H35       1.0  0.92790  0.44220  0.72200  1.0000 0.1586549382
H   H36       1.0  0.07210  0.55780  0.27800  1.0000 0.1586549382
H   H37       1.0  0.03620  0.80850  0.81430  1.0000 0.1394571003
H   H38       1.0  0.96380  0.19150  0.18570  1.0000 0.1394571003
H   H39       1.0  0.11780  0.95910  0.81120  1.0000 0.1394571003
H   H40       1.0  0.88220  0.04090  0.18880  1.0000 0.1394571003
H   H41       1.0  0.34200  0.93640  0.78920  1.0000 0.1394571003
H   H42       1.0  0.65800  0.06360  0.21080  1.0000 0.1394571003
H   H43       1.0  0.26280  0.78350  0.79350  1.0000 0.1394571003
H   H44       1.0  0.73720  0.21650  0.20650  1.0000 0.1394571003
H   H45       1.0  0.41940  0.21170  0.57910  1.0000 0.1394571003
H   H46       1.0  0.58060  0.78830  0.42090  1.0000 0.1394571003
H   H47       1.0  0.40530  0.20640  0.49390  1.0000 0.1394571003
H   H48       1.0  0.59470  0.79360  0.50610  1.0000 0.1394571003
H   H49       1.0  0.40590  0.44430  0.50280  1.0000 0.1394571003
H   H50       1.0  0.59410  0.55570  0.49720  1.0000 0.1394571003
H   H51       1.0  0.41130  0.44320  0.58760  1.0000 0.1303164076
H   H52       1.0  0.58870  0.55680  0.41240  1.0000 0.1303164076
H   H53       1.0  0.55570  0.41440  0.34480  1.0000 0.1586549382
H   H54       1.0  0.44430  0.58560  0.65520  1.0000 0.1586549382
H   H55       1.0  0.47760  0.36610  0.25720  1.0000 0.1484977537
H   H56       1.0  0.52240  0.63390  0.74280  1.0000 0.1484977537
H   H57       1.0  0.30780  0.27860  0.22410  1.0000 0.1586549382
H   H58       1.0  0.69220  0.72140  0.77590  1.0000 0.1586549382
H   H59       1.0  0.04730  0.02790  0.31480  1.0000 0.1303164076
H   H60       1.0  0.95270  0.97210  0.68520  1.0000 0.1303164076
H   H61       1.0  0.88840  0.94590  0.31870  1.0000 0.1394571003
H   H62       1.0  0.11160  0.05410  0.68130  1.0000 0.1394571003
H   H63       1.0  0.86160  0.16840  0.32690  1.0000 0.1303164076
H   H64       1.0  0.13840  0.83160  0.67310  1.0000 0.1303164076
H   H65       1.0  0.01960  0.25380  0.32400  1.0000 0.1484977537
H   H66       1.0  0.98040  0.74620  0.67600  1.0000 0.1484977537
H   H67       1.0  0.22250  0.92850  0.27260  1.0000 0.1303164076
H   H68       1.0  0.77750  0.07150  0.72740  1.0000 0.1303164076
H   H69       1.0  0.16280  0.00640  0.30790  1.0000 0.1394571003
H   H70       1.0  0.83720  0.99360  0.69210  1.0000 0.1394571003
H   H71       1.0  0.44310  0.18720  0.39510  1.0000 0.1394571003
H   H72       1.0  0.55690  0.81280  0.60490  1.0000 0.1394571003
H   H73       1.0  0.50280  0.11430  0.35290  1.0000 0.1303164076
H   H74       1.0  0.49720  0.88570  0.64710  1.0000 0.1303164076
H   H75       1.0  0.10590  0.04260  0.48300  1.0000 0.1586549382
H   H76       1.0  0.89410  0.95740  0.51700  1.0000 0.1586549382
H   H77       1.0  0.05360  0.12970  0.51880  1.0000 0.1394571003
H   H78       1.0  0.94640  0.87030  0.48120  1.0000 0.1394571003
H   H79       1.0  0.07970  0.26630  0.49610  1.0000 0.1586549382
H   H80       1.0  0.92030  0.73370  0.50390  1.0000 0.1586549382
H   H81       1.0  0.35320  0.52310  0.44530  1.0000 0.1303164076
H   H82       1.0  0.64680  0.47690  0.55470  1.0000 0.1303164076
H   H83       1.0  0.37630  0.65200  0.41340  1.0000 0.1303164076
H   H84       1.0  0.62370  0.34800  0.58660  1.0000 0.1206928386
H   H85       1.0  0.22020  0.50640  0.27100  1.0000 0.1095791739
H   H86       1.0  0.77980  0.49360  0.72900  1.0000 0.1095791739
H   H87       1.0  0.18590  0.37430  0.30260  1.0000 0.1303164076
H   H88       1.0  0.81410  0.62570  0.69740  1.0000 0.1303164076
C   C1        1.0  0.33700  0.42340  0.79640  1.0000 0.5855336302
C   C2        1.0  0.66300  0.57660  0.20360  1.0000 0.5855336302
C   C3        1.0  0.31160  0.48880  0.81590  1.0000 -0.0485444925
C   C4        1.0  0.68840  0.51120  0.18410  1.0000 -0.0485444925
C   C5        1.0  0.30670  0.49360  0.86530  1.0000 -0.0619418788
C   C6        1.0  0.69330  0.50640  0.13470  1.0000 -0.0619418788
C   C7        1.0  0.28180  0.55360  0.88350  1.0000 -0.1606798
C   C8        1.0  0.71820  0.44640  0.11650  1.0000 -0.1606798
C   C9        1.0  0.27110  0.61580  0.85670  1.0000 0.2332280838
C   C10       1.0  0.72890  0.38420  0.14330  1.0000 0.2332280838
C   C11       1.0  0.27200  0.60760  0.80850  1.0000 -0.1688310205
C   C12       1.0  0.72800  0.39240  0.19150  1.0000 -0.1688310205
C   C13       1.0  0.29170  0.54600  0.78800  1.0000 -0.0786169394
C   C14       1.0  0.70830  0.45400  0.21200  1.0000 -0.0786169394
C   C15       1.0  0.32820  0.75800  0.90400  1.0000 0.4013112002
C   C16       1.0  0.67180  0.24200  0.09600  1.0000 0.4013112002
C   C17       1.0  0.29700  0.81480  0.92570  1.0000 0.0901486539
C   C18       1.0  0.70300  0.18520  0.07430  1.0000 0.0901486539
C   C19       1.0  0.35760  0.89810  0.95740  1.0000 -0.1214209412
C   C20       1.0  0.64240  0.10190  0.04260  1.0000 -0.1214209412
C   C21       1.0  0.31670  0.94360  0.97740  1.0000 -0.0439866054
C   C22       1.0  0.68330  0.05640  0.02260  1.0000 -0.0439866054
C   C23       1.0  0.21430  0.90090  0.96610  1.0000 -0.1100833322
C   C24       1.0  0.78570  0.09910  0.03390  1.0000 -0.1100833322
C   C25       1.0  0.15780  0.81340  0.93530  1.0000 0.1095791739
C   C26       1.0  0.84220  0.18660  0.06470  1.0000 0.1095791739
C   C27       1.0  0.04930  0.75750  0.91950  1.0000 0.4214596004
C   C28       1.0  0.95070  0.24250  0.08050  1.0000 0.4214596004
C   C29       1.0  0.91550  0.61650  0.86980  1.0000 0.2332280838
C   C30       1.0  0.08450  0.38350  0.13020  1.0000 0.2332280838
C   C31       1.0  0.85510  0.62960  0.82910  1.0000 -0.1489140974
C   C32       1.0  0.14490  0.37040  0.17090  1.0000 -0.1489140974
C   C33       1.0  0.75710  0.56970  0.80890  1.0000 -0.0786169394
C   C34       1.0  0.24290  0.43030  0.19110  1.0000 -0.0786169394
C   C35       1.0  0.71640  0.49210  0.82770  1.0000 -0.0189942434
C   C36       1.0  0.28360  0.50790  0.17230  1.0000 -0.0189942434
C   C37       1.0  0.77550  0.48110  0.86840  1.0000 -0.0786169394
C   C38       1.0  0.22450  0.51890  0.13160  1.0000 -0.0786169394
C   C39       1.0  0.87700  0.54190  0.89040  1.0000 -0.1489140974
C   C40       1.0  0.12300  0.45810  0.10960  1.0000 -0.1489140974
C   C41       1.0  0.61030  0.42250  0.80430  1.0000 0.6069755369
C   C42       1.0  0.38970  0.57750  0.19570  1.0000 0.6069755369
C   C43       1.0  0.32840  0.76250  0.14040  1.0000 0.5829044395
C   C44       1.0  0.67160  0.23750  0.85960  1.0000 0.5829044395
C   C45       1.0  0.27530  0.72360  0.08710  1.0000 -0.0714402189
C   C46       1.0  0.72470  0.27640  0.91290  1.0000 -0.0714402189
C   C47       1.0  0.17210  0.67880  0.06740  1.0000 -0.0714402189
C   C48       1.0  0.82790  0.32120  0.93260  1.0000 -0.0714402189
C   C49       1.0  0.12390  0.63730  0.01670  1.0000 -0.1688310205
C   C50       1.0  0.87610  0.36270  0.98330  1.0000 -0.1688310205
C   C51       1.0  0.17550  0.63330  0.98570  1.0000 0.2332280838
C   C52       1.0  0.82450  0.36670  0.01430  1.0000 0.2332280838
C   C53       1.0  0.27850  0.67620  0.00460  1.0000 -0.1688310205
C   C54       1.0  0.72150  0.32380  0.99540  1.0000 -0.1688310205
C   C55       1.0  0.32430  0.71810  0.05570  1.0000 -0.0619418788
C   C56       1.0  0.67570  0.28190  0.94430  1.0000 -0.0619418788
C   C57       1.0  0.08120  0.50490  0.91930  1.0000 0.4299864931
C   C58       1.0  0.91880  0.49510  0.08070  1.0000 0.4299864931
C   C59       1.0  0.03060  0.47660  0.86160  1.0000 0.1206928386
C   C60       1.0  0.96940  0.52340  0.13840  1.0000 0.1206928386
C   C61       1.0  0.97400  0.38950  0.83380  1.0000 -0.1214209412
C   C62       1.0  0.02600  0.61050  0.16620  1.0000 -0.1214209412
C   C63       1.0  0.93500  0.37990  0.78250  1.0000 -0.0189942434
C   C64       1.0  0.06500  0.62010  0.21750  1.0000 -0.0189942434
C   C65       1.0  0.95380  0.45080  0.75800  1.0000 -0.1100833322
C   C66       1.0  0.04620  0.54920  0.24200  1.0000 -0.1100833322
C   C67       1.0  0.01330  0.53640  0.78890  1.0000 0.1206928386
C   C68       1.0  0.98670  0.46360  0.21110  1.0000 0.1206928386
C   C69       1.0  0.04650  0.62360  0.77260  1.0000 0.4214596004
C   C70       1.0  0.95350  0.37640  0.22740  1.0000 0.4214596004
C   C71       1.0  0.14320  0.78350  0.80520  1.0000 0.2152327412
C   C72       1.0  0.85680  0.21650  0.19480  1.0000 0.2152327412
C   C73       1.0  0.09920  0.83440  0.80990  1.0000 -0.1489140974
C   C74       1.0  0.90080  0.16560  0.19010  1.0000 -0.1489140974
C   C75       1.0  0.14790  0.92330  0.80810  1.0000 -0.0714402189
C   C76       1.0  0.85210  0.07670  0.19190  1.0000 -0.0714402189
C   C77       1.0  0.23770  0.96190  0.80200  1.0000 -0.0295809339
C   C78       1.0  0.76230  0.03810  0.19800  1.0000 -0.0295809339
C   C79       1.0  0.28050  0.91030  0.79530  1.0000 -0.0786169394
C   C80       1.0  0.71950  0.08970  0.20470  1.0000 -0.0786169394
C   C81       1.0  0.23350  0.81970  0.79740  1.0000 -0.1606798
C   C82       1.0  0.76650  0.18030  0.20260  1.0000 -0.1606798
C   C83       1.0  0.28930  0.06010  0.80090  1.0000 0.6003936493
C   C84       1.0  0.71070  0.93990  0.19910  1.0000 0.6003936493
C   C85       1.0  0.42030  0.32670  0.64570  1.0000 0.5410800987
C   C86       1.0  0.57970  0.67330  0.35430  1.0000 0.5410800987
C   C87       1.0  0.41330  0.32630  0.59040  1.0000 -0.0004973942
C   C88       1.0  0.58670  0.67370  0.40960  1.0000 -0.0004973942
C   C89       1.0  0.41430  0.25800  0.56310  1.0000 -0.0714402189
C   C90       1.0  0.58570  0.74200  0.43690  1.0000 -0.0714402189
C   C91       1.0  0.40820  0.25580  0.51290  1.0000 -0.1606798
C   C92       1.0  0.59180  0.74420  0.48710  1.0000 -0.1606798
C   C93       1.0  0.40610  0.32650  0.48950  1.0000 0.2421686278
C   C94       1.0  0.59390  0.67350  0.51050  1.0000 0.2421686278
C   C95       1.0  0.40730  0.39590  0.51780  1.0000 -0.1606798
C   C96       1.0  0.59270  0.60410  0.48220  1.0000 -0.1606798
C   C97       1.0  0.41080  0.39540  0.56850  1.0000 -0.0891570038
C   C98       1.0  0.58920  0.60460  0.43150  1.0000 -0.0891570038
C   C99       1.0  0.46730  0.36070  0.41990  1.0000 0.4214596004
C   C100      1.0  0.53270  0.63930  0.58010  1.0000 0.4214596004
C   C101      1.0  0.43070  0.34550  0.36320  1.0000 0.1206928386
C   C102      1.0  0.56930  0.65450  0.63680  1.0000 0.1206928386
C   C103      1.0  0.48630  0.37540  0.33110  1.0000 -0.130867604
C   C104      1.0  0.51370  0.62460  0.66890  1.0000 -0.130867604
C   C105      1.0  0.43980  0.34810  0.27950  1.0000 -0.0295809339
C   C106      1.0  0.56020  0.65190  0.72050  1.0000 -0.0295809339
C   C107      1.0  0.33980  0.29530  0.25990  1.0000 -0.1214209412
C   C108      1.0  0.66020  0.70470  0.74010  1.0000 -0.1214209412
C   C109      1.0  0.28460  0.26600  0.29200  1.0000 0.0901486539
C   C110      1.0  0.71540  0.73400  0.70800  1.0000 0.0901486539
C   C111      1.0  0.17790  0.21010  0.28110  1.0000 0.4214596004
C   C112      1.0  0.82210  0.78990  0.71890  1.0000 0.4214596004
C   C113      1.0  0.04950  0.14840  0.31940  1.0000 0.2421686278
C   C114      1.0  0.95050  0.85160  0.68060  1.0000 0.2421686278
C   C115      1.0  0.01010  0.05690  0.31770  1.0000 -0.1688310205
C   C116      1.0  0.98990  0.94310  0.68230  1.0000 -0.1688310205
C   C117      1.0  0.91590  0.00870  0.32010  1.0000 -0.0786169394
C   C118      1.0  0.08410  0.99130  0.67990  1.0000 -0.0786169394
C   C119      1.0  0.86140  0.04900  0.32460  1.0000 -0.0111181497
C   C120      1.0  0.13860  0.95100  0.67540  1.0000 -0.0111181497
C   C121      1.0  0.75660  0.99560  0.32400  1.0000 0.5454094821
C   C122      1.0  0.24340  0.00440  0.67600  1.0000 0.5454094821
C   C123      1.0  0.90050  0.14060  0.32510  1.0000 -0.0786169394
C   C124      1.0  0.09950  0.85940  0.67490  1.0000 -0.0786169394
C   C125      1.0  0.99320  0.19120  0.32300  1.0000 -0.1606798
C   C126      1.0  0.00680  0.80880  0.67700  1.0000 -0.1606798
C   C127      1.0  0.40240  0.95620  0.28640  1.0000 0.6003936493
C   C128      1.0  0.59760  0.04380  0.71360  1.0000 0.6003936493
C   C129      1.0  0.36760  0.01350  0.30790  1.0000 -0.0295809339
C   C130      1.0  0.63240  0.98650  0.69210  1.0000 -0.0295809339
C   C131      1.0  0.26780  0.98260  0.29680  1.0000 -0.0786169394
C   C132      1.0  0.73220  0.01740  0.70320  1.0000 -0.0786169394
C   C133      1.0  0.23180  0.02610  0.31910  1.0000 -0.1390814073
C   C134      1.0  0.76820  0.97390  0.68090  1.0000 -0.1390814073
C   C135      1.0  0.29770  0.10180  0.35970  1.0000 0.2492333764
C   C136      1.0  0.70230  0.89820  0.64030  1.0000 0.2492333764
C   C137      1.0  0.39760  0.13420  0.37010  1.0000 -0.1688310205
C   C138      1.0  0.60240  0.86580  0.62990  1.0000 -0.1688310205
C   C139      1.0  0.43350  0.09100  0.34490  1.0000 -0.0786169394
C   C140      1.0  0.56650  0.90900  0.65510  1.0000 -0.0786169394
C   C141      1.0  0.21690  0.09140  0.41800  1.0000 0.4299864931
C   C142      1.0  0.78310  0.90860  0.58200  1.0000 0.4299864931
C   C143      1.0  0.17120  0.13340  0.44340  1.0000 0.1206928386
C   C144      1.0  0.82880  0.86660  0.55660  1.0000 0.1206928386
C   C145      1.0  0.11950  0.09980  0.47500  1.0000 -0.130867604
C   C146      1.0  0.88050  0.90020  0.52500  1.0000 -0.130867604
C   C147      1.0  0.08750  0.15080  0.49510  1.0000 -0.0439866054
C   C148      1.0  0.91250  0.84920  0.50490  1.0000 -0.0439866054
C   C149      1.0  0.10260  0.23120  0.48220  1.0000 -0.1214209412
C   C150      1.0  0.89740  0.76880  0.51780  1.0000 -0.1214209412
C   C151      1.0  0.15320  0.25930  0.44780  1.0000 0.1303164076
C   C152      1.0  0.84680  0.74070  0.55220  1.0000 0.1303164076
C   C153      1.0  0.17860  0.34510  0.42880  1.0000 0.4299864931
C   C154      1.0  0.82140  0.65490  0.57120  1.0000 0.4299864931
C   C155      1.0  0.25750  0.43370  0.37690  1.0000 0.2492333764
C   C156      1.0  0.74250  0.56630  0.62310  1.0000 0.2492333764
C   C157      1.0  0.32220  0.51910  0.41030  1.0000 -0.1390814073
C   C158      1.0  0.67780  0.48090  0.58970  1.0000 -0.1390814073
C   C159      1.0  0.33860  0.59530  0.39080  1.0000 -0.0786169394
C   C160      1.0  0.66140  0.40470  0.60920  1.0000 -0.0786169394
C   C161      1.0  0.30260  0.59220  0.34020  1.0000 -0.0189942434
C   C162      1.0  0.69740  0.40780  0.65980  1.0000 -0.0189942434
C   C163      1.0  0.24490  0.50920  0.30650  1.0000 -0.0786169394
C   C164      1.0  0.75510  0.49080  0.69350  1.0000 -0.0786169394
C   C165      1.0  0.22390  0.43070  0.32550  1.0000 -0.1774696893
C   C166      1.0  0.77610  0.56930  0.67450  1.0000 -0.1774696893
C   C167      1.0  0.32520  0.67670  0.32020  1.0000 0.5634056045
C   C168      1.0  0.67480  0.32330  0.67980  1.0000 0.5634056045
N   N1        1.0  0.25170  0.67830  0.87840  1.0000 -0.4083404627
N   N2        1.0  0.74830  0.32170  0.12160  1.0000 -0.4083404627
N   N3        1.0  0.20150  0.77520  0.91760  1.0000 -0.1688310205
N   N4        1.0  0.79850  0.22480  0.08240  1.0000 -0.1688310205
N   N5        1.0  0.01770  0.67850  0.89090  1.0000 -0.4376186318
N   N6        1.0  0.98230  0.32150  0.10910  1.0000 -0.4376186318
N   N7        1.0  0.09840  0.69160  0.81160  1.0000 -0.4176522083
N   N8        1.0  0.90160  0.30840  0.18840  1.0000 -0.4176522083
N   N9        1.0  0.04690  0.54530  0.83850  1.0000 -0.1906213685
N   N10       1.0  0.95310  0.45470  0.16150  1.0000 -0.1906213685
N   N11       1.0  0.12510  0.59230  0.93200  1.0000 -0.4376186318
N   N12       1.0  0.87490  0.40770  0.06800  1.0000 -0.4376186318
N   N13       1.0  0.39040  0.32020  0.43760  1.0000 -0.4296767549
N   N14       1.0  0.60960  0.67980  0.56240  1.0000 -0.4296767549
N   N15       1.0  0.33300  0.29420  0.34330  1.0000 -0.1966660953
N   N16       1.0  0.66700  0.70580  0.65670  1.0000 -0.1966660953
N   N17       1.0  0.15100  0.20110  0.32200  1.0000 -0.4083404627
N   N18       1.0  0.84900  0.79890  0.67800  1.0000 -0.4083404627
N   N19       1.0  0.22930  0.35380  0.39710  1.0000 -0.448549658
N   N20       1.0  0.77070  0.64620  0.60290  1.0000 -0.448549658
N   N21       1.0  0.18510  0.21000  0.42980  1.0000 -0.1906213685
N   N22       1.0  0.81490  0.79000  0.57020  1.0000 -0.1906213685
N   N23       1.0  0.26060  0.14090  0.38820  1.0000 -0.4296767549
N   N24       1.0  0.73940  0.85910  0.61180  1.0000 -0.4296767549
O   O1        1.0  0.41610  0.78250  0.90860  1.0000 -0.4296767549
O   O2        1.0  0.58390  0.21750  0.09140  1.0000 -0.4296767549
O   O3        1.0  0.99310  0.78230  0.93070  1.0000 -0.448549658
O   O4        1.0  0.00690  0.21770  0.06930  1.0000 -0.448549658
O   O5        1.0  0.02690  0.62900  0.72650  1.0000 -0.4376186318
O   O6        1.0  0.97310  0.37100  0.27350  1.0000 -0.4376186318
O   O7        1.0  0.07540  0.44710  0.94610  1.0000 -0.448549658
O   O8        1.0  0.92460  0.55290  0.05390  1.0000 -0.448549658
O   O9        1.0  0.34770  0.42650  0.75310  1.0000 -0.5095798484
O   O10       1.0  0.65230  0.57350  0.24690  1.0000 -0.5095798484
O   O11       1.0  0.35120  0.37240  0.82380  1.0000 -0.5289013372
O   O12       1.0  0.64880  0.62760  0.17620  1.0000 -0.5289013372
O   O13       1.0  0.55340  0.44750  0.77620  1.0000 -0.5289013372
O   O14       1.0  0.44660  0.55250  0.22380  1.0000 -0.5289013372
O   O15       1.0  0.58570  0.34640  0.81380  1.0000 -0.5095798484
O   O16       1.0  0.41430  0.65360  0.18620  1.0000 -0.5095798484
O   O17       1.0  0.42100  0.81020  0.15640  1.0000 -0.5095798484
O   O18       1.0  0.57900  0.18980  0.84360  1.0000 -0.5095798484
O   O19       1.0  0.27810  0.74440  0.17110  1.0000 -0.5289013372
O   O20       1.0  0.72190  0.25560  0.82890  1.0000 -0.5289013372
O   O21       1.0  0.37600  0.09260  0.79620  1.0000 -0.5095798484
O   O22       1.0  0.62400  0.90740  0.20380  1.0000 -0.5095798484
O   O23       1.0  0.24610  0.10310  0.80550  1.0000 -0.5289013372
O   O24       1.0  0.75390  0.89690  0.19450  1.0000 -0.5289013372
O   O25       1.0  0.36150  0.24490  0.75500  1.0000 -0.8229227848
O   O26       1.0  0.63850  0.75510  0.24500  1.0000 -0.8258961625
O   O27       1.0  0.43700  0.26070  0.86420  1.0000 -0.4669659472
O   O28       1.0  0.56300  0.73930  0.13580  1.0000 -0.4669659472
O   O29       1.0  0.12000  0.17530  0.23510  1.0000 -0.458162967
O   O30       1.0  0.88000  0.82470  0.76490  1.0000 -0.458162967
O   O31       1.0  0.55430  0.40040  0.44590  1.0000 -0.4083404627
O   O32       1.0  0.44570  0.59960  0.55410  1.0000 -0.4083404627
O   O33       1.0  0.21100  0.01790  0.42710  1.0000 -0.458162967
O   O34       1.0  0.78900  0.98210  0.57290  1.0000 -0.458162967
O   O35       1.0  0.14970  0.39790  0.44120  1.0000 -0.448549658
O   O36       1.0  0.85030  0.60210  0.55880  1.0000 -0.448549658
O   O37       1.0  0.38930  0.37200  0.66420  1.0000 -0.5005730974
O   O38       1.0  0.61070  0.62800  0.33580  1.0000 -0.5005730974
O   O39       1.0  0.45640  0.28590  0.66960  1.0000 -0.384399522
O   O40       1.0  0.54360  0.71410  0.33040  1.0000 -0.384399522
O   O41       1.0  0.70650  0.03280  0.32330  1.0000 -0.5005730974
O   O42       1.0  0.29350  0.96720  0.67670  1.0000 -0.5005730974
O   O43       1.0  0.72330  0.91350  0.32460  1.0000 -0.4669659472
O   O44       1.0  0.27670  0.08650  0.67540  1.0000 -0.4669659472
O   O45       1.0  0.29960  0.66820  0.27230  1.0000 -0.5289013372
O   O46       1.0  0.70040  0.33180  0.72770  1.0000 -0.5289013372
O   O47       1.0  0.36850  0.74880  0.35020  1.0000 -0.5005730974
O   O48       1.0  0.63150  0.25120  0.64980  1.0000 -0.5005730974
O   O49       1.0  0.49490  0.99300  0.29260  1.0000 -0.5396555848
O   O50       1.0  0.50510  0.00700  0.70740  1.0000 -0.5396555848
O   O51       1.0  0.33750  0.87630  0.26580  1.0000 -0.5289013372
O   O52       1.0  0.66250  0.12370  0.73420  1.0000 -0.5289013372
O   O53       1.0  0.49700  0.81340  0.26740  1.0000 -0.7918596751
O   O54       1.0  0.50300  0.18660  0.73260  1.0000 -0.7918596751
