# DDEC6 charges by PACMAN v1.1 (https://github.com/mtap-research/PACMAN-charge/)
data_2013[NiCd][nan]3[ASR]1
_chemical_formula_sum              "Cd8 Ni8 H322 C336 N16 Cl2 O48"
_cell_length_a       23.235
_cell_length_b       11.855
_cell_length_c       36.749
_cell_angle_alpha    90
_cell_angle_beta     95.26
_cell_angle_gamma    90

_symmetry_space_group_name_H-M    "P 1"
_symmetry_Int_Tables_number       1

loop_
  _symmetry_equiv_pos_as_xyz
  'x, y, z'

loop_
  _atom_site_type_symbol
  _atom_site_label
  _atom_site_symmetry_multiplicity
  _atom_site_fract_x
  _atom_site_fract_y
  _atom_site_fract_z
  _atom_site_occupancy
  _atom_site_charge
Cd  Cd1       1.0  0.75843  0.33870  0.25319  1.0000 0.9947228887
Cd  Cd2       1.0  0.24157  0.83870  0.74681  1.0000 0.9947228887
Cd  Cd3       1.0  0.86517  0.01621  0.28335  1.0000 1.0313613275
Cd  Cd4       1.0  0.13483  0.51621  0.71665  1.0000 1.0313613275
Cd  Cd5       1.0  0.59584  0.36817  0.22548  1.0000 1.0124469259
Cd  Cd6       1.0  0.40416  0.86817  0.77452  1.0000 1.0124469259
Cd  Cd7       1.0  0.94343  0.78162  0.22977  1.0000 1.0394289949
Cd  Cd8       1.0  0.05657  0.28162  0.77023  1.0000 1.0394289949
Ni  Ni1       1.0  0.58410  0.50220  0.48633  1.0000 0.4796872197
Ni  Ni2       1.0  0.41590  0.00220  0.51367  1.0000 0.4796872197
Ni  Ni3       1.0  0.91395  0.95881  0.48199  1.0000 0.4886504271
Ni  Ni4       1.0  0.08605  0.45881  0.51801  1.0000 0.4886504271
Ni  Ni5       1.0  0.57815  0.29172  0.02446  1.0000 0.4796872197
Ni  Ni6       1.0  0.42185  0.79172  0.97554  1.0000 0.4796872197
Ni  Ni7       1.0  0.91997  0.81345  0.02515  1.0000 0.4796872197
Ni  Ni8       1.0  0.08003  0.31345  0.97485  1.0000 0.4796872197
H   H1        1.0  0.61120  0.31330  0.12280  1.0000 0.1200653183
H   H2        1.0  0.38880  0.81330  0.87720  1.0000 0.1200653183
H   H3        1.0  0.46910  0.48350  0.05150  1.0000 0.1200653183
H   H4        1.0  0.53090  0.98350  0.94850  1.0000 0.1200653183
H   H5        1.0  0.68070  0.19920  0.15050  1.0000 0.1299897664
H   H6        1.0  0.31930  0.69920  0.84950  1.0000 0.1299897664
H   H7        1.0  0.46150  0.53540  0.92860  1.0000 0.1200653183
H   H8        1.0  0.53850  0.03540  0.07140  1.0000 0.1200653183
H   H9        1.0  0.56660  0.39160  0.86230  1.0000 0.1106974819
H   H10       1.0  0.43340  0.89160  0.13770  1.0000 0.1106974819
H   H11       1.0  0.52640  0.39990  0.10640  1.0000 0.1106974819
H   H12       1.0  0.47360  0.89990  0.89360  1.0000 0.1106974819
H   H13       1.0  0.81520  0.80840  0.36080  1.0000 0.1200653183
H   H14       1.0  0.18480  0.30840  0.63920  1.0000 0.1200653183
H   H15       1.0  0.48110  0.70630  0.44800  1.0000 0.1200653183
H   H16       1.0  0.51890  0.20630  0.55200  1.0000 0.1200653183
H   H17       1.0  0.49300  0.73560  0.50940  1.0000 0.1106974819
H   H18       1.0  0.50700  0.23560  0.49060  1.0000 0.1106974819
H   H19       1.0  0.92670  0.78870  0.12270  1.0000 0.1200653183
H   H20       1.0  0.07330  0.28870  0.87730  1.0000 0.1200653183
H   H21       1.0  0.99210  0.91440  0.10980  1.0000 0.1106974819
H   H22       1.0  0.00790  0.41440  0.89020  1.0000 0.1106974819
H   H23       1.0  0.95090  0.05810  0.39500  1.0000 0.1106974819
H   H24       1.0  0.04910  0.55810  0.60500  1.0000 0.1106974819
H   H25       1.0  0.01760  0.14440  0.44640  1.0000 0.1200653183
H   H26       1.0  0.98240  0.64440  0.55360  1.0000 0.1200653183
H   H27       1.0  0.03470  0.14620  0.50660  1.0000 0.1200653183
H   H28       1.0  0.96530  0.64620  0.49340  1.0000 0.1200653183
H   H29       1.0  0.02830  0.01240  0.05340  1.0000 0.1200653183
H   H30       1.0  0.97170  0.51240  0.94660  1.0000 0.1200653183
H   H31       1.0  0.52960  0.60320  0.39790  1.0000 0.1106974819
H   H32       1.0  0.47040  0.10320  0.60210  1.0000 0.1106974819
H   H33       1.0  0.74880  0.14180  0.44400  1.0000 0.1106974819
H   H34       1.0  0.25120  0.64180  0.55600  1.0000 0.1106974819
H   H35       1.0  0.75160  0.58470  0.42810  1.0000 0.1106974819
H   H36       1.0  0.24840  0.08470  0.57190  1.0000 0.1106974819
H   H37       1.0  0.75410  0.47790  0.08280  1.0000 0.1106974819
H   H38       1.0  0.24590  0.97790  0.91720  1.0000 0.1106974819
H   H39       1.0  0.66940  0.35250  0.37220  1.0000 0.1397753176
H   H40       1.0  0.33060  0.85250  0.62780  1.0000 0.1397753176
H   H41       1.0  0.77120  0.12550  0.38520  1.0000 0.1106974819
H   H42       1.0  0.22880  0.62550  0.61480  1.0000 0.1106974819
H   H43       1.0  0.75790  0.09810  0.18120  1.0000 0.1299897664
H   H44       1.0  0.24210  0.59810  0.81880  1.0000 0.1299897664
H   H45       1.0  0.46320  0.48270  0.98910  1.0000 0.1200653183
H   H46       1.0  0.53680  0.98270  0.01090  1.0000 0.1200653183
H   H47       1.0  0.47800  0.75880  0.57010  1.0000 0.1106974819
H   H48       1.0  0.52200  0.25880  0.42990  1.0000 0.1106974819
H   H49       1.0  0.73770  0.55310  0.36150  1.0000 0.1200653183
H   H50       1.0  0.26230  0.05310  0.63850  1.0000 0.1200653183
H   H51       1.0  0.01150  0.03120  0.99430  1.0000 0.1200653183
H   H52       1.0  0.98850  0.53120  0.00570  1.0000 0.1200653183
H   H53       1.0  0.46290  0.61310  0.86810  1.0000 0.1200653183
H   H54       1.0  0.53710  0.11310  0.13190  1.0000 0.1200653183
H   H55       1.0  0.69750  0.47240  0.12730  1.0000 0.1397753176
H   H56       1.0  0.30250  0.97240  0.87270  1.0000 0.1397753176
H   H57       1.0  0.74250  0.84490  0.04760  1.0000 0.1299897664
H   H58       1.0  0.25750  0.34490  0.95240  1.0000 0.1299897664
H   H59       1.0  0.76340  0.86460  0.00880  1.0000 0.1397753176
H   H60       1.0  0.23660  0.36460  0.99120  1.0000 0.1397753176
H   H61       1.0  0.79410  0.92720  0.04280  1.0000 0.1200653183
H   H62       1.0  0.20590  0.42720  0.95720  1.0000 0.1200653183
H   H63       1.0  0.82450  0.65170  0.32570  1.0000 0.1299897664
H   H64       1.0  0.17550  0.15170  0.67430  1.0000 0.1299897664
H   H65       1.0  0.58470  0.10800  0.89940  1.0000 0.1200653183
H   H66       1.0  0.41530  0.60800  0.10060  1.0000 0.1200653183
H   H67       1.0  0.65040  0.08640  0.91090  1.0000 0.1299897664
H   H68       1.0  0.34960  0.58640  0.08910  1.0000 0.1299897664
H   H69       1.0  0.61000  0.12990  0.93980  1.0000 0.1397753176
H   H70       1.0  0.39000  0.62990  0.06020  1.0000 0.1397753176
H   H71       1.0  0.81800  0.94580  0.14480  1.0000 0.1477713221
H   H72       1.0  0.18200  0.44580  0.85520  1.0000 0.1477713221
H   H73       1.0  0.78200  0.56790  0.17380  1.0000 0.1299897664
H   H74       1.0  0.21800  0.06790  0.82620  1.0000 0.1299897664
H   H75       1.0  0.85030  0.68910  0.14760  1.0000 0.1299897664
H   H76       1.0  0.14970  0.18910  0.85240  1.0000 0.1299897664
H   H77       1.0  0.64380  0.89940  0.02090  1.0000 0.1200653183
H   H78       1.0  0.35620  0.39940  0.97910  1.0000 0.1200653183
H   H79       1.0  0.63490  0.01300  0.99930  1.0000 0.1299897664
H   H80       1.0  0.36510  0.51300  0.00070  1.0000 0.1299897664
H   H81       1.0  0.67090  0.91530  0.98370  1.0000 0.1299897664
H   H82       1.0  0.32910  0.41530  0.01630  1.0000 0.1299897664
H   H83       1.0  0.46210  0.80480  0.62980  1.0000 0.1106974819
H   H84       1.0  0.53790  0.30480  0.37020  1.0000 0.1106974819
H   H85       1.0  0.71650  0.24590  0.92410  1.0000 0.1299897664
H   H86       1.0  0.28350  0.74590  0.07590  1.0000 0.1299897664
H   H87       1.0  0.69290  0.36970  0.92110  1.0000 0.1299897664
H   H88       1.0  0.30710  0.86970  0.07890  1.0000 0.1299897664
H   H89       1.0  0.67730  0.29200  0.95330  1.0000 0.1397753176
H   H90       1.0  0.32270  0.79200  0.04670  1.0000 0.1397753176
H   H91       1.0  0.50370  0.89160  0.43830  1.0000 0.1299897664
H   H92       1.0  0.49630  0.39160  0.56170  1.0000 0.1299897664
H   H93       1.0  0.89990  0.89740  0.86140  1.0000 0.1200653183
H   H94       1.0  0.10010  0.39740  0.13860  1.0000 0.1200653183
H   H95       1.0  0.95110  0.08170  0.64190  1.0000 0.1200653183
H   H96       1.0  0.04890  0.58170  0.35810  1.0000 0.1200653183
H   H97       1.0  0.73320  0.28190  0.33200  1.0000 0.1477713221
H   H98       1.0  0.26680  0.78190  0.66800  1.0000 0.1477713221
H   H99       1.0  0.77890  0.90470  0.91940  1.0000 0.1299897664
H   H100      1.0  0.22110  0.40470  0.08060  1.0000 0.1299897664
H   H101      1.0  0.75240  0.78330  0.92030  1.0000 0.1299897664
H   H102      1.0  0.24760  0.28330  0.07970  1.0000 0.1299897664
H   H103      1.0  0.79840  0.82280  0.95160  1.0000 0.1397753176
H   H104      1.0  0.20160  0.32280  0.04840  1.0000 0.1397753176
H   H105      1.0  0.76110  0.97130  0.09320  1.0000 0.1106974819
H   H106      1.0  0.23890  0.47130  0.90680  1.0000 0.1106974819
H   H107      1.0  0.48880  0.68870  0.75560  1.0000 0.3715929249
H   H108      1.0  0.51120  0.18870  0.24440  1.0000 0.3715929249
H   H109      1.0  0.51620  0.68880  0.68670  1.0000 0.1397753176
H   H110      1.0  0.48380  0.18880  0.31330  1.0000 0.1397753176
H   H111      1.0  0.06460  0.26820  0.62640  1.0000 0.1200653183
H   H112      1.0  0.93540  0.76820  0.37360  1.0000 0.1200653183
H   H113      1.0  0.04610  0.20410  0.56730  1.0000 0.1200653183
H   H114      1.0  0.95390  0.70410  0.43270  1.0000 0.1200653183
H   H115      1.0  0.44860  0.22680  0.01330  1.0000 0.1200653183
H   H116      1.0  0.55140  0.72680  0.98670  1.0000 0.1200653183
H   H117      1.0  0.94250  0.99570  0.81690  1.0000 0.1397753176
H   H118      1.0  0.05750  0.49570  0.18310  1.0000 0.1397753176
H   H119      1.0  0.76880  0.29040  0.52370  1.0000 0.1299897664
H   H120      1.0  0.23120  0.79040  0.47630  1.0000 0.1299897664
H   H121      1.0  0.70870  0.33260  0.53440  1.0000 0.1477713221
H   H122      1.0  0.29130  0.83260  0.46560  1.0000 0.1477713221
H   H123      1.0  0.73930  0.23040  0.55510  1.0000 0.1299897664
H   H124      1.0  0.26070  0.73040  0.44490  1.0000 0.1299897664
H   H125      1.0  0.42980  0.37820  0.10990  1.0000 0.1200653183
H   H126      1.0  0.57020  0.87820  0.89010  1.0000 0.1200653183
H   H127      1.0  0.80510  0.85910  0.85710  1.0000 0.1106974819
H   H128      1.0  0.19490  0.35910  0.14290  1.0000 0.1106974819
H   H129      1.0  0.84280  0.75260  0.85060  1.0000 0.1012544976
H   H130      1.0  0.15720  0.25260  0.14940  1.0000 0.1012544976
H   H131      1.0  0.77930  0.73800  0.86100  1.0000 0.1106974819
H   H132      1.0  0.22070  0.23800  0.13900  1.0000 0.1106974819
H   H133      1.0  0.62440  0.09800  0.50240  1.0000 0.1200653183
H   H134      1.0  0.37560  0.59800  0.49760  1.0000 0.1200653183
H   H135      1.0  0.65280  0.11480  0.54250  1.0000 0.1299897664
H   H136      1.0  0.34720  0.61480  0.45750  1.0000 0.1299897664
H   H137      1.0  0.62100  0.21570  0.52160  1.0000 0.1299897664
H   H138      1.0  0.37900  0.71570  0.47840  1.0000 0.1299897664
H   H139      1.0  0.71610  0.77540  0.50010  1.0000 0.1299897664
H   H140      1.0  0.28390  0.27540  0.49990  1.0000 0.1299897664
H   H141      1.0  0.74430  0.73010  0.53770  1.0000 0.1299897664
H   H142      1.0  0.25570  0.23010  0.46230  1.0000 0.1299897664
H   H143      1.0  0.77620  0.82210  0.51630  1.0000 0.1477713221
H   H144      1.0  0.22380  0.32210  0.48370  1.0000 0.1477713221
H   H145      1.0  0.58540  0.31910  0.60980  1.0000 0.1200653183
H   H146      1.0  0.41460  0.81910  0.39020  1.0000 0.1200653183
H   H147      1.0  0.61380  0.33730  0.57310  1.0000 0.1397753176
H   H148      1.0  0.38620  0.83730  0.42690  1.0000 0.1397753176
H   H149      1.0  0.65070  0.28920  0.60750  1.0000 0.1299897664
H   H150      1.0  0.34930  0.78920  0.39250  1.0000 0.1299897664
H   H151      1.0  0.02040  0.08820  0.86980  1.0000 0.1106974819
H   H152      1.0  0.97960  0.58820  0.13020  1.0000 0.1106974819
H   H153      1.0  0.00130  0.21470  0.68060  1.0000 0.1674907067
H   H154      1.0  0.99870  0.71470  0.31940  1.0000 0.1674907067
H   H155      1.0  0.72800  0.61740  0.99970  1.0000 0.1299897664
H   H156      1.0  0.27200  0.11740  0.00030  1.0000 0.1299897664
H   H157      1.0  0.78800  0.65320  0.98710  1.0000 0.1477713221
H   H158      1.0  0.21200  0.15320  0.01290  1.0000 0.1477713221
H   H159      1.0  0.75320  0.55390  0.96730  1.0000 0.1299897664
H   H160      1.0  0.24680  0.05390  0.03270  1.0000 0.1299897664
H   H161      1.0  0.69100  0.50990  0.57100  1.0000 0.1299897664
H   H162      1.0  0.30900  0.00990  0.42900  1.0000 0.1299897664
H   H163      1.0  0.70520  0.57600  0.60760  1.0000 0.1200653183
H   H164      1.0  0.29480  0.07600  0.39240  1.0000 0.1200653183
H   H165      1.0  0.72600  0.45090  0.60420  1.0000 0.1299897664
H   H166      1.0  0.27400  0.95090  0.39580  1.0000 0.1299897664
H   H167      1.0  0.38210  0.09330  0.02820  1.0000 0.1106974819
H   H168      1.0  0.61790  0.59330  0.97180  1.0000 0.1106974819
H   H169      1.0  0.86880  0.75860  0.60580  1.0000 0.1299897664
H   H170      1.0  0.13120  0.25860  0.39420  1.0000 0.1299897664
H   H171      1.0  0.90310  0.79640  0.57300  1.0000 0.1397753176
H   H172      1.0  0.09690  0.29640  0.42700  1.0000 0.1397753176
H   H173      1.0  0.93470  0.78850  0.61250  1.0000 0.1200653183
H   H174      1.0  0.06530  0.28850  0.38750  1.0000 0.1200653183
H   H175      1.0  0.70660  0.58330  0.47830  1.0000 0.1200653183
H   H176      1.0  0.29340  0.08330  0.52170  1.0000 0.1200653183
H   H177      1.0  0.76070  0.50460  0.47740  1.0000 0.1200653183
H   H178      1.0  0.23930  0.00460  0.52260  1.0000 0.1200653183
H   H179      1.0  0.73730  0.53530  0.51480  1.0000 0.1397753176
H   H180      1.0  0.26270  0.03530  0.48520  1.0000 0.1397753176
H   H181      1.0  0.83280  0.60110  0.53840  1.0000 0.1299897664
H   H182      1.0  0.16720  0.10110  0.46160  1.0000 0.1299897664
H   H183      1.0  0.85660  0.56920  0.50120  1.0000 0.1200653183
H   H184      1.0  0.14340  0.06920  0.49880  1.0000 0.1200653183
H   H185      1.0  0.86540  0.69150  0.51690  1.0000 0.1299897664
H   H186      1.0  0.13460  0.19150  0.48310  1.0000 0.1299897664
H   H187      1.0  0.44610  0.54180  0.36490  1.0000 0.1299897664
H   H188      1.0  0.55390  0.04180  0.63510  1.0000 0.1299897664
H   H189      1.0  0.52860  0.50480  0.81980  1.0000 0.1477713221
H   H190      1.0  0.47140  0.00480  0.18020  1.0000 0.1477713221
H   H191      1.0  0.86540  0.40830  0.02000  1.0000 0.1200653183
H   H192      1.0  0.13460  0.90830  0.98000  1.0000 0.1200653183
H   H193      1.0  0.83730  0.42620  0.98000  1.0000 0.1299897664
H   H194      1.0  0.16270  0.92620  0.02000  1.0000 0.1299897664
H   H195      1.0  0.87310  0.52360  0.00020  1.0000 0.1299897664
H   H196      1.0  0.12690  0.02360  0.99980  1.0000 0.1299897664
H   H197      1.0  0.04430  0.88690  0.48090  1.0000 0.1200653183
H   H198      1.0  0.95570  0.38690  0.51910  1.0000 0.1200653183
H   H199      1.0  0.57190  0.59390  0.64840  1.0000 0.1106974819
H   H200      1.0  0.42810  0.09390  0.35160  1.0000 0.1106974819
H   H201      1.0  0.05120  0.04890  0.38680  1.0000 0.1200653183
H   H202      1.0  0.94880  0.54890  0.61320  1.0000 0.1200653183
H   H203      1.0  0.71660  0.14640  0.99370  1.0000 0.1397753176
H   H204      1.0  0.28340  0.64640  0.00630  1.0000 0.1397753176
H   H205      1.0  0.77860  0.11130  0.01030  1.0000 0.1299897664
H   H206      1.0  0.22140  0.61130  0.98970  1.0000 0.1299897664
H   H207      1.0  0.74880  0.04630  0.97650  1.0000 0.1299897664
H   H208      1.0  0.25120  0.54630  0.02350  1.0000 0.1299897664
H   H209      1.0  0.61850  0.51280  0.04360  1.0000 0.1200653183
H   H210      1.0  0.38150  0.01280  0.95640  1.0000 0.1200653183
H   H211      1.0  0.53080  0.58040  0.12960  1.0000 0.1299897664
H   H212      1.0  0.46920  0.08040  0.87040  1.0000 0.1299897664
H   H213      1.0  0.77550  0.09340  0.49540  1.0000 0.1200653183
H   H214      1.0  0.22450  0.59340  0.50460  1.0000 0.1200653183
H   H215      1.0  0.74470  0.04780  0.52860  1.0000 0.1299897664
H   H216      1.0  0.25530  0.54780  0.47140  1.0000 0.1397753176
H   H217      1.0  0.71900  0.02140  0.48860  1.0000 0.1299897664
H   H218      1.0  0.28100  0.52140  0.51140  1.0000 0.1299897664
H   H219      1.0  0.94490  0.23940  0.37170  1.0000 0.1299897664
H   H220      1.0  0.05510  0.73940  0.62830  1.0000 0.1299897664
H   H221      1.0  0.65800  0.00680  0.41460  1.0000 0.1200653183
H   H222      1.0  0.34200  0.50680  0.58540  1.0000 0.1200653183
H   H223      1.0  0.87380  0.18120  0.46510  1.0000 0.1200653183
H   H224      1.0  0.12620  0.68120  0.53490  1.0000 0.1200653183
H   H225      1.0  0.81970  0.04120  0.59040  1.0000 0.1200653183
H   H226      1.0  0.18030  0.54120  0.40960  1.0000 0.1200653183
H   H227      1.0  0.83120  0.95510  0.55950  1.0000 0.1397753176
H   H228      1.0  0.16880  0.45510  0.44050  1.0000 0.1397753176
H   H229      1.0  0.79780  0.91650  0.59250  1.0000 0.1299897664
H   H230      1.0  0.20220  0.41650  0.40750  1.0000 0.1299897664
H   H231      1.0  0.46860  0.45270  0.46970  1.0000 0.1106974819
H   H232      1.0  0.53140  0.95270  0.53030  1.0000 0.1106974819
H   H233      1.0  0.12050  0.92770  0.37000  1.0000 0.1200653183
H   H234      1.0  0.87950  0.42770  0.63000  1.0000 0.1200653183
H   H235      1.0  0.90670  0.41940  0.37120  1.0000 0.1200653183
H   H236      1.0  0.09330  0.91940  0.62880  1.0000 0.1200653183
H   H237      1.0  0.34010  0.09920  0.08220  1.0000 0.1200653183
H   H238      1.0  0.65990  0.59920  0.91780  1.0000 0.1200653183
H   H239      1.0  0.63540  0.68170  0.43820  1.0000 0.1200653183
H   H240      1.0  0.36460  0.18170  0.56180  1.0000 0.1200653183
H   H241      1.0  0.61640  0.42690  0.66400  1.0000 0.1106974819
H   H242      1.0  0.38360  0.92690  0.33600  1.0000 0.1106974819
H   H243      1.0  0.68210  0.40610  0.65960  1.0000 0.1200653183
H   H244      1.0  0.31790  0.90610  0.34040  1.0000 0.1200653183
H   H245      1.0  0.65880  0.52950  0.66260  1.0000 0.1012544976
H   H246      1.0  0.34120  0.02950  0.33740  1.0000 0.1012544976
H   H247      1.0  0.57410  0.75590  0.13380  1.0000 0.1200653183
H   H248      1.0  0.42590  0.25590  0.86620  1.0000 0.1200653183
H   H249      1.0  0.61090  0.22640  0.85120  1.0000 0.1106974819
H   H250      1.0  0.38910  0.72640  0.14880  1.0000 0.1106974819
H   H251      1.0  0.65220  0.32980  0.85920  1.0000 0.1106974819
H   H252      1.0  0.34780  0.82980  0.14080  1.0000 0.1106974819
H   H253      1.0  0.67660  0.20670  0.86330  1.0000 0.1200653183
H   H254      1.0  0.32340  0.70670  0.13670  1.0000 0.1200653183
H   H255      1.0  0.69380  0.82610  0.42560  1.0000 0.1200653183
H   H256      1.0  0.30620  0.32610  0.57440  1.0000 0.1200653183
H   H257      1.0  0.01410  0.05990  0.93250  1.0000 0.1200653183
H   H258      1.0  0.98590  0.55990  0.06750  1.0000 0.1200653183
H   H259      1.0  0.63320  0.81720  0.09050  1.0000 0.1200653183
H   H260      1.0  0.36680  0.31720  0.90950  1.0000 0.1200653183
H   H261      1.0  0.86390  0.65820  0.93930  1.0000 0.1397753176
H   H262      1.0  0.13610  0.15820  0.06070  1.0000 0.1397753176
H   H263      1.0  0.81530  0.61710  0.90990  1.0000 0.1299897664
H   H264      1.0  0.18470  0.11710  0.09010  1.0000 0.1299897664
H   H265      1.0  0.87840  0.63540  0.89920  1.0000 0.1200653183
H   H266      1.0  0.12160  0.13540  0.10080  1.0000 0.1200653183
H   H267      1.0  0.83670  0.36210  0.46400  1.0000 0.1106974819
H   H268      1.0  0.16330  0.86210  0.53600  1.0000 0.1106974819
H   H269      1.0  0.04830  0.78310  0.03100  1.0000 0.1200653183
H   H270      1.0  0.95170  0.28310  0.96900  1.0000 0.1200653183
H   H271      1.0  0.65680  0.69040  0.04690  1.0000 0.1200653183
H   H272      1.0  0.34320  0.19040  0.95310  1.0000 0.1200653183
H   H273      1.0  0.13170  0.67350  0.03500  1.0000 0.1200653183
H   H274      1.0  0.86830  0.17350  0.96500  1.0000 0.1200653183
H   H275      1.0  0.85860  0.48930  0.41850  1.0000 0.1106974819
H   H276      1.0  0.14140  0.98930  0.58150  1.0000 0.1106974819
H   H277      1.0  0.06750  0.82450  0.13930  1.0000 0.1200653183
H   H278      1.0  0.93250  0.32450  0.86070  1.0000 0.1200653183
H   H279      1.0  0.86440  0.02430  0.64860  1.0000 0.1012544976
H   H280      1.0  0.13560  0.52430  0.35140  1.0000 0.1012544976
H   H281      1.0  0.84420  0.89860  0.65090  1.0000 0.1200653183
H   H282      1.0  0.15580  0.39860  0.34910  1.0000 0.1200653183
H   H283      1.0  0.90970  0.92900  0.65910  1.0000 0.1106974819
H   H284      1.0  0.09030  0.42900  0.34090  1.0000 0.1106974819
H   H285      1.0  0.36420  0.24130  0.12380  1.0000 0.1200653183
H   H286      1.0  0.63580  0.74130  0.87620  1.0000 0.1200653183
H   H287      1.0  0.56550  0.03910  0.43230  1.0000 0.1106974819
H   H288      1.0  0.43450  0.53910  0.56770  1.0000 0.1106974819
H   H289      1.0  0.87630  0.01620  0.05360  1.0000 0.1200653183
H   H290      1.0  0.12370  0.51620  0.94640  1.0000 0.1200653183
H   H291      1.0  0.36100  0.43650  0.35800  1.0000 0.1200653183
H   H292      1.0  0.63900  0.93650  0.64200  1.0000 0.1200653183
H   H293      1.0  0.86770  0.96490  0.38460  1.0000 0.1200653183
H   H294      1.0  0.13230  0.46490  0.61540  1.0000 0.1200653183
H   H295      1.0  0.59370  0.46760  0.38830  1.0000 0.1200653183
H   H296      1.0  0.40630  0.96760  0.61170  1.0000 0.1200653183
H   H297      1.0  0.11200  0.76000  0.46360  1.0000 0.1106974819
H   H298      1.0  0.88800  0.26000  0.53640  1.0000 0.1106974819
H   H299      1.0  0.14720  0.77300  0.40680  1.0000 0.1200653183
H   H300      1.0  0.85280  0.27300  0.59320  1.0000 0.1200653183
H   H301      1.0  0.37980  0.35830  0.46480  1.0000 0.1200653183
H   H302      1.0  0.62020  0.85830  0.53520  1.0000 0.1200653183
H   H303      1.0  0.33050  0.35030  0.40840  1.0000 0.1299897664
H   H304      1.0  0.66950  0.85030  0.59160  1.0000 0.1299897664
H   H305      1.0  0.18810  0.66000  0.09020  1.0000 0.1200653183
H   H306      1.0  0.81190  0.16000  0.90980  1.0000 0.1200653183
H   H307      1.0  0.15380  0.72350  0.14430  1.0000 0.1200653183
H   H308      1.0  0.84620  0.22350  0.85570  1.0000 0.1200653183
H   H309      1.0  0.86060  0.32030  0.10060  1.0000 0.1200653183
H   H310      1.0  0.13940  0.82030  0.89940  1.0000 0.1200653183
H   H311      1.0  0.82420  0.15630  0.07250  1.0000 0.1200653183
H   H312      1.0  0.17580  0.65630  0.92750  1.0000 0.1200653183
H   H313      1.0  0.96230  0.30620  0.11090  1.0000 0.1106974819
H   H314      1.0  0.03770  0.80620  0.88910  1.0000 0.1106974819
H   H315      1.0  0.77380  0.35110  0.03740  1.0000 0.1299897664
H   H316      1.0  0.22620  0.85110  0.96260  1.0000 0.1299897664
H   H317      1.0  0.71930  0.42860  0.02990  1.0000 0.1200653183
H   H318      1.0  0.28070  0.92860  0.97010  1.0000 0.1200653183
H   H319      1.0  0.74680  0.37090  0.99730  1.0000 0.1299897664
H   H320      1.0  0.25320  0.87090  0.00270  1.0000 0.1299897664
H   H321      1.0  0.01130  0.19940  0.07260  1.0000 0.1299897664
H   H322      1.0  0.98870  0.69940  0.92740  1.0000 0.1299897664
C   C1        1.0  0.66160  0.14710  0.06170  1.0000 0.2718399126
C   C2        1.0  0.33840  0.64710  0.93830  1.0000 0.2718399126
C   C3        1.0  0.72900  0.08080  0.12810  1.0000 0.0885720694
C   C4        1.0  0.27100  0.58080  0.87190  1.0000 0.0885720694
C   C5        1.0  0.61310  0.28280  0.09960  1.0000 0.0682539255
C   C6        1.0  0.38690  0.78280  0.90040  1.0000 0.0682539255
C   C7        1.0  0.48930  0.41080  0.05280  1.0000 0.0107928598
C   C8        1.0  0.51070  0.91080  0.94720  1.0000 0.0107928598
C   C9        1.0  0.68670  0.16410  0.12860  1.0000 -0.1896219667
C   C10       1.0  0.31330  0.66410  0.87140  1.0000 -0.1896219667
C   C11       1.0  0.70460  0.05880  0.06050  1.0000 -0.0504816908
C   C12       1.0  0.29540  0.55880  0.93950  1.0000 -0.0504816908
C   C13       1.0  0.51550  0.42040  0.95430  1.0000 -0.072260421
C   C14       1.0  0.48450  0.92040  0.04570  1.0000 -0.072260421
C   C15       1.0  0.56050  0.33970  0.94880  1.0000 0.2802902618
C   C16       1.0  0.43950  0.83970  0.05120  1.0000 0.2802902618
C   C17       1.0  0.49150  0.48640  0.92460  1.0000 -0.1896219667
C   C18       1.0  0.50850  0.98640  0.07540  1.0000 -0.1896219667
C   C19       1.0  0.71480  0.99850  0.02550  1.0000 0.3004096085
C   C20       1.0  0.28520  0.49850  0.97450  1.0000 0.3004096085
C   C21       1.0  0.55450  0.39970  0.88560  1.0000 -0.1896219667
C   C22       1.0  0.44550  0.89970  0.11440  1.0000 -0.1896219667
C   C23       1.0  0.58020  0.33310  0.91210  1.0000 -0.0223093658
C   C24       1.0  0.41980  0.83310  0.08790  1.0000 -0.0223093658
C   C25       1.0  0.54090  0.41650  0.08280  1.0000 -0.002817951
C   C26       1.0  0.45910  0.91650  0.91720  1.0000 -0.002817951
C   C27       1.0  0.65240  0.19670  0.09630  1.0000 -0.072260421
C   C28       1.0  0.34760  0.69670  0.90370  1.0000 -0.072260421
C   C29       1.0  0.83530  0.84230  0.41580  1.0000 -0.0898796644
C   C30       1.0  0.16470  0.34230  0.58420  1.0000 -0.0898796644
C   C31       1.0  0.82910  0.80330  0.45140  1.0000 0.246714861
C   C32       1.0  0.17090  0.30330  0.54860  1.0000 0.246714861
C   C33       1.0  0.79380  0.70710  0.45640  1.0000 -0.0504816908
C   C34       1.0  0.20620  0.20710  0.54360  1.0000 -0.0504816908
C   C35       1.0  0.81150  0.78130  0.38420  1.0000 -0.1973440549
C   C36       1.0  0.18850  0.28130  0.61580  1.0000 -0.1973440549
C   C37       1.0  0.78260  0.68060  0.38960  1.0000 0.0819863313
C   C38       1.0  0.21740  0.18060  0.61040  1.0000 0.0819863313
C   C39       1.0  0.52040  0.67580  0.44870  1.0000 0.0107928598
C   C40       1.0  0.47960  0.17580  0.55130  1.0000 0.0107928598
C   C41       1.0  0.51860  0.67580  0.51380  1.0000 0.0605158024
C   C42       1.0  0.48140  0.17580  0.48620  1.0000 0.0605158024
C   C43       1.0  0.79290  0.16140  0.31940  1.0000 0.6303249606
C   C44       1.0  0.20710  0.66140  0.68060  1.0000 0.6303249606
C   C45       1.0  0.59060  0.54260  0.59880  1.0000 -0.0504816908
C   C46       1.0  0.40940  0.04260  0.40120  1.0000 -0.0504816908
C   C47       1.0  0.57470  0.56230  0.56160  1.0000 0.2230456555
C   C48       1.0  0.42530  0.06230  0.43840  1.0000 0.2230456555
C   C49       1.0  0.53330  0.64530  0.55070  1.0000 -0.072260421
C   C50       1.0  0.46670  0.14530  0.44930  1.0000 -0.072260421
C   C51       1.0  0.91420  0.86920  0.95040  1.0000 0.2915723631
C   C52       1.0  0.08580  0.36920  0.04960  1.0000 0.2915723631
C   C53       1.0  0.91470  0.77090  0.09860  1.0000 0.0605158024
C   C54       1.0  0.08530  0.27090  0.90140  1.0000 0.0605158024
C   C55       1.0  0.99490  0.88380  0.08520  1.0000 0.0038015394
C   C56       1.0  0.00510  0.38380  0.91480  1.0000 0.0038015394
C   C57       1.0  0.94170  0.07730  0.41980  1.0000 0.0038015394
C   C58       1.0  0.05830  0.57730  0.58020  1.0000 0.0038015394
C   C59       1.0  0.94490  0.01100  0.55650  1.0000 0.246714861
C   C60       1.0  0.05510  0.51100  0.44350  1.0000 0.246714861
C   C61       1.0  0.99830  0.07090  0.44620  1.0000 0.0038015394
C   C62       1.0  0.00170  0.57090  0.55380  1.0000 0.0038015394
C   C63       1.0  0.00420  0.09870  0.51080  1.0000 0.0682539255
C   C64       1.0  0.99580  0.59870  0.48920  1.0000 0.0682539255
C   C65       1.0  0.85120  0.65270  0.05780  1.0000 0.246714861
C   C66       1.0  0.14880  0.15270  0.94220  1.0000 0.246714861
C   C67       1.0  0.98940  0.98350  0.05620  1.0000 0.0107928598
C   C68       1.0  0.01060  0.48350  0.94380  1.0000 0.0107928598
C   C69       1.0  0.99110  0.08400  0.54740  1.0000 -0.0605259343
C   C70       1.0  0.00890  0.58400  0.45260  1.0000 -0.0605259343
C   C71       1.0  0.64450  0.36940  0.42330  1.0000 -0.072260421
C   C72       1.0  0.35550  0.86940  0.57670  1.0000 -0.072260421
C   C73       1.0  0.56250  0.76850  0.44090  1.0000 0.0682539255
C   C74       1.0  0.43750  0.26850  0.55910  1.0000 0.0682539255
C   C75       1.0  0.52180  0.57480  0.42210  1.0000 0.0038015394
C   C76       1.0  0.47820  0.07480  0.57790  1.0000 0.0038015394
C   C77       1.0  0.72200  0.19940  0.43910  1.0000 -0.1896219667
C   C78       1.0  0.27800  0.69940  0.56090  1.0000 -0.1896219667
C   C79       1.0  0.81010  0.56490  0.05460  1.0000 -0.0504816908
C   C80       1.0  0.18990  0.06490  0.94540  1.0000 -0.0504816908
C   C81       1.0  0.77330  0.64940  0.42510  1.0000 -0.1973440549
C   C82       1.0  0.22670  0.14940  0.57490  1.0000 -0.1973440549
C   C83       1.0  0.71460  0.24020  0.40300  1.0000 0.0885720694
C   C84       1.0  0.28540  0.74020  0.59700  1.0000 0.0885720694
C   C85       1.0  0.78260  0.53320  0.08530  1.0000 -0.1805123206
C   C86       1.0  0.21740  0.03320  0.91470  1.0000 -0.1805123206
C   C87       1.0  0.65430  0.33280  0.45960  1.0000 0.2802902618
C   C88       1.0  0.34570  0.83280  0.54040  1.0000 0.2802902618
C   C89       1.0  0.67560  0.32420  0.39590  1.0000 -0.1651767633
C   C90       1.0  0.32440  0.82420  0.60410  1.0000 -0.1651767633
C   C91       1.0  0.74970  0.18810  0.37700  1.0000 -0.0821862293
C   C92       1.0  0.25030  0.68810  0.62300  1.0000 -0.0821862293
C   C93       1.0  0.76620  0.05840  0.16050  1.0000 -0.0504816908
C   C94       1.0  0.23380  0.55840  0.83950  1.0000 -0.0504816908
C   C95       1.0  0.49500  0.43560  0.98800  1.0000 0.0682539255
C   C96       1.0  0.50500  0.93560  0.01200  1.0000 0.0682539255
C   C97       1.0  0.50600  0.70530  0.57750  1.0000 -0.1973440549
C   C98       1.0  0.49400  0.20530  0.42250  1.0000 -0.1973440549
C   C99       1.0  0.44600  0.31530  0.06060  1.0000 0.0682539255
C   C100      1.0  0.55400  0.81530  0.93940  1.0000 0.0682539255
C   C101      1.0  0.76800  0.60330  0.35940  1.0000 -0.0898796644
C   C102      1.0  0.23200  0.10330  0.64060  1.0000 -0.0898796644
C   C103      1.0  0.98260  0.97680  0.99190  1.0000 0.0605158024
C   C104      1.0  0.01740  0.47680  0.00810  1.0000 0.0605158024
C   C105      1.0  0.79350  0.50550  0.01780  1.0000 0.3004096085
C   C106      1.0  0.20650  0.00550  0.98220  1.0000 0.3004096085
C   C107      1.0  0.48950  0.55910  0.86210  1.0000 -0.0821862293
C   C108      1.0  0.51050  0.05910  0.13790  1.0000 -0.0821862293
C   C109      1.0  0.83530  0.78210  0.90430  1.0000 0.2802902618
C   C110      1.0  0.16470  0.28210  0.09570  1.0000 0.2802902618
C   C111      1.0  0.71610  0.49160  0.14990  1.0000 -0.2849515817
C   C112      1.0  0.28390  0.99160  0.85010  1.0000 -0.2849515817
C   C113      1.0  0.00650  0.15380  0.60950  1.0000 0.0885720694
C   C114      1.0  0.99350  0.65380  0.39050  1.0000 0.0885720694
C   C115      1.0  0.63720  0.46030  0.61120  1.0000 0.2915723631
C   C116      1.0  0.36280  0.96030  0.38880  1.0000 0.2915723631
C   C117      1.0  0.46460  0.51180  0.41850  1.0000 0.0605158024
C   C118      1.0  0.53540  0.01180  0.58150  1.0000 0.0605158024
C   C119      1.0  0.89000  0.85530  0.91300  1.0000 -0.0373153156
C   C120      1.0  0.11000  0.35530  0.08700  1.0000 -0.0373153156
C   C121      1.0  0.75780  0.89940  0.03180  1.0000 -0.4986367465
C   C122      1.0  0.24220  0.39940  0.96820  1.0000 -0.4986367465
C   C123      1.0  0.79540  0.59960  0.32860  1.0000 -0.2360001421
C   C124      1.0  0.20460  0.09960  0.67140  1.0000 -0.2360001421
C   C125      1.0  0.61790  0.13360  0.91460  1.0000 -0.4683443746
C   C126      1.0  0.38210  0.63360  0.08540  1.0000 -0.4683443746
C   C127      1.0  0.81060  0.98910  0.16490  1.0000 -0.2907928816
C   C128      1.0  0.18940  0.48910  0.83510  1.0000 -0.2907928816
C   C129      1.0  0.76530  0.54780  0.15070  1.0000 -0.0605259343
C   C130      1.0  0.23470  0.04780  0.84930  1.0000 -0.0605259343
C   C131      1.0  0.95490  0.07500  0.06700  1.0000 0.0682539255
C   C132      1.0  0.04510  0.57500  0.93300  1.0000 0.0682539255
C   C133      1.0  0.88320  0.93150  0.60560  1.0000 0.2718399126
C   C134      1.0  0.11680  0.43150  0.39440  1.0000 0.2718399126
C   C135      1.0  0.93190  0.01010  0.59400  1.0000 -0.0252689003
C   C136      1.0  0.06810  0.51010  0.40600  1.0000 -0.0252689003
C   C137      1.0  0.83930  0.66000  0.12450  1.0000 -0.1896219667
C   C138      1.0  0.16070  0.16000  0.87550  1.0000 -0.1896219667
C   C139      1.0  0.66140  0.95240  0.00560  1.0000 -0.4986367465
C   C140      1.0  0.33860  0.45240  0.99440  1.0000 -0.4986367465
C   C141      1.0  0.63120  0.25280  0.90490  1.0000 0.2718399126
C   C142      1.0  0.36880  0.75280  0.09510  1.0000 0.2718399126
C   C143      1.0  0.48830  0.75180  0.64000  1.0000 -0.072260421
C   C144      1.0  0.51170  0.25180  0.36000  1.0000 -0.072260421
C   C145      1.0  0.69010  0.45870  0.18220  1.0000 0.6303249606
C   C146      1.0  0.30990  0.95870  0.81780  1.0000 0.6303249606
C   C147      1.0  0.68430  0.29380  0.92800  1.0000 -0.4612138114
C   C148      1.0  0.31570  0.79380  0.07200  1.0000 -0.4612138114
C   C149      1.0  0.54280  0.87710  0.43690  1.0000 -0.1585567399
C   C150      1.0  0.45720  0.37710  0.56310  1.0000 -0.1585567399
C   C151      1.0  0.91490  0.91060  0.88540  1.0000 -0.1973440549
C   C152      1.0  0.08510  0.41060  0.11460  1.0000 -0.1973440549
C   C153      1.0  0.79650  0.58240  0.11990  1.0000 0.0885720694
C   C154      1.0  0.20350  0.08240  0.88010  1.0000 0.0885720694
C   C155      1.0  0.96130  0.08100  0.61800  1.0000 -0.1896219667
C   C156      1.0  0.03870  0.58100  0.38200  1.0000 -0.1896219667
C   C157      1.0  0.75460  0.22090  0.34170  1.0000 -0.2563342592
C   C158      1.0  0.24540  0.72090  0.65830  1.0000 -0.2563342592
C   C159      1.0  0.78120  0.51680  0.29950  1.0000 0.609907017
C   C160      1.0  0.21880  0.01680  0.70050  1.0000 0.609907017
C   C161      1.0  0.78670  0.82750  0.92590  1.0000 -0.4806559145
C   C162      1.0  0.21330  0.32750  0.07410  1.0000 -0.4806559145
C   C163      1.0  0.73460  0.03000  0.09360  1.0000 -0.1973440549
C   C164      1.0  0.26540  0.53000  0.90640  1.0000 -0.1973440549
C   C165      1.0  0.05810  0.34330  0.68940  1.0000 0.6011377731
C   C166      1.0  0.94190  0.84330  0.31060  1.0000 0.6011377731
C   C167      1.0  0.49270  0.74440  0.67530  1.0000 -0.2489956981
C   C168      1.0  0.50730  0.24440  0.32470  1.0000 -0.2489956981
C   C169      1.0  0.03450  0.22910  0.63570  1.0000 -0.0605259343
C   C170      1.0  0.96550  0.72910  0.36430  1.0000 -0.0605259343
C   C171      1.0  0.99920  0.12580  0.80280  1.0000 0.5906547764
C   C172      1.0  0.00080  0.62580  0.19720  1.0000 0.5906547764
C   C173      1.0  0.01820  0.15410  0.57420  1.0000 -0.1896219667
C   C174      1.0  0.98180  0.65410  0.42580  1.0000 -0.1896219667
C   C175      1.0  0.46200  0.82100  0.69770  1.0000 0.6512319305
C   C176      1.0  0.53800  0.32100  0.30230  1.0000 0.6512319305
C   C177      1.0  0.43200  0.23040  0.03540  1.0000 -0.1585567399
C   C178      1.0  0.56800  0.73040  0.96460  1.0000 -0.1585567399
C   C179      1.0  0.48370  0.65250  0.80400  1.0000 0.6011377731
C   C180      1.0  0.51630  0.15250  0.19600  1.0000 0.6011377731
C   C181      1.0  0.97110  0.04500  0.82660  1.0000 -0.228577693
C   C182      1.0  0.02890  0.54500  0.17340  1.0000 -0.228577693
C   C183      1.0  0.73260  0.26750  0.53190  1.0000 -0.4806559145
C   C184      1.0  0.26740  0.76750  0.46810  1.0000 -0.4806559145
C   C185      1.0  0.42030  0.32000  0.09340  1.0000 -0.1585567399
C   C186      1.0  0.57970  0.82000  0.90660  1.0000 -0.1585567399
C   C187      1.0  0.81370  0.78300  0.86470  1.0000 -0.4478168442
C   C188      1.0  0.18630  0.28300  0.13530  1.0000 -0.4478168442
C   C189      1.0  0.64460  0.15020  0.51910  1.0000 -0.48881738
C   C190      1.0  0.35540  0.65020  0.48090  1.0000 -0.48881738
C   C191      1.0  0.75190  0.75650  0.51390  1.0000 -0.48881738
C   C192      1.0  0.24810  0.25650  0.48610  1.0000 -0.48881738
C   C193      1.0  0.04870  0.81410  0.08510  1.0000 0.0605158024
C   C194      1.0  0.95130  0.31410  0.91490  1.0000 0.0605158024
C   C195      1.0  0.62020  0.34030  0.59930  1.0000 -0.4683443746
C   C196      1.0  0.37980  0.84030  0.40070  1.0000 -0.4683443746
C   C197      1.0  0.98790  0.04500  0.86250  1.0000 -0.1089463859
C   C198      1.0  0.01210  0.54500  0.13750  1.0000 -0.1089463859
C   C199      1.0  0.02810  0.25610  0.66880  1.0000 -0.2669613651
C   C200      1.0  0.97190  0.75610  0.33120  1.0000 -0.2669613651
C   C201      1.0  0.76270  0.59060  0.99040  1.0000 -0.48881738
C   C202      1.0  0.23730  0.09060  0.00960  1.0000 -0.4806559145
C   C203      1.0  0.69560  0.50350  0.59710  1.0000 -0.4612138114
C   C204      1.0  0.30440  0.00350  0.40290  1.0000 -0.4612138114
C   C205      1.0  0.39220  0.15120  0.04470  1.0000 -0.0898796644
C   C206      1.0  0.60780  0.65120  0.95530  1.0000 -0.0898796644
C   C207      1.0  0.89900  0.80690  0.59860  1.0000 -0.4612138114
C   C208      1.0  0.10100  0.30690  0.40140  1.0000 -0.4612138114
C   C209      1.0  0.74320  0.56270  0.49090  1.0000 -0.48881738
C   C210      1.0  0.25680  0.06270  0.50910  1.0000 -0.48881738
C   C211      1.0  0.83960  0.62820  0.51460  1.0000 -0.48881738
C   C212      1.0  0.16040  0.12820  0.48540  1.0000 -0.48881738
C   C213      1.0  0.70200  0.18580  0.50390  1.0000 0.3004096085
C   C214      1.0  0.29800  0.68580  0.49610  1.0000 0.3004096085
C   C215      1.0  0.43320  0.50460  0.38490  1.0000 -0.1585567399
C   C216      1.0  0.56680  0.00460  0.61510  1.0000 -0.1585567399
C   C217      1.0  0.50490  0.56070  0.82800  1.0000 -0.2563342592
C   C218      1.0  0.49510  0.06070  0.17200  1.0000 -0.2563342592
C   C219      1.0  0.84710  0.46200  0.00320  1.0000 -0.4806559145
C   C220      1.0  0.15290  0.96200  0.99680  1.0000 -0.4806559145
C   C221      1.0  0.51000  0.48230  0.89020  1.0000 0.1012544976
C   C222      1.0  0.49000  0.98230  0.10980  1.0000 0.1012544976
C   C223      1.0  0.78220  0.66430  0.49410  1.0000 0.3004096085
C   C224      1.0  0.21780  0.16430  0.50590  1.0000 0.3004096085
C   C225      1.0  0.05870  0.89490  0.45830  1.0000 -0.1585567399
C   C226      1.0  0.94130  0.39490  0.54170  1.0000 -0.1513129389
C   C227      1.0  0.03960  0.98250  0.43580  1.0000 0.0682539255
C   C228      1.0  0.96040  0.48250  0.56420  1.0000 0.0682539255
C   C229      1.0  0.56880  0.52920  0.08500  1.0000 0.0682539255
C   C230      1.0  0.43120  0.02920  0.91500  1.0000 0.0682539255
C   C231      1.0  0.51960  0.68660  0.61410  1.0000 0.0885720694
C   C232      1.0  0.48040  0.18660  0.38590  1.0000 0.0885720694
C   C233      1.0  0.56190  0.60620  0.62370  1.0000 -0.1896219667
C   C234      1.0  0.43810  0.10620  0.37630  1.0000 -0.1896219667
C   C235      1.0  0.91420  0.19220  0.41910  1.0000 0.0605158024
C   C236      1.0  0.08580  0.69220  0.58090  1.0000 0.0605158024
C   C237      1.0  0.06350  0.99060  0.40260  1.0000 -0.1585567399
C   C238      1.0  0.93650  0.49060  0.59740  1.0000 -0.1585567399
C   C239      1.0  0.74240  0.08410  0.99890  1.0000 -0.4806559145
C   C240      1.0  0.25760  0.58410  0.00110  1.0000 -0.4806559145
C   C241      1.0  0.60780  0.56260  0.06140  1.0000 -0.1513129389
C   C242      1.0  0.39220  0.06260  0.93860  1.0000 -0.1513129389
C   C243      1.0  0.55610  0.60210  0.11270  1.0000 -0.1585567399
C   C244      1.0  0.44390  0.10210  0.88730  1.0000 -0.1585567399
C   C245      1.0  0.73880  0.07670  0.50410  1.0000 -0.48881738
C   C246      1.0  0.26120  0.57670  0.49590  1.0000 -0.48881738
C   C247      1.0  0.92380  0.26340  0.39060  1.0000 -0.1513129389
C   C248      1.0  0.07620  0.76340  0.60940  1.0000 -0.1585567399
C   C249      1.0  0.63530  0.94910  0.42280  1.0000 -0.0898796644
C   C250      1.0  0.36470  0.44910  0.57720  1.0000 -0.0898796644
C   C251      1.0  0.88140  0.22970  0.44620  1.0000 -0.1513129389
C   C252      1.0  0.11860  0.72970  0.55380  1.0000 -0.1513129389
C   C253      1.0  0.82820  0.96390  0.58530  1.0000 -0.4683443746
C   C254      1.0  0.17180  0.46390  0.41470  1.0000 -0.4683443746
C   C255      1.0  0.44580  0.45290  0.44750  1.0000 -0.1513129389
C   C256      1.0  0.55420  0.95290  0.55250  1.0000 -0.1513129389
C   C257      1.0  0.10440  0.91690  0.39200  1.0000 -0.0898796644
C   C258      1.0  0.89560  0.41690  0.60800  1.0000 -0.0898796644
C   C259      1.0  0.90110  0.37240  0.39080  1.0000 -0.072260421
C   C260      1.0  0.09890  0.87240  0.60920  1.0000 -0.072260421
C   C261      1.0  0.36670  0.15420  0.07710  1.0000 -0.0992967763
C   C262      1.0  0.63330  0.65420  0.92290  1.0000 -0.0992967763
C   C263      1.0  0.61980  0.75380  0.43590  1.0000 -0.1585567399
C   C264      1.0  0.38020  0.25380  0.56410  1.0000 -0.1585567399
C   C265      1.0  0.64980  0.45520  0.65340  1.0000 -0.4478168442
C   C266      1.0  0.35020  0.95520  0.34660  1.0000 -0.4478168442
C   C267      1.0  0.58180  0.70800  0.11480  1.0000 -0.0898796644
C   C268      1.0  0.41820  0.20800  0.88520  1.0000 -0.0898796644
C   C269      1.0  0.64380  0.25400  0.86630  1.0000 -0.4478168442
C   C270      1.0  0.35620  0.75400  0.13370  1.0000 -0.4478168442
C   C271      1.0  0.65500  0.84100  0.42780  1.0000 -0.0821862293
C   C272      1.0  0.34500  0.34100  0.57220  1.0000 -0.0821862293
C   C273      1.0  0.98440  0.00770  0.92780  1.0000 -0.1805123206
C   C274      1.0  0.01560  0.50770  0.07220  1.0000 -0.1805123206
C   C275      1.0  0.86800  0.69800  0.09290  1.0000 -0.072260421
C   C276      1.0  0.13200  0.19800  0.90710  1.0000 -0.072260421
C   C277      1.0  0.96210  0.95040  0.95680  1.0000 -0.0605259343
C   C278      1.0  0.03790  0.45040  0.04320  1.0000 -0.0605259343
C   C279      1.0  0.96200  0.98640  0.89140  1.0000 0.1106974819
C   C280      1.0  0.03800  0.48640  0.10860  1.0000 0.1106974819
C   C281      1.0  0.61810  0.74440  0.08970  1.0000 -0.0992967763
C   C282      1.0  0.38190  0.24440  0.91030  1.0000 -0.0992967763
C   C283      1.0  0.84950  0.66250  0.91410  1.0000 -0.4612138114
C   C284      1.0  0.15050  0.16250  0.08590  1.0000 -0.4612138114
C   C285      1.0  0.85940  0.33920  0.44570  1.0000 -0.0821862293
C   C286      1.0  0.14060  0.83920  0.55430  1.0000 -0.0821862293
C   C287      1.0  0.06880  0.77040  0.05360  1.0000 -0.1585567399
C   C288      1.0  0.93120  0.27040  0.94640  1.0000 -0.1585567399
C   C289      1.0  0.63120  0.66900  0.06370  1.0000 -0.0898796644
C   C290      1.0  0.36880  0.16900  0.93630  1.0000 -0.0898796644
C   C291      1.0  0.11960  0.70750  0.05580  1.0000 -0.0821862293
C   C292      1.0  0.88040  0.20750  0.94420  1.0000 -0.0821862293
C   C293      1.0  0.87070  0.41460  0.41830  1.0000 -0.0992967763
C   C294      1.0  0.12930  0.91460  0.58170  1.0000 -0.0992967763
C   C295      1.0  0.08120  0.79550  0.11820  1.0000 -0.1585567399
C   C296      1.0  0.91880  0.29550  0.88180  1.0000 -0.1585567399
C   C297      1.0  0.87470  0.94720  0.64440  1.0000 -0.4478168442
C   C298      1.0  0.12530  0.44720  0.35560  1.0000 -0.4478168442
C   C299      1.0  0.38090  0.23870  0.10180  1.0000 -0.0898796644
C   C300      1.0  0.61910  0.73870  0.89820  1.0000 -0.0898796644
C   C301      1.0  0.57930  0.96570  0.43080  1.0000 -0.0898796644
C   C302      1.0  0.42070  0.46570  0.56920  1.0000 -0.0898796644
C   C303      1.0  0.89610  0.07770  0.06430  1.0000 -0.1805123206
C   C304      1.0  0.10390  0.57770  0.93570  1.0000 -0.1805123206
C   C305      1.0  0.38230  0.44260  0.38060  1.0000 -0.0898796644
C   C306      1.0  0.61770  0.94260  0.61940  1.0000 -0.0898796644
C   C307      1.0  0.87020  0.93760  0.40840  1.0000 0.0605158024
C   C308      1.0  0.12980  0.43760  0.59160  1.0000 0.0605158024
C   C309      1.0  0.60140  0.45050  0.41300  1.0000 0.0499070519
C   C310      1.0  0.39860  0.95050  0.58700  1.0000 0.0499070519
C   C311      1.0  0.09950  0.81810  0.44770  1.0000 -0.0898796644
C   C312      1.0  0.90050  0.31810  0.55230  1.0000 -0.0898796644
C   C313      1.0  0.12150  0.82660  0.41420  1.0000 -0.0898796644
C   C314      1.0  0.87850  0.32660  0.58580  1.0000 -0.0898796644
C   C315      1.0  0.39380  0.39360  0.44480  1.0000 -0.0821862293
C   C316      1.0  0.60620  0.89360  0.55520  1.0000 -0.0821862293
C   C317      1.0  0.36490  0.39070  0.41110  1.0000 -0.0992967763
C   C318      1.0  0.63510  0.89070  0.58890  1.0000 -0.0992967763
C   C319      1.0  0.15240  0.69570  0.08940  1.0000 -0.0898796644
C   C320      1.0  0.84760  0.19570  0.91060  1.0000 -0.0898796644
C   C321      1.0  0.13320  0.73570  0.12170  1.0000 -0.0898796644
C   C322      1.0  0.86680  0.23570  0.87830  1.0000 -0.0898796644
C   C323      1.0  0.84780  0.97360  0.19660  1.0000 0.609907017
C   C324      1.0  0.15220  0.47360  0.80340  1.0000 0.609907017
C   C325      1.0  0.88300  0.26160  0.09280  1.0000 -0.0992967763
C   C326      1.0  0.11700  0.76160  0.90720  1.0000 -0.0992967763
C   C327      1.0  0.86410  0.16470  0.07620  1.0000 -0.0992967763
C   C328      1.0  0.13590  0.66470  0.92380  1.0000 -0.0992967763
C   C329      1.0  0.69360  0.23680  0.46710  1.0000 -0.0504816908
C   C330      1.0  0.30640  0.73680  0.53290  1.0000 -0.0504816908
C   C331      1.0  0.94200  0.25470  0.09550  1.0000 -0.0898796644
C   C332      1.0  0.05800  0.75470  0.90450  1.0000 -0.0898796644
C   C333      1.0  0.75490  0.40500  0.02090  1.0000 -0.4806559145
C   C334      1.0  0.24510  0.90500  0.97910  1.0000 -0.4806559145
C   C335      1.0  0.97430  0.17850  0.07760  1.0000 -0.1896219667
C   C336      1.0  0.02570  0.67850  0.92240  1.0000 -0.1896219667
N   N1        1.0  0.57900  0.32470  0.07380  1.0000 -0.2168789311
N   N2        1.0  0.42100  0.82470  0.92620  1.0000 -0.2168789311
N   N3        1.0  0.51590  0.39040  0.01810  1.0000 -0.2360001421
N   N4        1.0  0.48410  0.89040  0.98190  1.0000 -0.2360001421
N   N5        1.0  0.97670  0.05100  0.48327  1.0000 -0.2360001421
N   N6        1.0  0.02330  0.55100  0.51673  1.0000 -0.2360001421
N   N7        1.0  0.90530  0.98910  0.43290  1.0000 -0.228577693
N   N8        1.0  0.09470  0.48910  0.56710  1.0000 -0.228577693
N   N9        1.0  0.57170  0.50290  0.43690  1.0000 -0.2489956981
N   N10       1.0  0.42830  0.00290  0.56310  1.0000 -0.2489956981
N   N11       1.0  0.53800  0.62730  0.48530  1.0000 -0.228577693
N   N12       1.0  0.46200  0.12730  0.51470  1.0000 -0.228577693
N   N13       1.0  0.94300  0.81610  0.07420  1.0000 -0.2168789311
N   N14       1.0  0.05700  0.31610  0.92580  1.0000 -0.2168789311
N   N15       1.0  0.96710  0.93610  0.02190  1.0000 -0.228577693
N   N16       1.0  0.03290  0.43610  0.97810  1.0000 -0.228577693
Cl  Cl1       1.0  0.67174  0.21170  0.24357  1.0000 -0.540971621
Cl  Cl2       1.0  0.32826  0.71170  0.75643  1.0000 -0.540971621
O   O1        1.0  0.63540  0.18460  0.03118  1.0000 -0.4296626514
O   O2        1.0  0.36460  0.68460  0.96882  1.0000 -0.4296626514
O   O3        1.0  0.58290  0.27410  0.97453  1.0000 -0.4296626514
O   O4        1.0  0.41710  0.77410  0.02547  1.0000 -0.4296626514
O   O5        1.0  0.85360  0.85400  0.48036  1.0000 -0.4296626514
O   O6        1.0  0.14640  0.35400  0.51964  1.0000 -0.4296626514
O   O7        1.0  0.80070  0.19860  0.28760  1.0000 -0.595388963
O   O8        1.0  0.19930  0.69860  0.71240  1.0000 -0.595388963
O   O9        1.0  0.46180  0.80070  0.73210  1.0000 -0.5895854375
O   O10       1.0  0.53820  0.30070  0.26790  1.0000 -0.5895854375
O   O11       1.0  0.71650  0.46360  0.21334  1.0000 -0.562316849
O   O12       1.0  0.28350  0.96360  0.78666  1.0000 -0.562316849
O   O13       1.0  0.45340  0.72920  0.81090  1.0000 -0.48881738
O   O14       1.0  0.54660  0.22920  0.18910  1.0000 -0.48881738
O   O15       1.0  0.91770  0.94480  0.53154  1.0000 -0.4429622507
O   O16       1.0  0.08230  0.44480  0.46846  1.0000 -0.4429622507
O   O17       1.0  0.63870  0.41970  0.17730  1.0000 -0.5684979698
O   O18       1.0  0.36130  0.91970  0.82270  1.0000 -0.5684979698
O   O19       1.0  0.81430  0.06610  0.32860  1.0000 -0.5498918237
O   O20       1.0  0.18570  0.56610  0.67140  1.0000 -0.5498918237
O   O21       1.0  0.73510  0.45960  0.29929  1.0000 -0.5498918237
O   O22       1.0  0.26490  0.95960  0.70071  1.0000 -0.5498918237
O   O23       1.0  0.62920  0.37540  0.48642  1.0000 -0.411274328
O   O24       1.0  0.37080  0.87540  0.51358  1.0000 -0.411274328
O   O25       1.0  0.59830  0.49990  0.53712  1.0000 -0.4429622507
O   O26       1.0  0.40170  0.99990  0.46288  1.0000 -0.4429622507
O   O27       1.0  0.81700  0.49300  0.27740  1.0000 -0.540971621
O   O28       1.0  0.18300  0.99300  0.72260  1.0000 -0.540971621
O   O29       1.0  0.84900  0.04460  0.22373  1.0000 -0.5812111488
O   O30       1.0  0.15100  0.54460  0.77627  1.0000 -0.5812111488
O   O31       1.0  0.98430  0.13570  0.77100  1.0000 -0.5161725423
O   O32       1.0  0.01570  0.63570  0.22900  1.0000 -0.5161725423
O   O33       1.0  0.87770  0.88470  0.19890  1.0000 -0.5895854375
O   O34       1.0  0.12230  0.38470  0.80110  1.0000 -0.5895854375
O   O35       1.0  0.87380  0.69200  0.02879  1.0000 -0.4296626514
O   O36       1.0  0.12620  0.19200  0.97121  1.0000 -0.4296626514
O   O37       1.0  0.89470  0.81250  0.97621  1.0000 -0.4190856954
O   O38       1.0  0.10530  0.31250  0.02379  1.0000 -0.4190856954
O   O39       1.0  0.04930  0.37480  0.72021  1.0000 -0.540971621
O   O40       1.0  0.95070  0.87480  0.27979  1.0000 -0.540971621
O   O41       1.0  0.43290  0.90010  0.68260  1.0000 -0.5498918237
O   O42       1.0  0.56710  0.40010  0.31740  1.0000 -0.5498918237
O   O43       1.0  0.50040  0.63600  0.76870  1.0000 -0.48881738
O   O44       1.0  0.49960  0.13600  0.23130  1.0000 -0.48881738
O   O45       1.0  0.09490  0.39820  0.67440  1.0000 -0.4986367465
O   O46       1.0  0.90510  0.89820  0.32560  1.0000 -0.4986367465
O   O47       1.0  0.04480  0.18060  0.81670  1.0000 -0.5812111488
O   O48       1.0  0.95520  0.68060  0.18330  1.0000 -0.5812111488
