# DDEC6 charges by PACMAN v1.1 (https://github.com/mtap-research/PACMAN-charge/)
data_2013[Tb][nan]3[ASR]2
_chemical_formula_sum              "Tb4 H60 C90 S6 O48"
_cell_length_a       9.2574
_cell_length_b       15.601
_cell_length_c       22.274
_cell_angle_alpha    102.19
_cell_angle_beta     101.58
_cell_angle_gamma    104.32

_symmetry_space_group_name_H-M    "P 1"
_symmetry_Int_Tables_number       1

loop_
  _symmetry_equiv_pos_as_xyz
  'x, y, z'

loop_
  _atom_site_type_symbol
  _atom_site_label
  _atom_site_symmetry_multiplicity
  _atom_site_fract_x
  _atom_site_fract_y
  _atom_site_fract_z
  _atom_site_occupancy
  _atom_site_charge
Tb  Tb1       1.0  0.51525  0.86058  0.80217  1.0000 2.1181272071
Tb  Tb2       1.0  0.03181  0.91189  0.85582  1.0000 2.1278186839
Tb  Tb3       1.0  0.48475  0.13942  0.19783  1.0000 2.1181272071
Tb  Tb4       1.0  0.96819  0.08811  0.14418  1.0000 2.1278186839
H   H1        1.0  0.87400  0.83310  0.66667  1.0000 0.1291144667
H   H2        1.0  0.74690  0.83410  0.56790  1.0000 0.1291144667
H   H3        1.0  0.28100  0.91780  0.62800  1.0000 0.1500261675
H   H4        1.0  0.67140  0.78320  0.45090  1.0000 0.1291144667
H   H5        1.0  0.66590  0.88250  0.48030  1.0000 0.1109346047
H   H6        1.0  0.68100  0.85450  0.41060  1.0000 0.121063989
H   H7        1.0  0.98450  0.84890  0.36970  1.0000 0.1291144667
H   H8        1.0  0.96940  0.90810  0.28130  1.0000 0.1291144667
H   H9        1.0  0.42970  0.01170  0.33160  1.0000 0.1291144667
H   H10       1.0  0.44580  0.95740  0.41880  1.0000 0.1291144667
H   H11       1.0  0.00490  0.66450  0.90730  1.0000 0.1291144667
H   H12       1.0  0.94730  0.52310  0.92730  1.0000 0.1291144667
H   H13       1.0  0.28030  0.46560  0.85070  1.0000 0.1291144667
H   H14       1.0  0.34070  0.60960  0.83290  1.0000 0.1353070191
H   H15       1.0  0.12180  0.26490  0.02200  1.0000 0.1500261675
H   H16       1.0  0.50170  0.18730  0.03050  1.0000 0.1291144667
H   H17       1.0  0.58850  0.28550  0.97430  1.0000 0.1291144667
H   H18       1.0  0.68430  0.45330  0.96310  1.0000 0.121063989
H   H19       1.0  0.62140  0.36270  0.90690  1.0000 0.121063989
H   H20       1.0  0.61310  0.45650  0.89380  1.0000 0.121063989
H   H21       1.0  0.59420  0.56310  0.80110  1.0000 0.1500261675
H   H22       1.0  0.99340  0.56120  0.70670  1.0000 0.1291144667
H   H23       1.0  0.93000  0.69400  0.73350  1.0000 0.1291144667
H   H24       1.0  0.94940  0.39220  0.65120  1.0000 0.1291144667
H   H25       1.0  0.07700  0.44080  0.71580  1.0000 0.1109346047
H   H26       1.0  0.00330  0.33370  0.69530  1.0000 0.1291144667
H   H27       1.0  0.26220  0.27290  0.79280  1.0000 0.1291144667
H   H28       1.0  0.22880  0.15440  0.84010  1.0000 0.1291144667
H   H29       1.0  0.59070  0.09340  0.79170  1.0000 0.121063989
H   H30       1.0  0.62520  0.21130  0.74260  1.0000 0.1291144667
H   H31       1.0  0.12600  0.16690  0.33333  1.0000 0.1291144667
H   H32       1.0  0.25310  0.16590  0.43210  1.0000 0.1291144667
H   H33       1.0  0.71900  0.08220  0.37200  1.0000 0.1500261675
H   H34       1.0  0.32860  0.21680  0.54910  1.0000 0.1291144667
H   H35       1.0  0.33410  0.11750  0.51970  1.0000 0.1109346047
H   H36       1.0  0.31900  0.14550  0.58940  1.0000 0.121063989
H   H37       1.0  0.01550  0.15110  0.63030  1.0000 0.1291144667
H   H38       1.0  0.03060  0.09190  0.71870  1.0000 0.1291144667
H   H39       1.0  0.57030  0.98830  0.66840  1.0000 0.1291144667
H   H40       1.0  0.55420  0.04260  0.58120  1.0000 0.1291144667
H   H41       1.0  0.99510  0.33550  0.09270  1.0000 0.1291144667
H   H42       1.0  0.05270  0.47690  0.07270  1.0000 0.1291144667
H   H43       1.0  0.71970  0.53440  0.14930  1.0000 0.1291144667
H   H44       1.0  0.65930  0.39040  0.16710  1.0000 0.1353070191
H   H45       1.0  0.87820  0.73510  0.97800  1.0000 0.1500261675
H   H46       1.0  0.49830  0.81270  0.96950  1.0000 0.1291144667
H   H47       1.0  0.41150  0.71450  0.02570  1.0000 0.1353070191
H   H48       1.0  0.31570  0.54670  0.03690  1.0000 0.121063989
H   H49       1.0  0.37860  0.63730  0.09310  1.0000 0.121063989
H   H50       1.0  0.38690  0.54350  0.10620  1.0000 0.121063989
H   H51       1.0  0.40580  0.43690  0.19890  1.0000 0.1500261675
H   H52       1.0  0.00660  0.43880  0.29330  1.0000 0.1291144667
H   H53       1.0  0.07000  0.30600  0.26650  1.0000 0.1291144667
H   H54       1.0  0.05060  0.60780  0.34880  1.0000 0.1291144667
H   H55       1.0  0.92300  0.55920  0.28420  1.0000 0.1109346047
H   H56       1.0  0.99670  0.66630  0.30470  1.0000 0.1291144667
H   H57       1.0  0.73780  0.72710  0.20720  1.0000 0.1291144667
H   H58       1.0  0.77120  0.84560  0.15990  1.0000 0.1291144667
H   H59       1.0  0.40930  0.90660  0.20830  1.0000 0.121063989
H   H60       1.0  0.37480  0.78870  0.25740  1.0000 0.1291144667
C   C1        1.0  0.17400  0.87700  0.72320  1.0000 0.6575344305
C   C2        1.0  0.09120  0.87600  0.65760  1.0000 -0.0315190919
C   C3        1.0  0.93030  0.85040  0.63870  1.0000 -0.0901259096
C   C4        1.0  0.85440  0.85050  0.57950  1.0000 -0.2097290319
C   C5        1.0  0.93540  0.87470  0.53630  1.0000 0.1778487365
C   C6        1.0  0.09600  0.89780  0.55600  1.0000 0.1500261675
C   C7        1.0  0.17340  0.90010  0.61580  1.0000 -0.1811971564
C   C8        1.0  0.70970  0.84700  0.45260  1.0000 -0.2097290319
C   C9        1.0  0.21760  0.89540  0.40150  1.0000 -0.096819143
C   C10       1.0  0.07390  0.88140  0.36160  1.0000 -0.0901259096
C   C11       1.0  0.06520  0.91700  0.30860  1.0000 -0.0901259096
C   C12       1.0  0.19750  0.96470  0.29710  1.0000 -0.0189685791
C   C13       1.0  0.33980  0.97890  0.33920  1.0000 -0.096819143
C   C14       1.0  0.34990  0.94600  0.39070  1.0000 -0.0901259096
C   C15       1.0  0.19000  0.00560  0.24120  1.0000 0.6510590912
C   C16       1.0  0.21190  0.74520  0.85520  1.0000 0.6510590912
C   C17       1.0  0.17810  0.65080  0.86910  1.0000 -0.0189685791
C   C18       1.0  0.06100  0.62450  0.89630  1.0000 -0.0901259096
C   C19       1.0  0.02530  0.54010  0.90770  1.0000 -0.096819143
C   C20       1.0  0.10640  0.48070  0.88960  1.0000 -0.096819143
C   C21       1.0  0.22510  0.50600  0.86210  1.0000 -0.0901259096
C   C22       1.0  0.26120  0.59160  0.85160  1.0000 -0.0901259096
C   C23       1.0  0.27140  0.33210  0.98160  1.0000 0.1500261675
C   C24       1.0  0.21760  0.27050  0.01350  1.0000 -0.1947608788
C   C25       1.0  0.30530  0.21630  0.03340  1.0000 -0.0315190919
C   C26       1.0  0.44260  0.22400  0.01800  1.0000 -0.0830485124
C   C27       1.0  0.49580  0.28360  0.98500  1.0000 -0.2200779814
C   C28       1.0  0.41420  0.34130  0.96700  1.0000 0.1739507865
C   C29       1.0  0.24760  0.15390  0.07110  1.0000 0.6575344305
C   C30       1.0  0.60620  0.42070  0.92380  1.0000 -0.2200779814
C   C31       1.0  0.70600  0.72700  0.78730  1.0000 0.6126898329
C   C32       1.0  0.75560  0.64350  0.77120  1.0000 -0.0315190919
C   C33       1.0  0.67540  0.56340  0.78240  1.0000 -0.1811971564
C   C34       1.0  0.71570  0.48550  0.76590  1.0000 0.1291144667
C   C35       1.0  0.83500  0.48130  0.73810  1.0000 0.1778487365
C   C36       1.0  0.91340  0.56170  0.72610  1.0000 -0.2097290319
C   C37       1.0  0.87580  0.64120  0.74200  1.0000 -0.0901259096
C   C38       1.0  0.98370  0.39110  0.69450  1.0000 -0.2097290319
C   C39       1.0  0.44480  0.25170  0.76270  1.0000 -0.1076334019
C   C40       1.0  0.32770  0.23640  0.79220  1.0000 -0.0901259096
C   C41       1.0  0.30920  0.16630  0.82090  1.0000 -0.0901259096
C   C42       1.0  0.40840  0.11300  0.82150  1.0000 -0.0189685791
C   C43       1.0  0.52480  0.12970  0.79190  1.0000 -0.0901259096
C   C44       1.0  0.54560  0.19960  0.76220  1.0000 -0.0901259096
C   C45       1.0  0.38970  0.03600  0.85430  1.0000 0.6510590912
C   C46       1.0  0.82600  0.12300  0.27680  1.0000 0.6575344305
C   C47       1.0  0.90880  0.12400  0.34240  1.0000 -0.0315190919
C   C48       1.0  0.06970  0.14960  0.36130  1.0000 -0.0901259096
C   C49       1.0  0.14560  0.14950  0.42050  1.0000 -0.2097290319
C   C50       1.0  0.06460  0.12530  0.46370  1.0000 0.1778487365
C   C51       1.0  0.90400  0.10220  0.44400  1.0000 0.1500261675
C   C52       1.0  0.82660  0.09990  0.38420  1.0000 -0.1811971564
C   C53       1.0  0.29030  0.15300  0.54740  1.0000 -0.2097290319
C   C54       1.0  0.78240  0.10460  0.59850  1.0000 -0.096819143
C   C55       1.0  0.92610  0.11860  0.63840  1.0000 -0.0901259096
C   C56       1.0  0.93480  0.08300  0.69140  1.0000 -0.0901259096
C   C57       1.0  0.80250  0.03530  0.70290  1.0000 -0.0189685791
C   C58       1.0  0.66020  0.02110  0.66080  1.0000 -0.096819143
C   C59       1.0  0.65010  0.05400  0.60930  1.0000 -0.0901259096
C   C60       1.0  0.81000  0.99440  0.75880  1.0000 0.6510590912
C   C61       1.0  0.78810  0.25480  0.14480  1.0000 0.6510590912
C   C62       1.0  0.82190  0.34920  0.13090  1.0000 -0.0189685791
C   C63       1.0  0.93900  0.37550  0.10370  1.0000 -0.0901259096
C   C64       1.0  0.97470  0.45990  0.09230  1.0000 -0.096819143
C   C65       1.0  0.89360  0.51930  0.11040  1.0000 -0.096819143
C   C66       1.0  0.77490  0.49400  0.13790  1.0000 -0.0901259096
C   C67       1.0  0.73880  0.40840  0.14840  1.0000 -0.0901259096
C   C68       1.0  0.72860  0.66790  0.01840  1.0000 0.1500261675
C   C69       1.0  0.78240  0.72950  0.98650  1.0000 -0.1947608788
C   C70       1.0  0.69470  0.78370  0.96660  1.0000 -0.0315190919
C   C71       1.0  0.55740  0.77600  0.98200  1.0000 -0.0830485124
C   C72       1.0  0.50420  0.71640  0.01500  1.0000 -0.2200779814
C   C73       1.0  0.58580  0.65870  0.03300  1.0000 0.1739507865
C   C74       1.0  0.75240  0.84610  0.92890  1.0000 0.6575344305
C   C75       1.0  0.39380  0.57930  0.07620  1.0000 -0.2200779814
C   C76       1.0  0.29400  0.27300  0.21270  1.0000 0.6126898329
C   C77       1.0  0.24440  0.35650  0.22880  1.0000 -0.0315190919
C   C78       1.0  0.32460  0.43660  0.21760  1.0000 -0.1811971564
C   C79       1.0  0.28430  0.51450  0.23410  1.0000 0.1291144667
C   C80       1.0  0.16500  0.51870  0.26190  1.0000 0.1778487365
C   C81       1.0  0.08660  0.43830  0.27390  1.0000 -0.2097290319
C   C82       1.0  0.12420  0.35880  0.25800  1.0000 -0.0901259096
C   C83       1.0  0.01630  0.60890  0.30550  1.0000 -0.2097290319
C   C84       1.0  0.55520  0.74830  0.23730  1.0000 -0.1076334019
C   C85       1.0  0.67230  0.76360  0.20780  1.0000 -0.0901259096
C   C86       1.0  0.69080  0.83370  0.17910  1.0000 -0.0901259096
C   C87       1.0  0.59160  0.88700  0.17850  1.0000 -0.0189685791
C   C88       1.0  0.47520  0.87030  0.20810  1.0000 -0.0901259096
C   C89       1.0  0.45440  0.80040  0.23780  1.0000 -0.0901259096
C   C90       1.0  0.61030  0.96400  0.14570  1.0000 0.6510590912
S   S1        1.0  0.22670  0.84958  0.46759  1.0000 1.1122119229
S   S2        1.0  0.06080  0.37061  0.90339  1.0000 1.1122119229
S   S3        1.0  0.47590  0.34455  0.72947  1.0000 1.1122119229
S   S4        1.0  0.77330  0.15042  0.53241  1.0000 1.1122119229
S   S5        1.0  0.93920  0.62939  0.09661  1.0000 1.1122119229
S   S6        1.0  0.52410  0.65545  0.27053  1.0000 1.1122119229
O   O1        1.0  0.09380  0.86310  0.76197  1.0000 -0.679587682
O   O2        1.0  0.31640  0.89090  0.73510  1.0000 -0.6648161609
O   O3        1.0  0.87430  0.87780  0.47620  1.0000 -0.1682303448
O   O4        1.0  0.18300  0.92630  0.51360  1.0000 -0.3493390281
O   O5        1.0  0.10990  0.76380  0.45220  1.0000 -0.5171094734
O   O6        1.0  0.38250  0.85630  0.49520  1.0000 -0.5311891833
O   O7        1.0  0.06030  0.00190  0.21013  1.0000 -0.6393764365
O   O8        1.0  0.31510  0.03790  0.22860  1.0000 -0.7097190816
O   O9        1.0  0.13640  0.79530  0.87342  1.0000 -0.6393764365
O   O10       1.0  0.31250  0.76370  0.82510  1.0000 -0.679587682
O   O11       1.0  0.91470  0.35070  0.91780  1.0000 -0.5311891833
O   O12       1.0  0.08910  0.30560  0.85790  1.0000 -0.5046804745
O   O13       1.0  0.19020  0.39430  0.96820  1.0000 -0.3190360639
O   O14       1.0  0.49570  0.99960  0.86224  1.0000 -0.6301670868
O   O15       1.0  0.26950  0.01650  0.87290  1.0000 -0.6911240418
O   O16       1.0  0.11410  0.14660  0.07800  1.0000 -0.6725779373
O   O17       1.0  0.33690  0.11380  0.09629  1.0000 -0.6725779373
O   O18       1.0  0.36400  0.39160  0.73700  1.0000 -0.5311891833
O   O19       1.0  0.63520  0.40430  0.77930  1.0000 -0.3190360639
O   O20       1.0  0.57780  0.71960  0.79970  1.0000 -0.6301670868
O   O21       1.0  0.45460  0.40490  0.93560  1.0000 -0.1512321878
O   O22       1.0  0.79520  0.80590  0.78960  1.0000 -0.7443683941
O   O23       1.0  0.86620  0.40090  0.72640  1.0000 -0.1512321878
O   O24       1.0  0.50290  0.31880  0.66870  1.0000 -0.5171094734
O   O25       1.0  0.90620  0.13690  0.23803  1.0000 -0.679587682
O   O26       1.0  0.68360  0.10910  0.26490  1.0000 -0.6648161609
O   O27       1.0  0.12570  0.12220  0.52380  1.0000 -0.1682303448
O   O28       1.0  0.81700  0.07370  0.48640  1.0000 -0.3493390281
O   O29       1.0  0.89010  0.23620  0.54780  1.0000 -0.5171094734
O   O30       1.0  0.61750  0.14370  0.50480  1.0000 -0.5311891833
O   O31       1.0  0.93970  0.99810  0.78987  1.0000 -0.6393764365
O   O32       1.0  0.68490  0.96210  0.77140  1.0000 -0.7097190816
O   O33       1.0  0.86360  0.20470  0.12658  1.0000 -0.6393764365
O   O34       1.0  0.68750  0.23630  0.17490  1.0000 -0.679587682
O   O35       1.0  0.08530  0.64930  0.08220  1.0000 -0.5311891833
O   O36       1.0  0.91090  0.69440  0.14210  1.0000 -0.5046804745
O   O37       1.0  0.80980  0.60570  0.03180  1.0000 -0.3190360639
O   O38       1.0  0.50430  0.00040  0.13776  1.0000 -0.6301670868
O   O39       1.0  0.73050  0.98350  0.12710  1.0000 -0.6911240418
O   O40       1.0  0.88590  0.85340  0.92200  1.0000 -0.6725779373
O   O41       1.0  0.66310  0.88620  0.90371  1.0000 -0.6725779373
O   O42       1.0  0.63600  0.60840  0.26300  1.0000 -0.5311891833
O   O43       1.0  0.36480  0.59570  0.22070  1.0000 -0.3190360639
O   O44       1.0  0.42220  0.28040  0.20030  1.0000 -0.6301670868
O   O45       1.0  0.54540  0.59510  0.06440  1.0000 -0.1512321878
O   O46       1.0  0.20480  0.19410  0.21040  1.0000 -0.7443683941
O   O47       1.0  0.13380  0.59910  0.27360  1.0000 -0.1512321878
O   O48       1.0  0.49710  0.68120  0.33130  1.0000 -0.5171094734
