# DDEC6 charges by PACMAN v1.1 (https://github.com/mtap-research/PACMAN-charge/)
data_2013[Zn][bbf]3[ASR]3
_chemical_formula_sum              "Zn4 H108 C112 N16 O20"
_cell_length_a       9.3898
_cell_length_b       19.8601
_cell_length_c       17.9499
_cell_angle_alpha    90
_cell_angle_beta     110.534
_cell_angle_gamma    90

_symmetry_space_group_name_H-M    "P 1"
_symmetry_Int_Tables_number       1

loop_
  _symmetry_equiv_pos_as_xyz
  'x, y, z'

loop_
  _atom_site_type_symbol
  _atom_site_label
  _atom_site_symmetry_multiplicity
  _atom_site_fract_x
  _atom_site_fract_y
  _atom_site_fract_z
  _atom_site_occupancy
  _atom_site_charge
Zn  Zn1       1.0  0.78897  0.81870  0.72190  1.0000 0.7403811467
Zn  Zn2       1.0  0.21103  0.31870  0.77810  1.0000 0.7403811467
Zn  Zn3       1.0  0.21103  0.18130  0.27810  1.0000 0.7403811467
Zn  Zn4       1.0  0.78897  0.68130  0.22190  1.0000 0.7403811467
H   H1        1.0  0.72520  0.76700  0.94190  1.0000 0.1198605983
H   H2        1.0  0.27480  0.26700  0.55810  1.0000 0.1198605983
H   H3        1.0  0.27480  0.23300  0.05810  1.0000 0.1198605983
H   H4        1.0  0.72520  0.73300  0.44190  1.0000 0.1198605983
H   H5        1.0  0.43870  0.80940  0.05770  1.0000 0.1198605983
H   H6        1.0  0.56130  0.30940  0.44230  1.0000 0.1198605983
H   H7        1.0  0.56130  0.19060  0.94230  1.0000 0.1198605983
H   H8        1.0  0.43870  0.69060  0.55770  1.0000 0.1198605983
H   H9        1.0  0.38050  0.89650  0.84700  1.0000 0.1400823471
H   H10       1.0  0.61950  0.39650  0.65300  1.0000 0.1400823471
H   H11       1.0  0.61950  0.10350  0.15300  1.0000 0.1400823471
H   H12       1.0  0.38050  0.60350  0.34700  1.0000 0.1400823471
H   H13       1.0  0.19380  0.85400  0.03070  1.0000 0.1090367202
H   H14       1.0  0.80620  0.35400  0.46930  1.0000 0.1090367202
H   H15       1.0  0.80620  0.14600  0.96930  1.0000 0.1090367202
H   H16       1.0  0.19380  0.64600  0.53070  1.0000 0.1090367202
H   H17       1.0  0.32140  0.90780  0.06980  1.0000 0.1090367202
H   H18       1.0  0.67860  0.40780  0.43020  1.0000 0.1090367202
H   H19       1.0  0.67860  0.09220  0.93020  1.0000 0.1090367202
H   H20       1.0  0.32140  0.59220  0.56980  1.0000 0.1090367202
H   H21       1.0  0.93160  0.88720  0.98490  1.0000 0.1198605983
H   H22       1.0  0.06840  0.38720  0.51510  1.0000 0.1198605983
H   H23       1.0  0.06840  0.11280  0.01510  1.0000 0.1198605983
H   H24       1.0  0.93160  0.61280  0.48490  1.0000 0.1198605983
H   H25       1.0  0.25150  0.03050  0.03660  1.0000 0.1198605983
H   H26       1.0  0.74850  0.53050  0.46340  1.0000 0.1198605983
H   H27       1.0  0.74850  0.96950  0.96340  1.0000 0.1315283629
H   H28       1.0  0.25150  0.46950  0.53660  1.0000 0.1315283629
H   H29       1.0  0.99380  0.75820  0.87460  1.0000 0.1090367202
H   H30       1.0  0.00620  0.25820  0.62540  1.0000 0.1090367202
H   H31       1.0  0.00620  0.24180  0.12540  1.0000 0.1090367202
H   H32       1.0  0.99380  0.74180  0.37460  1.0000 0.1090367202
H   H33       1.0  0.18200  0.68030  0.92220  1.0000 0.1460602385
H   H34       1.0  0.81800  0.18030  0.57780  1.0000 0.1460602385
H   H35       1.0  0.81800  0.31970  0.07780  1.0000 0.1460602385
H   H36       1.0  0.18200  0.81970  0.42220  1.0000 0.1460602385
H   H37       1.0  0.19060  0.66000  0.70370  1.0000 0.1400823471
H   H38       1.0  0.80940  0.16000  0.79630  1.0000 0.1400823471
H   H39       1.0  0.80940  0.34000  0.29630  1.0000 0.1400823471
H   H40       1.0  0.19060  0.84000  0.20370  1.0000 0.1400823471
H   H41       1.0  0.00250  0.73940  0.66160  1.0000 0.1090367202
H   H42       1.0  0.99750  0.23940  0.83840  1.0000 0.1090367202
H   H43       1.0  0.99750  0.26060  0.33840  1.0000 0.1090367202
H   H44       1.0  0.00250  0.76060  0.16160  1.0000 0.1090367202
H   H45       1.0  0.26560  0.56120  0.84480  1.0000 0.1198605983
H   H46       1.0  0.73440  0.06120  0.65520  1.0000 0.1198605983
H   H47       1.0  0.73440  0.43880  0.15520  1.0000 0.1198605983
H   H48       1.0  0.26560  0.93880  0.34480  1.0000 0.1198605983
H   H49       1.0  0.38220  0.61210  0.90090  1.0000 0.1198605983
H   H50       1.0  0.61780  0.11210  0.59910  1.0000 0.1198605983
H   H51       1.0  0.61780  0.38790  0.09910  1.0000 0.1198605983
H   H52       1.0  0.38220  0.88790  0.40090  1.0000 0.1198605983
H   H53       1.0  0.55670  0.52780  0.86660  1.0000 0.1030224799
H   H54       1.0  0.44330  0.02780  0.63340  1.0000 0.1030224799
H   H55       1.0  0.44330  0.47220  0.13340  1.0000 0.1030224799
H   H56       1.0  0.55670  0.97220  0.36660  1.0000 0.1030224799
H   H57       1.0  0.42130  0.49580  0.79690  1.0000 0.1090367202
H   H58       1.0  0.57870  0.99580  0.70310  1.0000 0.1090367202
H   H59       1.0  0.57870  0.50420  0.20310  1.0000 0.1090367202
H   H60       1.0  0.42130  0.00420  0.29690  1.0000 0.1090367202
H   H61       1.0  0.53110  0.53100  0.70570  1.0000 0.1030224799
H   H62       1.0  0.46890  0.03100  0.79430  1.0000 0.1030224799
H   H63       1.0  0.46890  0.46900  0.29430  1.0000 0.1030224799
H   H64       1.0  0.53110  0.96900  0.20570  1.0000 0.1030224799
H   H65       1.0  0.64380  0.48400  0.76990  1.0000 0.1090367202
H   H66       1.0  0.35620  0.98400  0.73010  1.0000 0.1090367202
H   H67       1.0  0.35620  0.51600  0.23010  1.0000 0.1090367202
H   H68       1.0  0.64380  0.01600  0.26990  1.0000 0.1090367202
H   H69       1.0  0.70330  0.68170  0.78300  1.0000 0.1090367202
H   H70       1.0  0.29670  0.18170  0.71700  1.0000 0.1090367202
H   H71       1.0  0.29670  0.31830  0.21700  1.0000 0.1090367202
H   H72       1.0  0.70330  0.81830  0.28300  1.0000 0.1090367202
H   H73       1.0  0.56800  0.65080  0.71240  1.0000 0.1030224799
H   H74       1.0  0.43200  0.15080  0.78760  1.0000 0.1030224799
H   H75       1.0  0.43200  0.34920  0.28760  1.0000 0.1030224799
H   H76       1.0  0.56800  0.84920  0.21240  1.0000 0.1030224799
H   H77       1.0  0.47630  0.69350  0.80880  1.0000 0.1090367202
H   H78       1.0  0.52370  0.19350  0.69120  1.0000 0.1090367202
H   H79       1.0  0.52370  0.30650  0.19120  1.0000 0.1090367202
H   H80       1.0  0.47630  0.80650  0.30880  1.0000 0.1090367202
H   H81       1.0  0.58940  0.64720  0.87380  1.0000 0.1090367202
H   H82       1.0  0.41060  0.14720  0.62620  1.0000 0.1090367202
H   H83       1.0  0.41060  0.35280  0.12620  1.0000 0.1090367202
H   H84       1.0  0.58940  0.85280  0.37380  1.0000 0.1090367202
H   H85       1.0  0.74040  0.57650  0.67870  1.0000 0.1198605983
H   H86       1.0  0.25960  0.07650  0.82130  1.0000 0.1198605983
H   H87       1.0  0.25960  0.42350  0.32130  1.0000 0.1198605983
H   H88       1.0  0.74040  0.92350  0.17870  1.0000 0.1198605983
H   H89       1.0  0.86430  0.61810  0.74380  1.0000 0.1198605983
H   H90       1.0  0.13570  0.11810  0.75620  1.0000 0.1198605983
H   H91       1.0  0.13570  0.38190  0.25620  1.0000 0.1198605983
H   H92       1.0  0.86430  0.88190  0.24380  1.0000 0.1198605983
H   H93       1.0  0.90860  0.49070  0.85860  1.0000 0.1400823471
H   H94       1.0  0.09140  0.99070  0.64140  1.0000 0.1400823471
H   H95       1.0  0.09140  0.50930  0.14140  1.0000 0.1400823471
H   H96       1.0  0.90860  0.00930  0.35860  1.0000 0.1400823471
H   H97       1.0  0.07260  0.40180  0.87770  1.0000 0.1198605983
H   H98       1.0  0.92740  0.90180  0.62230  1.0000 0.1198605983
H   H99       1.0  0.92740  0.59820  0.12230  1.0000 0.1198605983
H   H100      1.0  0.07260  0.09820  0.37770  1.0000 0.1198605983
H   H101      1.0  0.12050  0.43490  0.67570  1.0000 0.1090367202
H   H102      1.0  0.87950  0.93490  0.82430  1.0000 0.1090367202
H   H103      1.0  0.87950  0.56510  0.32430  1.0000 0.1090367202
H   H104      1.0  0.12050  0.06510  0.17570  1.0000 0.1090367202
H   H105      1.0  0.96060  0.52510  0.65080  1.0000 0.1315283629
H   H106      1.0  0.03940  0.02510  0.84920  1.0000 0.1315283629
H   H107      1.0  0.03940  0.47490  0.34920  1.0000 0.1315283629
H   H108      1.0  0.96060  0.97490  0.15080  1.0000 0.1315283629
C   C1        1.0  0.60710  0.84250  0.81200  1.0000 0.5400470969
C   C2        1.0  0.39290  0.34250  0.68800  1.0000 0.5400470969
C   C3        1.0  0.39290  0.15750  0.18800  1.0000 0.5400470969
C   C4        1.0  0.60710  0.65750  0.31200  1.0000 0.5400470969
C   C5        1.0  0.55980  0.83290  0.88280  1.0000 -0.0158319493
C   C6        1.0  0.44020  0.33290  0.61720  1.0000 -0.0158319493
C   C7        1.0  0.44020  0.16710  0.11720  1.0000 -0.0149207768
C   C8        1.0  0.55980  0.66710  0.38280  1.0000 -0.0158319493
C   C9        1.0  0.63970  0.78940  0.94410  1.0000 -0.1787482846
C   C10       1.0  0.36030  0.28940  0.55590  1.0000 -0.1787482846
C   C11       1.0  0.36030  0.21060  0.05590  1.0000 -0.1787482846
C   C12       1.0  0.63970  0.71060  0.44410  1.0000 -0.1787482846
C   C13       1.0  0.59270  0.77920  0.00810  1.0000 -0.0015722867
C   C14       1.0  0.40730  0.27920  0.49190  1.0000 -0.0015722867
C   C15       1.0  0.40730  0.22080  0.99190  1.0000 -0.0015722867
C   C16       1.0  0.59270  0.72080  0.50810  1.0000 -0.0015722867
C   C17       1.0  0.67970  0.73150  0.07270  1.0000 0.5400470969
C   C18       1.0  0.32030  0.23150  0.42730  1.0000 0.5400470969
C   C19       1.0  0.32030  0.26850  0.92730  1.0000 0.5400470969
C   C20       1.0  0.67970  0.76850  0.57270  1.0000 0.5400470969
C   C21       1.0  0.46880  0.81520  0.01400  1.0000 -0.266995554
C   C22       1.0  0.53120  0.31520  0.48600  1.0000 -0.266995554
C   C23       1.0  0.53120  0.18480  0.98600  1.0000 -0.266995554
C   C24       1.0  0.46880  0.68480  0.51400  1.0000 -0.266995554
C   C25       1.0  0.39180  0.85940  0.95360  1.0000 0.2440521334
C   C26       1.0  0.60820  0.35940  0.54640  1.0000 0.2440521334
C   C27       1.0  0.60820  0.14060  0.04640  1.0000 0.2440521334
C   C28       1.0  0.39180  0.64060  0.45360  1.0000 0.2440521334
C   C29       1.0  0.43510  0.86760  0.88780  1.0000 -0.2403503853
C   C30       1.0  0.56490  0.36760  0.61220  1.0000 -0.2403503853
C   C31       1.0  0.56490  0.13240  0.11220  1.0000 -0.2403503853
C   C32       1.0  0.43510  0.63240  0.38780  1.0000 -0.2403503853
C   C33       1.0  0.23250  0.89780  0.02350  1.0000 -0.0795889396
C   C34       1.0  0.76750  0.39780  0.47650  1.0000 -0.0795889396
C   C35       1.0  0.76750  0.10220  0.97650  1.0000 -0.0795889396
C   C36       1.0  0.23250  0.60220  0.52350  1.0000 -0.0795889396
C   C37       1.0  0.11240  0.95100  0.01260  1.0000 0.0628986376
C   C38       1.0  0.88760  0.45100  0.48740  1.0000 0.0628986376
C   C39       1.0  0.88760  0.04900  0.98740  1.0000 0.0628986376
C   C40       1.0  0.11240  0.54900  0.51260  1.0000 0.0628986376
C   C41       1.0  0.95940  0.93240  0.99090  1.0000 -0.1712897319
C   C42       1.0  0.04060  0.43240  0.50910  1.0000 -0.1712897319
C   C43       1.0  0.04060  0.06760  0.00910  1.0000 -0.1712897319
C   C44       1.0  0.95940  0.56760  0.49090  1.0000 -0.1712897319
C   C45       1.0  0.14980  0.01800  0.02170  1.0000 -0.1501011002
C   C46       1.0  0.85020  0.51800  0.47830  1.0000 -0.1501011002
C   C47       1.0  0.85020  0.98200  0.97830  1.0000 -0.1501011002
C   C48       1.0  0.14980  0.48200  0.52170  1.0000 -0.1501011002
C   C49       1.0  0.03300  0.73790  0.83920  1.0000 0.0680479987
C   C50       1.0  0.96700  0.23790  0.66080  1.0000 0.0680479987
C   C51       1.0  0.96700  0.26210  0.16080  1.0000 0.0680479987
C   C52       1.0  0.03300  0.76210  0.33920  1.0000 0.0680479987
C   C53       1.0  0.14570  0.69070  0.86830  1.0000 -0.2094749409
C   C54       1.0  0.85430  0.19070  0.63170  1.0000 -0.2094749409
C   C55       1.0  0.85430  0.30930  0.13170  1.0000 -0.2094749409
C   C56       1.0  0.14570  0.80930  0.36830  1.0000 -0.2094749409
C   C57       1.0  0.20540  0.65870  0.81740  1.0000 0.1460602385
C   C58       1.0  0.79460  0.15870  0.68260  1.0000 0.1460602385
C   C59       1.0  0.79460  0.34130  0.18260  1.0000 0.1460602385
C   C60       1.0  0.20540  0.84130  0.31740  1.0000 0.1460602385
C   C61       1.0  0.15130  0.67870  0.73990  1.0000 -0.1972912275
C   C62       1.0  0.84870  0.17870  0.76010  1.0000 -0.1972912275
C   C63       1.0  0.84870  0.32130  0.26010  1.0000 -0.1972912275
C   C64       1.0  0.15130  0.82130  0.23990  1.0000 -0.1972912275
C   C65       1.0  0.03790  0.72680  0.71490  1.0000 0.0680479987
C   C66       1.0  0.96210  0.22680  0.78510  1.0000 0.0680479987
C   C67       1.0  0.96210  0.27320  0.28510  1.0000 0.0680479987
C   C68       1.0  0.03790  0.77320  0.21490  1.0000 0.0680479987
C   C69       1.0  0.31870  0.60330  0.84610  1.0000 -0.188471851
C   C70       1.0  0.68130  0.10330  0.65390  1.0000 -0.188471851
C   C71       1.0  0.68130  0.39670  0.15390  1.0000 -0.188471851
C   C72       1.0  0.31870  0.89670  0.34610  1.0000 -0.188471851
C   C73       1.0  0.49490  0.53220  0.81080  1.0000 -0.1270540528
C   C74       1.0  0.50510  0.03220  0.68920  1.0000 -0.1270540528
C   C75       1.0  0.50510  0.46780  0.18920  1.0000 -0.1270540528
C   C76       1.0  0.49490  0.96780  0.31080  1.0000 -0.1270540528
C   C77       1.0  0.59360  0.52750  0.76150  1.0000 -0.1270540528
C   C78       1.0  0.40640  0.02750  0.73850  1.0000 -0.1270540528
C   C79       1.0  0.40640  0.47250  0.23850  1.0000 -0.1270540528
C   C80       1.0  0.59360  0.97250  0.26150  1.0000 -0.1270540528
C   C81       1.0  0.62880  0.64570  0.76830  1.0000 -0.137064119
C   C82       1.0  0.37120  0.14570  0.73170  1.0000 -0.137064119
C   C83       1.0  0.37120  0.35430  0.23170  1.0000 -0.137064119
C   C84       1.0  0.62880  0.85430  0.26830  1.0000 -0.137064119
C   C85       1.0  0.52760  0.65030  0.81780  1.0000 -0.1270540528
C   C86       1.0  0.47240  0.15030  0.68220  1.0000 -0.1270540528
C   C87       1.0  0.47240  0.34970  0.18220  1.0000 -0.1270540528
C   C88       1.0  0.52760  0.84970  0.31780  1.0000 -0.1270540528
C   C89       1.0  0.80400  0.57730  0.73460  1.0000 -0.188471851
C   C90       1.0  0.19600  0.07730  0.76540  1.0000 -0.188471851
C   C91       1.0  0.19600  0.42270  0.26540  1.0000 -0.188471851
C   C92       1.0  0.80400  0.92270  0.23460  1.0000 -0.188471851
C   C93       1.0  0.90990  0.51790  0.75110  1.0000 0.1400823471
C   C94       1.0  0.09010  0.01790  0.74890  1.0000 0.1400823471
C   C95       1.0  0.09010  0.48210  0.24890  1.0000 0.1400823471
C   C96       1.0  0.90990  0.98210  0.25110  1.0000 0.1400823471
C   C97       1.0  0.94910  0.48010  0.81960  1.0000 -0.1972912275
C   C98       1.0  0.05090  0.98010  0.68040  1.0000 -0.1972912275
C   C99       1.0  0.05090  0.51990  0.18040  1.0000 -0.1972912275
C   C100      1.0  0.94910  0.01990  0.31960  1.0000 -0.1972912275
C   C101      1.0  0.04810  0.42640  0.83090  1.0000 0.0680479987
C   C102      1.0  0.95190  0.92640  0.66910  1.0000 0.0680479987
C   C103      1.0  0.95190  0.57360  0.16910  1.0000 0.0680479987
C   C104      1.0  0.04810  0.07360  0.33090  1.0000 0.0680479987
C   C105      1.0  0.07610  0.44600  0.71290  1.0000 0.0628986376
C   C106      1.0  0.92390  0.94600  0.78710  1.0000 0.0628986376
C   C107      1.0  0.92390  0.55400  0.28710  1.0000 0.0628986376
C   C108      1.0  0.07610  0.05400  0.21290  1.0000 0.0628986376
C   C109      1.0  0.97940  0.50030  0.69730  1.0000 -0.1972912275
C   C110      1.0  0.02060  0.00030  0.80270  1.0000 -0.1972912275
C   C111      1.0  0.02060  0.49970  0.30270  1.0000 -0.1972912275
C   C112      1.0  0.97940  0.99970  0.19730  1.0000 -0.1972912275
N   N1        1.0  0.97690  0.75600  0.76340  1.0000 -0.2403503853
N   N2        1.0  0.02310  0.25600  0.73660  1.0000 -0.2403503853
N   N3        1.0  0.02310  0.24400  0.23660  1.0000 -0.2403503853
N   N4        1.0  0.97690  0.74400  0.26340  1.0000 -0.2403503853
N   N5        1.0  0.41580  0.59690  0.79730  1.0000 -0.1054170328
N   N6        1.0  0.58420  0.09690  0.70270  1.0000 -0.1049192819
N   N7        1.0  0.58420  0.40310  0.20270  1.0000 -0.1054170328
N   N8        1.0  0.41580  0.90310  0.29730  1.0000 -0.1054170328
N   N9        1.0  0.70690  0.58020  0.78140  1.0000 -0.087062168
N   N10       1.0  0.29310  0.08020  0.71860  1.0000 -0.087062168
N   N11       1.0  0.29310  0.41980  0.21860  1.0000 -0.087062168
N   N12       1.0  0.70690  0.91980  0.28140  1.0000 -0.087062168
N   N13       1.0  0.10970  0.40863  0.77770  1.0000 -0.229404417
N   N14       1.0  0.89030  0.90863  0.72230  1.0000 -0.229404417
N   N15       1.0  0.89030  0.59137  0.22230  1.0000 -0.229404417
N   N16       1.0  0.10970  0.09137  0.27770  1.0000 -0.229404417
O   O1        1.0  0.73170  0.81498  0.81639  1.0000 -0.5587653565
O   O2        1.0  0.26830  0.31498  0.68361  1.0000 -0.5587653565
O   O3        1.0  0.26830  0.18502  0.18361  1.0000 -0.5587653565
O   O4        1.0  0.73170  0.68502  0.31639  1.0000 -0.5587653565
O   O5        1.0  0.52810  0.87500  0.75430  1.0000 -0.5421323228
O   O6        1.0  0.47190  0.37500  0.74570  1.0000 -0.5421323228
O   O7        1.0  0.47190  0.12500  0.24570  1.0000 -0.5421323228
O   O8        1.0  0.52810  0.62500  0.25430  1.0000 -0.5421323228
O   O9        1.0  0.78510  0.69790  0.06620  1.0000 -0.5778039891
O   O10       1.0  0.21490  0.19790  0.43380  1.0000 -0.5778039891
O   O11       1.0  0.21490  0.30210  0.93380  1.0000 -0.5778039891
O   O12       1.0  0.78510  0.80210  0.56620  1.0000 -0.5778039891
O   O13       1.0  0.64220  0.72915  0.13423  1.0000 -0.5421323228
O   O14       1.0  0.35780  0.22915  0.36577  1.0000 -0.5421323228
O   O15       1.0  0.35780  0.27085  0.86577  1.0000 -0.5421323228
O   O16       1.0  0.64220  0.77085  0.63423  1.0000 -0.5421323228
O   O17       1.0  0.27070  0.89830  0.95410  1.0000 -0.1787482846
O   O18       1.0  0.72930  0.39830  0.54590  1.0000 -0.1787482846
O   O19       1.0  0.72930  0.10170  0.04590  1.0000 -0.1787482846
O   O20       1.0  0.27070  0.60170  0.45410  1.0000 -0.1787482846
