# DDEC6 charges by PACMAN v1.1 (https://github.com/mtap-research/PACMAN-charge/)
data_2014[Cd][nan]3[ASR]8
_chemical_formula_sum              "Cd8 H224 C336 N24 O40"
_cell_length_a       21.5804
_cell_length_b       21.5804
_cell_length_c       28.2514
_cell_angle_alpha    80.9278
_cell_angle_beta     99.0722
_cell_angle_gamma    58.577

_symmetry_space_group_name_H-M    "P 1"
_symmetry_Int_Tables_number       1

loop_
  _symmetry_equiv_pos_as_xyz
  'x, y, z'

loop_
  _atom_site_type_symbol
  _atom_site_label
  _atom_site_symmetry_multiplicity
  _atom_site_fract_x
  _atom_site_fract_y
  _atom_site_fract_z
  _atom_site_occupancy
  _atom_site_charge
Cd  Cd1       1.0  0.40269  0.08497  0.71997  1.0000 0.8558617521
Cd  Cd2       1.0  0.08497  0.40269  0.78003  1.0000 0.8545304426
Cd  Cd3       1.0  0.59731  0.91503  0.28003  1.0000 0.8558617521
Cd  Cd4       1.0  0.91503  0.59731  0.21997  1.0000 0.8545304426
Cd  Cd5       1.0  0.60090  0.90378  0.78401  1.0000 0.8558617521
Cd  Cd6       1.0  0.90378  0.60090  0.71599  1.0000 0.8558617521
Cd  Cd7       1.0  0.39910  0.09622  0.21599  1.0000 0.8558617521
Cd  Cd8       1.0  0.09622  0.39910  0.28401  1.0000 0.8558617521
H   H1        1.0  0.53000  0.12240  0.73120  1.0000 0.111641828
H   H2        1.0  0.12240  0.53000  0.76880  1.0000 0.111641828
H   H3        1.0  0.47000  0.87760  0.26880  1.0000 0.111641828
H   H4        1.0  0.87760  0.47000  0.23120  1.0000 0.111641828
H   H5        1.0  0.56080  0.19940  0.75810  1.0000 0.1292726953
H   H6        1.0  0.19940  0.56080  0.74190  1.0000 0.1292726953
H   H7        1.0  0.43920  0.80060  0.24190  1.0000 0.1292726953
H   H8        1.0  0.80060  0.43920  0.25810  1.0000 0.1292726953
H   H9        1.0  0.38790  0.27570  0.81690  1.0000 0.1292726953
H   H10       1.0  0.27570  0.38790  0.68310  1.0000 0.1292726953
H   H11       1.0  0.61210  0.72430  0.18310  1.0000 0.1292726953
H   H12       1.0  0.72430  0.61210  0.31690  1.0000 0.1292726953
H   H13       1.0  0.36270  0.19610  0.78820  1.0000 0.111641828
H   H14       1.0  0.19610  0.36270  0.71180  1.0000 0.111641828
H   H15       1.0  0.63730  0.80390  0.21180  1.0000 0.111641828
H   H16       1.0  0.80390  0.63730  0.28820  1.0000 0.111641828
H   H17       1.0  0.60450  0.24270  0.81290  1.0000 0.111641828
H   H18       1.0  0.24270  0.60450  0.68710  1.0000 0.111641828
H   H19       1.0  0.39550  0.75730  0.18710  1.0000 0.111641828
H   H20       1.0  0.75730  0.39550  0.31290  1.0000 0.111641828
H   H21       1.0  0.62770  0.32830  0.83490  1.0000 0.1208245753
H   H22       1.0  0.32830  0.62770  0.66510  1.0000 0.1208245753
H   H23       1.0  0.37230  0.67170  0.16510  1.0000 0.1208245753
H   H24       1.0  0.67170  0.37230  0.33490  1.0000 0.1208245753
H   H25       1.0  0.40800  0.46900  0.82220  1.0000 0.1292726953
H   H26       1.0  0.46900  0.40800  0.67780  1.0000 0.1292726953
H   H27       1.0  0.59200  0.53100  0.17780  1.0000 0.1208245753
H   H28       1.0  0.53100  0.59200  0.32220  1.0000 0.1208245753
H   H29       1.0  0.38720  0.38040  0.80510  1.0000 0.111641828
H   H30       1.0  0.38040  0.38720  0.69490  1.0000 0.111641828
H   H31       1.0  0.61280  0.61960  0.19490  1.0000 0.111641828
H   H32       1.0  0.61960  0.61280  0.30510  1.0000 0.111641828
H   H33       1.0  0.59020  0.43880  0.76860  1.0000 0.1208245753
H   H34       1.0  0.43880  0.59020  0.73140  1.0000 0.1208245753
H   H35       1.0  0.40980  0.56120  0.23140  1.0000 0.1208245753
H   H36       1.0  0.56120  0.40980  0.26860  1.0000 0.1208245753
H   H37       1.0  0.67650  0.46070  0.74720  1.0000 0.111641828
H   H38       1.0  0.46070  0.67650  0.75280  1.0000 0.111641828
H   H39       1.0  0.32350  0.53930  0.25280  1.0000 0.111641828
H   H40       1.0  0.53930  0.32350  0.24720  1.0000 0.111641828
H   H41       1.0  0.69040  0.53540  0.86570  1.0000 0.1208245753
H   H42       1.0  0.53540  0.69040  0.63430  1.0000 0.1208245753
H   H43       1.0  0.30960  0.46460  0.13430  1.0000 0.1208245753
H   H44       1.0  0.46460  0.30960  0.36570  1.0000 0.1208245753
H   H45       1.0  0.60860  0.50840  0.88970  1.0000 0.1208245753
H   H46       1.0  0.50840  0.60860  0.61030  1.0000 0.1208245753
H   H47       1.0  0.39140  0.49160  0.11030  1.0000 0.1208245753
H   H48       1.0  0.49160  0.39140  0.38970  1.0000 0.1208245753
H   H49       1.0  0.79220  0.44000  0.75130  1.0000 0.1208245753
H   H50       1.0  0.44000  0.79220  0.74870  1.0000 0.1208245753
H   H51       1.0  0.20780  0.56000  0.24870  1.0000 0.1208245753
H   H52       1.0  0.56000  0.20780  0.25130  1.0000 0.1208245753
H   H53       1.0  0.86590  0.47530  0.72390  1.0000 0.111641828
H   H54       1.0  0.47530  0.86590  0.77610  1.0000 0.111641828
H   H55       1.0  0.13410  0.52470  0.27610  1.0000 0.111641828
H   H56       1.0  0.52470  0.13410  0.22390  1.0000 0.111641828
H   H57       1.0  0.79370  0.63830  0.78570  1.0000 0.111641828
H   H58       1.0  0.63830  0.79370  0.71430  1.0000 0.111641828
H   H59       1.0  0.20630  0.36170  0.21430  1.0000 0.111641828
H   H60       1.0  0.36170  0.20630  0.28570  1.0000 0.111641828
H   H61       1.0  0.71890  0.60690  0.81720  1.0000 0.1292726953
H   H62       1.0  0.60690  0.71890  0.68280  1.0000 0.1292726953
H   H63       1.0  0.28110  0.39310  0.18280  1.0000 0.1292726953
H   H64       1.0  0.39310  0.28110  0.31720  1.0000 0.1292726953
H   H65       1.0  0.45190  0.60970  0.82680  1.0000 0.1292726953
H   H66       1.0  0.60970  0.45190  0.67320  1.0000 0.1292726953
H   H67       1.0  0.54810  0.39030  0.17320  1.0000 0.1292726953
H   H68       1.0  0.39030  0.54810  0.32680  1.0000 0.1292726953
H   H69       1.0  0.37660  0.68340  0.87030  1.0000 0.111641828
H   H70       1.0  0.68340  0.37660  0.62970  1.0000 0.111641828
H   H71       1.0  0.62340  0.31660  0.12970  1.0000 0.111641828
H   H72       1.0  0.31660  0.62340  0.37030  1.0000 0.111641828
H   H73       1.0  0.42260  0.50040  0.96570  1.0000 0.111641828
H   H74       1.0  0.50040  0.42260  0.53430  1.0000 0.111641828
H   H75       1.0  0.57740  0.49960  0.03430  1.0000 0.111641828
H   H76       1.0  0.49960  0.57740  0.46570  1.0000 0.111641828
H   H77       1.0  0.50070  0.42590  0.92390  1.0000 0.1292726953
H   H78       1.0  0.42590  0.50070  0.57610  1.0000 0.1292726953
H   H79       1.0  0.49930  0.57410  0.07610  1.0000 0.1292726953
H   H80       1.0  0.57410  0.49930  0.42390  1.0000 0.1292726953
H   H81       1.0  0.28670  0.74770  0.90120  1.0000 0.1041713483
H   H82       1.0  0.74770  0.28670  0.59880  1.0000 0.1041713483
H   H83       1.0  0.71330  0.25230  0.09880  1.0000 0.1041713483
H   H84       1.0  0.25230  0.71330  0.40120  1.0000 0.1041713483
H   H85       1.0  0.21930  0.82110  0.94900  1.0000 0.1292726953
H   H86       1.0  0.82110  0.21930  0.55100  1.0000 0.1292726953
H   H87       1.0  0.78070  0.17890  0.05100  1.0000 0.1292726953
H   H88       1.0  0.17890  0.78070  0.44900  1.0000 0.1292726953
H   H89       1.0  0.31770  0.63570  0.06310  1.0000 0.1208245753
H   H90       1.0  0.63570  0.31770  0.43690  1.0000 0.1208245753
H   H91       1.0  0.68230  0.36430  0.93690  1.0000 0.1208245753
H   H92       1.0  0.36430  0.68230  0.56310  1.0000 0.1208245753
H   H93       1.0  0.38490  0.56410  0.01570  1.0000 0.1041713483
H   H94       1.0  0.56410  0.38490  0.48430  1.0000 0.1041713483
H   H95       1.0  0.61510  0.43590  0.98430  1.0000 0.1041713483
H   H96       1.0  0.43590  0.61510  0.51570  1.0000 0.1041713483
H   H97       1.0  0.34220  0.78220  0.04310  1.0000 0.1292726953
H   H98       1.0  0.78220  0.34220  0.45690  1.0000 0.1292726953
H   H99       1.0  0.65780  0.21780  0.95690  1.0000 0.1292726953
H   H100      1.0  0.21780  0.65780  0.54310  1.0000 0.1292726953
H   H101      1.0  0.37780  0.85340  0.07470  1.0000 0.1208245753
H   H102      1.0  0.85340  0.37780  0.42530  1.0000 0.1208245753
H   H103      1.0  0.62220  0.14660  0.92530  1.0000 0.1208245753
H   H104      1.0  0.14660  0.62220  0.57470  1.0000 0.1208245753
H   H105      1.0  0.18660  0.96080  0.11260  1.0000 0.111641828
H   H106      1.0  0.96080  0.18660  0.38740  1.0000 0.111641828
H   H107      1.0  0.81340  0.03920  0.88740  1.0000 0.111641828
H   H108      1.0  0.03920  0.81340  0.61260  1.0000 0.111641828
H   H109      1.0  0.15020  0.89080  0.07940  1.0000 0.1208245753
H   H110      1.0  0.89080  0.15020  0.42060  1.0000 0.1208245753
H   H111      1.0  0.84980  0.10920  0.92060  1.0000 0.1208245753
H   H112      1.0  0.10920  0.84980  0.57940  1.0000 0.1208245753
H   H113      1.0  0.39710  0.93790  0.09290  1.0000 0.1371999688
H   H114      1.0  0.93790  0.39710  0.40710  1.0000 0.1371999688
H   H115      1.0  0.60290  0.06210  0.90710  1.0000 0.1371999688
H   H116      1.0  0.06210  0.60290  0.59290  1.0000 0.1371999688
H   H117      1.0  0.43820  0.99560  0.13720  1.0000 0.1041713483
H   H118      1.0  0.99560  0.43820  0.36280  1.0000 0.1041713483
H   H119      1.0  0.56180  0.00440  0.86280  1.0000 0.1041713483
H   H120      1.0  0.00440  0.56180  0.63720  1.0000 0.1041713483
H   H121      1.0  0.28840  0.04400  0.20820  1.0000 0.1208245753
H   H122      1.0  0.04400  0.28840  0.29180  1.0000 0.1208245753
H   H123      1.0  0.71160  0.95600  0.79180  1.0000 0.1208245753
H   H124      1.0  0.95600  0.71160  0.70820  1.0000 0.1208245753
H   H125      1.0  0.24410  0.98550  0.16800  1.0000 0.1292726953
H   H126      1.0  0.98550  0.24410  0.33200  1.0000 0.1292726953
H   H127      1.0  0.75590  0.01450  0.83200  1.0000 0.1292726953
H   H128      1.0  0.01450  0.75590  0.66800  1.0000 0.1292726953
H   H129      1.0  0.22290  0.75430  0.13540  1.0000 0.1208245753
H   H130      1.0  0.75430  0.22290  0.36460  1.0000 0.1208245753
H   H131      1.0  0.77710  0.24570  0.86460  1.0000 0.1208245753
H   H132      1.0  0.24570  0.77710  0.63540  1.0000 0.1208245753
H   H133      1.0  0.15790  0.71270  0.17290  1.0000 0.111641828
H   H134      1.0  0.71270  0.15790  0.32710  1.0000 0.111641828
H   H135      1.0  0.84210  0.28730  0.82710  1.0000 0.111641828
H   H136      1.0  0.28730  0.84210  0.67290  1.0000 0.111641828
H   H137      1.0  0.07060  0.70120  0.04270  1.0000 0.1292726953
H   H138      1.0  0.70120  0.07060  0.45730  1.0000 0.1292726953
H   H139      1.0  0.92940  0.29880  0.95730  1.0000 0.1208245753
H   H140      1.0  0.29880  0.92940  0.54270  1.0000 0.1292726953
H   H141      1.0  0.13070  0.74730  0.00470  1.0000 0.1292726953
H   H142      1.0  0.74730  0.13070  0.49530  1.0000 0.1292726953
H   H143      1.0  0.86930  0.25270  0.99530  1.0000 0.1292726953
H   H144      1.0  0.25270  0.86930  0.50470  1.0000 0.1292726953
H   H145      1.0  0.03070  0.74970  0.17840  1.0000 0.1292726953
H   H146      1.0  0.74970  0.03070  0.32160  1.0000 0.1292726953
H   H147      1.0  0.96930  0.25030  0.82160  1.0000 0.1292726953
H   H148      1.0  0.25030  0.96930  0.67840  1.0000 0.1292726953
H   H149      1.0  0.96640  0.70820  0.21510  1.0000 0.1208245753
H   H150      1.0  0.70820  0.96640  0.28490  1.0000 0.1208245753
H   H151      1.0  0.03360  0.29180  0.78490  1.0000 0.1208245753
H   H152      1.0  0.29180  0.03360  0.71510  1.0000 0.1208245753
H   H153      1.0  0.01650  0.55950  0.14190  1.0000 0.1041713483
H   H154      1.0  0.55950  0.01650  0.35810  1.0000 0.1041713483
H   H155      1.0  0.98350  0.44050  0.85810  1.0000 0.1041713483
H   H156      1.0  0.44050  0.98350  0.64190  1.0000 0.1041713483
H   H157      1.0  0.07780  0.59980  0.10080  1.0000 0.1371999688
H   H158      1.0  0.59980  0.07780  0.39920  1.0000 0.1371999688
H   H159      1.0  0.92220  0.40020  0.89920  1.0000 0.1371999688
H   H160      1.0  0.40020  0.92220  0.60080  1.0000 0.1371999688
H   H161      1.0  0.32960  0.03260  0.87360  1.0000 0.1208245753
H   H162      1.0  0.03260  0.32960  0.62640  1.0000 0.1208245753
H   H163      1.0  0.67040  0.96740  0.12640  1.0000 0.1208245753
H   H164      1.0  0.96740  0.67040  0.37360  1.0000 0.1208245753
H   H165      1.0  0.35440  0.98380  0.95800  1.0000 0.1371999688
H   H166      1.0  0.98380  0.35440  0.54200  1.0000 0.1371999688
H   H167      1.0  0.64560  0.01620  0.04200  1.0000 0.1371999688
H   H168      1.0  0.01620  0.64560  0.45800  1.0000 0.1371999688
H   H169      1.0  0.57360  0.84780  0.96950  1.0000 0.1292726953
H   H170      1.0  0.84780  0.57360  0.53050  1.0000 0.1292726953
H   H171      1.0  0.42640  0.15220  0.03050  1.0000 0.1292726953
H   H172      1.0  0.15220  0.42640  0.46950  1.0000 0.1292726953
H   H173      1.0  0.54900  0.89560  0.88510  1.0000 0.1208245753
H   H174      1.0  0.89560  0.54900  0.61490  1.0000 0.1208245753
H   H175      1.0  0.45100  0.10440  0.11490  1.0000 0.1208245753
H   H176      1.0  0.10440  0.45100  0.38510  1.0000 0.1208245753
H   H177      1.0  0.55090  0.92250  0.07680  1.0000 0.1292726953
H   H178      1.0  0.92250  0.55090  0.42320  1.0000 0.1292726953
H   H179      1.0  0.44910  0.07750  0.92320  1.0000 0.1292726953
H   H180      1.0  0.07750  0.44910  0.57680  1.0000 0.1292726953
H   H181      1.0  0.67220  0.84700  0.13030  1.0000 0.1208245753
H   H182      1.0  0.84700  0.67220  0.36970  1.0000 0.1208245753
H   H183      1.0  0.32780  0.15300  0.86970  1.0000 0.1208245753
H   H184      1.0  0.15300  0.32780  0.63030  1.0000 0.1208245753
H   H185      1.0  0.69530  0.66710  0.09250  1.0000 0.1208245753
H   H186      1.0  0.66710  0.69530  0.40750  1.0000 0.1208245753
H   H187      1.0  0.30470  0.33290  0.90750  1.0000 0.1208245753
H   H188      1.0  0.33290  0.30470  0.59250  1.0000 0.1208245753
H   H189      1.0  0.57290  0.74270  0.04110  1.0000 0.1371999688
H   H190      1.0  0.74270  0.57290  0.45890  1.0000 0.1371999688
H   H191      1.0  0.42710  0.25730  0.95890  1.0000 0.1371999688
H   H192      1.0  0.25730  0.42710  0.54110  1.0000 0.1371999688
H   H193      1.0  0.45490  0.09190  0.61870  1.0000 0.1208245753
H   H194      1.0  0.09190  0.45490  0.88130  1.0000 0.1208245753
H   H195      1.0  0.54510  0.90810  0.38130  1.0000 0.1208245753
H   H196      1.0  0.90810  0.54510  0.11870  1.0000 0.1208245753
H   H197      1.0  0.43170  0.13990  0.53500  1.0000 0.1292726953
H   H198      1.0  0.13990  0.43170  0.96500  1.0000 0.1292726953
H   H199      1.0  0.56830  0.86010  0.46500  1.0000 0.1292726953
H   H200      1.0  0.86010  0.56830  0.03500  1.0000 0.1292726953
H   H201      1.0  0.65500  0.01140  0.55010  1.0000 0.1371999688
H   H202      1.0  0.01140  0.65500  0.94990  1.0000 0.1371999688
H   H203      1.0  0.34500  0.98860  0.44990  1.0000 0.1371999688
H   H204      1.0  0.98860  0.34500  0.05010  1.0000 0.1371999688
H   H205      1.0  0.67630  0.96310  0.63440  1.0000 0.1208245753
H   H206      1.0  0.96310  0.67630  0.86560  1.0000 0.1208245753
H   H207      1.0  0.32370  0.03690  0.36560  1.0000 0.1208245753
H   H208      1.0  0.03690  0.32370  0.13440  1.0000 0.1208245753
H   H209      1.0  0.43800  0.24880  0.46730  1.0000 0.1371999688
H   H210      1.0  0.24880  0.43800  0.03270  1.0000 0.1371999688
H   H211      1.0  0.56200  0.75120  0.53270  1.0000 0.1371999688
H   H212      1.0  0.75120  0.56200  0.96730  1.0000 0.1371999688
H   H213      1.0  0.31680  0.32600  0.41480  1.0000 0.1208245753
H   H214      1.0  0.32600  0.31680  0.08520  1.0000 0.1208245753
H   H215      1.0  0.68320  0.67400  0.58520  1.0000 0.1208245753
H   H216      1.0  0.67400  0.68320  0.91480  1.0000 0.1208245753
H   H217      1.0  0.34000  0.15140  0.36910  1.0000 0.1208245753
H   H218      1.0  0.15140  0.34000  0.13090  1.0000 0.1208245753
H   H219      1.0  0.66000  0.84860  0.63090  1.0000 0.1208245753
H   H220      1.0  0.84860  0.66000  0.86910  1.0000 0.1208245753
H   H221      1.0  0.45870  0.07230  0.42650  1.0000 0.1292726953
H   H222      1.0  0.07230  0.45870  0.07350  1.0000 0.1292726953
H   H223      1.0  0.54130  0.92770  0.57350  1.0000 0.1292726953
H   H224      1.0  0.92770  0.54130  0.92650  1.0000 0.1292726953
C   C1        1.0  0.50070  0.15362  0.74889  1.0000 0.0832228121
C   C2        1.0  0.15362  0.50070  0.75111  1.0000 0.0832228121
C   C3        1.0  0.49930  0.84638  0.25111  1.0000 0.0832228121
C   C4        1.0  0.84638  0.49930  0.24889  1.0000 0.0832228121
C   C5        1.0  0.51960  0.20014  0.76491  1.0000 -0.207874784
C   C6        1.0  0.20014  0.51960  0.73509  1.0000 -0.207874784
C   C7        1.0  0.48040  0.79986  0.23509  1.0000 -0.207874784
C   C8        1.0  0.79986  0.48040  0.26491  1.0000 -0.207874784
C   C9        1.0  0.47810  0.24756  0.79083  1.0000 0.111641828
C   C10       1.0  0.24756  0.47810  0.70917  1.0000 0.111641828
C   C11       1.0  0.52190  0.75244  0.20917  1.0000 0.111641828
C   C12       1.0  0.75244  0.52190  0.29083  1.0000 0.111641828
C   C13       1.0  0.41817  0.24497  0.79945  1.0000 -0.1913488202
C   C14       1.0  0.24497  0.41817  0.70055  1.0000 -0.1913488202
C   C15       1.0  0.58183  0.75503  0.20055  1.0000 -0.1913488202
C   C16       1.0  0.75503  0.58183  0.29945  1.0000 -0.1913488202
C   C17       1.0  0.40355  0.19655  0.78200  1.0000 0.0712653213
C   C18       1.0  0.19655  0.40355  0.71800  1.0000 0.0712653213
C   C19       1.0  0.59645  0.80345  0.21800  1.0000 0.0712653213
C   C20       1.0  0.80345  0.59645  0.28200  1.0000 0.0712653213
C   C21       1.0  0.49360  0.30220  0.80591  1.0000 0.0492977345
C   C22       1.0  0.30220  0.49360  0.69409  1.0000 0.0492977345
C   C23       1.0  0.50640  0.69780  0.19409  1.0000 0.0492977345
C   C24       1.0  0.69780  0.50640  0.30591  1.0000 0.0492977345
C   C25       1.0  0.56472  0.28812  0.81523  1.0000 -0.1395459206
C   C26       1.0  0.28812  0.56472  0.68477  1.0000 -0.1395459206
C   C27       1.0  0.43528  0.71188  0.18477  1.0000 -0.1395459206
C   C28       1.0  0.71188  0.43528  0.31523  1.0000 -0.1395459206
C   C29       1.0  0.57863  0.33983  0.82809  1.0000 -0.1803054194
C   C30       1.0  0.33983  0.57863  0.67191  1.0000 -0.1803054194
C   C31       1.0  0.42137  0.66017  0.17191  1.0000 -0.1803054194
C   C32       1.0  0.66017  0.42137  0.32809  1.0000 -0.1803054194
C   C33       1.0  0.52081  0.40821  0.83097  1.0000 0.1752128788
C   C34       1.0  0.40821  0.52081  0.66903  1.0000 0.1752128788
C   C35       1.0  0.47919  0.59179  0.16903  1.0000 0.1698613592
C   C36       1.0  0.59179  0.47919  0.33097  1.0000 0.1698613592
C   C37       1.0  0.44828  0.42288  0.82116  1.0000 -0.1803054194
C   C38       1.0  0.42288  0.44828  0.67884  1.0000 -0.1803054194
C   C39       1.0  0.55172  0.57712  0.17884  1.0000 -0.1803054194
C   C40       1.0  0.57712  0.55172  0.32116  1.0000 -0.1803054194
C   C41       1.0  0.43568  0.37028  0.81000  1.0000 -0.129144778
C   C42       1.0  0.37028  0.43568  0.69000  1.0000 -0.129144778
C   C43       1.0  0.56432  0.62972  0.19000  1.0000 -0.129144778
C   C44       1.0  0.62972  0.56432  0.31000  1.0000 -0.129144778
C   C45       1.0  0.58823  0.47283  0.83055  1.0000 0.1698613592
C   C46       1.0  0.47283  0.58823  0.66945  1.0000 0.1698613592
C   C47       1.0  0.41177  0.52717  0.16945  1.0000 0.1698613592
C   C48       1.0  0.52717  0.41177  0.33055  1.0000 0.1698613592
C   C49       1.0  0.61030  0.45808  0.78854  1.0000 -0.1803054194
C   C50       1.0  0.45808  0.61030  0.71146  1.0000 -0.1803054194
C   C51       1.0  0.38970  0.54192  0.21146  1.0000 -0.1803054194
C   C52       1.0  0.54192  0.38970  0.28854  1.0000 -0.1803054194
C   C53       1.0  0.66193  0.47161  0.77569  1.0000 -0.1395459206
C   C54       1.0  0.47161  0.66193  0.72431  1.0000 -0.1395459206
C   C55       1.0  0.33807  0.52839  0.22431  1.0000 -0.1395459206
C   C56       1.0  0.52839  0.33807  0.27569  1.0000 -0.1395459206
C   C57       1.0  0.69315  0.50113  0.80401  1.0000 0.0492977345
C   C58       1.0  0.50113  0.69315  0.69599  1.0000 0.0492977345
C   C59       1.0  0.30685  0.49887  0.19599  1.0000 0.0492977345
C   C60       1.0  0.49887  0.30685  0.30401  1.0000 0.0492977345
C   C61       1.0  0.67097  0.51521  0.84610  1.0000 -0.129144778
C   C62       1.0  0.51521  0.67097  0.65390  1.0000 -0.129144778
C   C63       1.0  0.32903  0.48479  0.15390  1.0000 -0.129144778
C   C64       1.0  0.48479  0.32903  0.34610  1.0000 -0.129144778
C   C65       1.0  0.62087  0.50027  0.86018  1.0000 -0.1913488202
C   C66       1.0  0.50027  0.62087  0.63982  1.0000 -0.1913488202
C   C67       1.0  0.37913  0.49973  0.13982  1.0000 -0.1913488202
C   C68       1.0  0.49973  0.37913  0.36018  1.0000 -0.1913488202
C   C69       1.0  0.74452  0.52020  0.78700  1.0000 0.111641828
C   C70       1.0  0.52020  0.74452  0.71300  1.0000 0.111641828
C   C71       1.0  0.25548  0.47980  0.21300  1.0000 0.111641828
C   C72       1.0  0.47980  0.25548  0.28700  1.0000 0.111641828
C   C73       1.0  0.79124  0.48076  0.75904  1.0000 -0.207874784
C   C74       1.0  0.48076  0.79124  0.74096  1.0000 -0.207874784
C   C75       1.0  0.20876  0.51924  0.24096  1.0000 -0.207874784
C   C76       1.0  0.51924  0.20876  0.25904  1.0000 -0.2008568951
C   C77       1.0  0.83576  0.50210  0.74297  1.0000 0.0832228121
C   C78       1.0  0.50210  0.83576  0.75703  1.0000 0.0832228121
C   C79       1.0  0.16424  0.49790  0.25703  1.0000 0.0832228121
C   C80       1.0  0.49790  0.16424  0.24297  1.0000 0.0832228121
C   C81       1.0  0.79395  0.59721  0.77928  1.0000 0.0897437856
C   C82       1.0  0.59721  0.79395  0.72072  1.0000 0.0897437856
C   C83       1.0  0.20605  0.40279  0.22072  1.0000 0.0897437856
C   C84       1.0  0.40279  0.20605  0.27928  1.0000 0.0897437856
C   C85       1.0  0.74774  0.57946  0.79772  1.0000 -0.1913488202
C   C86       1.0  0.57946  0.74774  0.70228  1.0000 -0.1913488202
C   C87       1.0  0.25226  0.42054  0.20228  1.0000 -0.1913488202
C   C88       1.0  0.42054  0.25226  0.29772  1.0000 -0.1913488202
C   C89       1.0  0.48501  0.50961  0.87048  1.0000 0.1597412118
C   C90       1.0  0.50961  0.48501  0.62952  1.0000 0.1597412118
C   C91       1.0  0.51499  0.49039  0.12952  1.0000 0.1597412118
C   C92       1.0  0.49039  0.51499  0.37048  1.0000 0.1597412118
C   C93       1.0  0.44702  0.58662  0.85536  1.0000 -0.1803054194
C   C94       1.0  0.58662  0.44702  0.64464  1.0000 -0.1803054194
C   C95       1.0  0.55298  0.41338  0.14464  1.0000 -0.1803054194
C   C96       1.0  0.41338  0.55298  0.35536  1.0000 -0.1803054194
C   C97       1.0  0.40146  0.63106  0.88154  1.0000 -0.1395459206
C   C98       1.0  0.63106  0.40146  0.61846  1.0000 -0.1395459206
C   C99       1.0  0.59854  0.36894  0.11846  1.0000 -0.1395459206
C   C100      1.0  0.36894  0.59854  0.38154  1.0000 -0.1395459206
C   C101      1.0  0.39198  0.59998  0.92376  1.0000 0.0584027242
C   C102      1.0  0.59998  0.39198  0.57624  1.0000 0.0584027242
C   C103      1.0  0.60802  0.40002  0.07624  1.0000 0.0584027242
C   C104      1.0  0.40002  0.60802  0.42376  1.0000 0.0584027242
C   C105      1.0  0.42899  0.52319  0.93787  1.0000 -0.1395459206
C   C106      1.0  0.52319  0.42899  0.56213  1.0000 -0.1395459206
C   C107      1.0  0.57101  0.47681  0.06213  1.0000 -0.1395459206
C   C108      1.0  0.47681  0.57101  0.43787  1.0000 -0.1395459206
C   C109      1.0  0.47542  0.47822  0.91243  1.0000 -0.1803054194
C   C110      1.0  0.47822  0.47542  0.58757  1.0000 -0.1803054194
C   C111      1.0  0.52458  0.52178  0.08757  1.0000 -0.1803054194
C   C112      1.0  0.52178  0.52458  0.41243  1.0000 -0.1803054194
C   C113      1.0  0.34525  0.64705  0.95324  1.0000 0.0584027242
C   C114      1.0  0.64705  0.34525  0.54676  1.0000 0.0584027242
C   C115      1.0  0.65475  0.35295  0.04676  1.0000 0.0584027242
C   C116      1.0  0.35295  0.65475  0.45324  1.0000 0.0584027242
C   C117      1.0  0.29412  0.72452  0.93413  1.0000 -0.129144778
C   C118      1.0  0.72452  0.29412  0.56587  1.0000 -0.129144778
C   C119      1.0  0.70588  0.27548  0.06587  1.0000 -0.129144778
C   C120      1.0  0.27548  0.70588  0.43413  1.0000 -0.129144778
C   C121      1.0  0.25321  0.76901  0.96281  1.0000 -0.1722513884
C   C122      1.0  0.76901  0.25321  0.53719  1.0000 -0.1722513884
C   C123      1.0  0.74679  0.23099  0.03719  1.0000 -0.1722513884
C   C124      1.0  0.23099  0.74679  0.46281  1.0000 -0.1722513884
C   C125      1.0  0.26268  0.73648  0.01096  1.0000 0.1531549507
C   C126      1.0  0.73648  0.26268  0.48904  1.0000 0.1531549507
C   C127      1.0  0.73732  0.26352  0.98904  1.0000 0.1531549507
C   C128      1.0  0.26352  0.73732  0.51096  1.0000 0.1531549507
C   C129      1.0  0.31174  0.65894  0.03056  1.0000 -0.1803054194
C   C130      1.0  0.65894  0.31174  0.46944  1.0000 -0.1803054194
C   C131      1.0  0.68826  0.34106  0.96944  1.0000 -0.1803054194
C   C132      1.0  0.34106  0.68826  0.53056  1.0000 -0.1803054194
C   C133      1.0  0.35181  0.61621  0.00175  1.0000 -0.1395459206
C   C134      1.0  0.61621  0.35181  0.49825  1.0000 -0.1395459206
C   C135      1.0  0.64819  0.38379  0.99825  1.0000 -0.1395459206
C   C136      1.0  0.38379  0.64819  0.50175  1.0000 -0.1395459206
C   C137      1.0  0.24347  0.82747  0.05966  1.0000 0.1597412118
C   C138      1.0  0.82747  0.24347  0.44034  1.0000 0.1597412118
C   C139      1.0  0.75653  0.17253  0.94034  1.0000 0.1597412118
C   C140      1.0  0.17253  0.75653  0.55966  1.0000 0.1597412118
C   C141      1.0  0.31076  0.81796  0.05758  1.0000 -0.1803054194
C   C142      1.0  0.81796  0.31076  0.44242  1.0000 -0.1803054194
C   C143      1.0  0.68924  0.18204  0.94242  1.0000 -0.1803054194
C   C144      1.0  0.18204  0.68924  0.55758  1.0000 -0.1803054194
C   C145      1.0  0.33195  0.86055  0.07667  1.0000 -0.129144778
C   C146      1.0  0.86055  0.33195  0.42333  1.0000 -0.129144778
C   C147      1.0  0.66805  0.13945  0.92333  1.0000 -0.129144778
C   C148      1.0  0.13945  0.66805  0.57667  1.0000 -0.129144778
C   C149      1.0  0.28707  0.91407  0.09887  1.0000 0.0492977345
C   C150      1.0  0.91407  0.28707  0.40113  1.0000 0.0492977345
C   C151      1.0  0.71293  0.08593  0.90113  1.0000 0.0492977345
C   C152      1.0  0.08593  0.71293  0.59887  1.0000 0.0492977345
C   C153      1.0  0.21903  0.92423  0.09891  1.0000 -0.1395459206
C   C154      1.0  0.92423  0.21903  0.40109  1.0000 -0.1395459206
C   C155      1.0  0.78097  0.07577  0.90109  1.0000 -0.1395459206
C   C156      1.0  0.07577  0.78097  0.59891  1.0000 -0.1395459206
C   C157      1.0  0.19715  0.88195  0.07924  1.0000 -0.1722513884
C   C158      1.0  0.88195  0.19715  0.42076  1.0000 -0.1722513884
C   C159      1.0  0.80285  0.11805  0.92076  1.0000 -0.1722513884
C   C160      1.0  0.11805  0.80285  0.57924  1.0000 -0.1722513884
C   C161      1.0  0.31359  0.95559  0.12381  1.0000 0.1208245753
C   C162      1.0  0.95559  0.31359  0.37619  1.0000 0.1208245753
C   C163      1.0  0.68641  0.04441  0.87619  1.0000 0.1208245753
C   C164      1.0  0.04441  0.68641  0.62381  1.0000 0.1208245753
C   C165      1.0  0.37293  0.95953  0.11594  1.0000 -0.2008568951
C   C166      1.0  0.95953  0.37293  0.38406  1.0000 -0.2008568951
C   C167      1.0  0.62707  0.04047  0.88406  1.0000 -0.2008568951
C   C168      1.0  0.04047  0.62707  0.61594  1.0000 -0.2008568951
C   C169      1.0  0.39657  0.99577  0.14232  1.0000 0.0897437856
C   C170      1.0  0.99577  0.39657  0.35768  1.0000 0.0897437856
C   C171      1.0  0.60343  0.00423  0.85768  1.0000 0.0897437856
C   C172      1.0  0.00423  0.60343  0.64232  1.0000 0.0897437856
C   C173      1.0  0.30978  0.02358  0.18383  1.0000 0.0712653213
C   C174      1.0  0.02358  0.30978  0.31617  1.0000 0.0712653213
C   C175      1.0  0.69022  0.97642  0.81617  1.0000 0.0712653213
C   C176      1.0  0.97642  0.69022  0.68383  1.0000 0.0712653213
C   C177      1.0  0.28302  0.98802  0.15994  1.0000 -0.2008568951
C   C178      1.0  0.98802  0.28302  0.34006  1.0000 -0.2008568951
C   C179      1.0  0.71698  0.01198  0.84006  1.0000 -0.2008568951
C   C180      1.0  0.01198  0.71698  0.65994  1.0000 -0.2008568951
C   C181      1.0  0.18246  0.75706  0.06609  1.0000 0.1698613592
C   C182      1.0  0.75706  0.18246  0.43391  1.0000 0.1698613592
C   C183      1.0  0.81754  0.24294  0.93391  1.0000 0.1698613592
C   C184      1.0  0.24294  0.81754  0.56609  1.0000 0.1698613592
C   C185      1.0  0.19094  0.74534  0.11611  1.0000 -0.1803054194
C   C186      1.0  0.74534  0.19094  0.38389  1.0000 -0.1803054194
C   C187      1.0  0.80906  0.25466  0.88389  1.0000 -0.1803054194
C   C188      1.0  0.25466  0.80906  0.61611  1.0000 -0.1803054194
C   C189      1.0  0.15204  0.71984  0.13876  1.0000 -0.1395459206
C   C190      1.0  0.71984  0.15204  0.36124  1.0000 -0.1395459206
C   C191      1.0  0.84796  0.28016  0.86124  1.0000 -0.1395459206
C   C192      1.0  0.28016  0.84796  0.63876  1.0000 -0.1395459206
C   C193      1.0  0.10476  0.70496  0.11077  1.0000 0.0492977345
C   C194      1.0  0.70496  0.10476  0.38923  1.0000 0.0492977345
C   C195      1.0  0.89524  0.29504  0.88923  1.0000 0.0492977345
C   C196      1.0  0.29504  0.89524  0.61077  1.0000 0.0492977345
C   C197      1.0  0.09971  0.71351  0.06170  1.0000 -0.1231324486
C   C198      1.0  0.71351  0.09971  0.43830  1.0000 -0.1231324486
C   C199      1.0  0.90029  0.28649  0.93830  1.0000 -0.1231324486
C   C200      1.0  0.28649  0.90029  0.56170  1.0000 -0.1231324486
C   C201      1.0  0.13677  0.74037  0.03886  1.0000 -0.1803054194
C   C202      1.0  0.74037  0.13677  0.46114  1.0000 -0.1803054194
C   C203      1.0  0.86323  0.25963  0.96114  1.0000 -0.1803054194
C   C204      1.0  0.25963  0.86323  0.53886  1.0000 -0.1803054194
C   C205      1.0  0.06319  0.67919  0.13536  1.0000 0.111641828
C   C206      1.0  0.67919  0.06319  0.36464  1.0000 0.111641828
C   C207      1.0  0.93681  0.32081  0.86464  1.0000 0.111641828
C   C208      1.0  0.32081  0.93681  0.63536  1.0000 0.111641828
C   C209      1.0  0.02820  0.71100  0.16980  1.0000 -0.1913488202
C   C210      1.0  0.71100  0.02820  0.33020  1.0000 -0.1913488202
C   C211      1.0  0.97180  0.28900  0.83020  1.0000 -0.1913488202
C   C212      1.0  0.28900  0.97180  0.66980  1.0000 -0.1913488202
C   C213      1.0  0.98940  0.68580  0.19178  1.0000 0.0832228121
C   C214      1.0  0.68580  0.98940  0.30822  1.0000 0.0832228121
C   C215      1.0  0.01060  0.31420  0.80822  1.0000 0.0832228121
C   C216      1.0  0.31420  0.01060  0.69178  1.0000 0.0832228121
C   C217      1.0  0.01812  0.59952  0.14869  1.0000 0.0897437856
C   C218      1.0  0.59952  0.01812  0.35131  1.0000 0.0897437856
C   C219      1.0  0.98188  0.40048  0.85131  1.0000 0.0897437856
C   C220      1.0  0.40048  0.98188  0.64869  1.0000 0.0897437856
C   C221      1.0  0.05649  0.62249  0.12447  1.0000 -0.2008568951
C   C222      1.0  0.62249  0.05649  0.37553  1.0000 -0.2008568951
C   C223      1.0  0.94351  0.37751  0.87553  1.0000 -0.2008568951
C   C224      1.0  0.37751  0.94351  0.62447  1.0000 -0.2008568951
C   C225      1.0  0.42289  0.00603  0.81613  1.0000 0.5390298057
C   C226      1.0  0.00603  0.42289  0.68387  1.0000 0.5390298057
C   C227      1.0  0.57711  0.99397  0.18387  1.0000 0.5390298057
C   C228      1.0  0.99397  0.57711  0.31613  1.0000 0.5390298057
C   C229      1.0  0.43670  0.97058  0.86976  1.0000 -0.0638670101
C   C230      1.0  0.97058  0.43670  0.63024  1.0000 -0.0638670101
C   C231      1.0  0.56330  0.02942  0.13024  1.0000 -0.0638670101
C   C232      1.0  0.02942  0.56330  0.36976  1.0000 -0.0638670101
C   C233      1.0  0.37909  0.99549  0.89268  1.0000 -0.0806031846
C   C234      1.0  0.99549  0.37909  0.60732  1.0000 -0.0806031846
C   C235      1.0  0.62091  0.00451  0.10732  1.0000 -0.0806031846
C   C236      1.0  0.00451  0.62091  0.39268  1.0000 -0.0806031846
C   C237      1.0  0.39381  0.96633  0.94330  1.0000 -0.2008568951
C   C238      1.0  0.96633  0.39381  0.55670  1.0000 -0.2008568951
C   C239      1.0  0.60619  0.03367  0.05670  1.0000 -0.2008568951
C   C240      1.0  0.03367  0.60619  0.44330  1.0000 -0.2008568951
C   C241      1.0  0.46643  0.91177  0.97193  1.0000 0.2460461967
C   C242      1.0  0.91177  0.46643  0.52807  1.0000 0.2460461967
C   C243      1.0  0.53357  0.08823  0.02807  1.0000 0.2460461967
C   C244      1.0  0.08823  0.53357  0.47193  1.0000 0.2460461967
C   C245      1.0  0.52430  0.88532  0.95018  1.0000 -0.2183309127
C   C246      1.0  0.88532  0.52430  0.54982  1.0000 -0.2183309127
C   C247      1.0  0.47570  0.11468  0.04982  1.0000 -0.2183309127
C   C248      1.0  0.11468  0.47570  0.45018  1.0000 -0.2183309127
C   C249      1.0  0.50937  0.91431  0.89954  1.0000 -0.0806031846
C   C250      1.0  0.91431  0.50937  0.60046  1.0000 -0.0806031846
C   C251      1.0  0.49063  0.08569  0.10046  1.0000 -0.0806031846
C   C252      1.0  0.08569  0.49063  0.39954  1.0000 -0.0806031846
C   C253      1.0  0.55107  0.83975  0.05394  1.0000 0.2189983801
C   C254      1.0  0.83975  0.55107  0.44606  1.0000 0.2189983801
C   C255      1.0  0.44893  0.16025  0.94606  1.0000 0.2189983801
C   C256      1.0  0.16025  0.44893  0.55394  1.0000 0.2189983801
C   C257      1.0  0.57998  0.87078  0.08023  1.0000 -0.1913488202
C   C258      1.0  0.87078  0.57998  0.41977  1.0000 -0.1913488202
C   C259      1.0  0.42002  0.12922  0.91977  1.0000 -0.1913488202
C   C260      1.0  0.12922  0.42002  0.58023  1.0000 -0.1913488202
C   C261      1.0  0.65288  0.82548  0.11214  1.0000 -0.0908434149
C   C262      1.0  0.82548  0.65288  0.38786  1.0000 -0.0908434149
C   C263      1.0  0.34712  0.17452  0.88786  1.0000 -0.0908434149
C   C264      1.0  0.17452  0.34712  0.61214  1.0000 -0.0908434149
C   C265      1.0  0.69710  0.74930  0.11735  1.0000 -0.0331695862
C   C266      1.0  0.74930  0.69710  0.38265  1.0000 -0.0331695862
C   C267      1.0  0.30290  0.25070  0.88265  1.0000 -0.0331695862
C   C268      1.0  0.25070  0.30290  0.61735  1.0000 -0.0331695862
C   C269      1.0  0.66633  0.71863  0.08985  1.0000 -0.0908434149
C   C270      1.0  0.71863  0.66633  0.41015  1.0000 -0.0908434149
C   C271      1.0  0.33367  0.28137  0.91015  1.0000 -0.0908434149
C   C272      1.0  0.28137  0.33367  0.58985  1.0000 -0.0908434149
C   C273      1.0  0.59343  0.76383  0.05878  1.0000 -0.2008568951
C   C274      1.0  0.76383  0.59343  0.44122  1.0000 -0.2008568951
C   C275      1.0  0.40657  0.23617  0.94122  1.0000 -0.2008568951
C   C276      1.0  0.23617  0.40657  0.55878  1.0000 -0.2008568951
C   C277      1.0  0.77651  0.69843  0.15169  1.0000 0.5390298057
C   C278      1.0  0.69843  0.77651  0.34831  1.0000 0.5390298057
C   C279      1.0  0.22349  0.30157  0.84831  1.0000 0.5390298057
C   C280      1.0  0.30157  0.22349  0.65169  1.0000 0.5390298057
C   C281      1.0  0.57964  0.98490  0.68838  1.0000 0.5461784192
C   C282      1.0  0.98490  0.57964  0.81162  1.0000 0.5461784192
C   C283      1.0  0.42036  0.01510  0.31162  1.0000 0.5461784192
C   C284      1.0  0.01510  0.42036  0.18838  1.0000 0.5461784192
C   C285      1.0  0.56706  0.02090  0.63547  1.0000 -0.0724695287
C   C286      1.0  0.02090  0.56706  0.86453  1.0000 -0.0724695287
C   C287      1.0  0.43294  0.97910  0.36453  1.0000 -0.0724695287
C   C288      1.0  0.97910  0.43294  0.13547  1.0000 -0.0724695287
C   C289      1.0  0.49523  0.07471  0.60497  1.0000 -0.0806031846
C   C290      1.0  0.07471  0.49523  0.89503  1.0000 -0.0806031846
C   C291      1.0  0.50477  0.92529  0.39503  1.0000 -0.0806031846
C   C292      1.0  0.92529  0.50477  0.10497  1.0000 -0.0806031846
C   C293      1.0  0.48108  0.10400  0.55479  1.0000 -0.2276384346
C   C294      1.0  0.10400  0.48108  0.94521  1.0000 -0.2276384346
C   C295      1.0  0.51892  0.89600  0.44521  1.0000 -0.2276384346
C   C296      1.0  0.89600  0.51892  0.05479  1.0000 -0.2276384346
C   C297      1.0  0.54120  0.07984  0.53328  1.0000 0.2662016638
C   C298      1.0  0.07984  0.54120  0.96672  1.0000 0.2662016638
C   C299      1.0  0.45880  0.92016  0.46672  1.0000 0.2662016638
C   C300      1.0  0.92016  0.45880  0.03328  1.0000 0.2662016638
C   C301      1.0  0.61434  0.02726  0.56358  1.0000 -0.2183309127
C   C302      1.0  0.02726  0.61434  0.93642  1.0000 -0.2183309127
C   C303      1.0  0.38566  0.97274  0.43642  1.0000 -0.2183309127
C   C304      1.0  0.97274  0.38566  0.06358  1.0000 -0.2183309127
C   C305      1.0  0.62699  0.99827  0.61425  1.0000 -0.0806031846
C   C306      1.0  0.99827  0.62699  0.88575  1.0000 -0.0806031846
C   C307      1.0  0.37301  0.00173  0.38575  1.0000 -0.0806031846
C   C308      1.0  0.00173  0.37301  0.11425  1.0000 -0.0806031846
C   C309      1.0  0.45926  0.15358  0.45131  1.0000 0.2189983801
C   C310      1.0  0.15358  0.45926  0.04869  1.0000 0.2189983801
C   C311      1.0  0.54074  0.84642  0.54869  1.0000 0.2189983801
C   C312      1.0  0.84642  0.54074  0.95131  1.0000 0.2189983801
C   C313      1.0  0.41767  0.22897  0.44815  1.0000 -0.2008568951
C   C314      1.0  0.22897  0.41767  0.05185  1.0000 -0.2008568951
C   C315      1.0  0.58233  0.77103  0.55185  1.0000 -0.2008568951
C   C316      1.0  0.77103  0.58233  0.94815  1.0000 -0.2008568951
C   C317      1.0  0.34552  0.27494  0.41638  1.0000 -0.0908434149
C   C318      1.0  0.27494  0.34552  0.08362  1.0000 -0.0908434149
C   C319      1.0  0.65448  0.72506  0.58362  1.0000 -0.0908434149
C   C320      1.0  0.72506  0.65448  0.91638  1.0000 -0.0908434149
C   C321      1.0  0.31439  0.24697  0.38653  1.0000 -0.0488709816
C   C322      1.0  0.24697  0.31439  0.11347  1.0000 -0.0488709816
C   C323      1.0  0.68561  0.75303  0.61347  1.0000 -0.0488709816
C   C324      1.0  0.75303  0.68561  0.88653  1.0000 -0.0488709816
C   C325      1.0  0.35856  0.17122  0.38971  1.0000 -0.0908434149
C   C326      1.0  0.17122  0.35856  0.11029  1.0000 -0.0908434149
C   C327      1.0  0.64144  0.82878  0.61029  1.0000 -0.0908434149
C   C328      1.0  0.82878  0.64144  0.88971  1.0000 -0.0908434149
C   C329      1.0  0.43042  0.12396  0.42325  1.0000 -0.2008568951
C   C330      1.0  0.12396  0.43042  0.07675  1.0000 -0.2008568951
C   C331      1.0  0.56958  0.87604  0.57675  1.0000 -0.2008568951
C   C332      1.0  0.87604  0.56958  0.92325  1.0000 -0.2008568951
C   C333      1.0  0.23665  0.29745  0.35213  1.0000 0.5390298057
C   C334      1.0  0.29745  0.23665  0.14787  1.0000 0.5390298057
C   C335      1.0  0.76335  0.70255  0.64787  1.0000 0.5390298057
C   C336      1.0  0.70255  0.76335  0.85213  1.0000 0.5390298057
N   N1        1.0  0.44382  0.15030  0.75685  1.0000 -0.2276384346
N   N2        1.0  0.15030  0.44382  0.74315  1.0000 -0.2276384346
N   N3        1.0  0.55618  0.84970  0.24315  1.0000 -0.2183309127
N   N4        1.0  0.84970  0.55618  0.25685  1.0000 -0.2183309127
N   N5        1.0  0.53209  0.46301  0.84366  1.0000 -0.1913488202
N   N6        1.0  0.46301  0.53209  0.65634  1.0000 -0.1913488202
N   N7        1.0  0.46791  0.53699  0.15634  1.0000 -0.1913488202
N   N8        1.0  0.53699  0.46791  0.34366  1.0000 -0.1913488202
N   N9        1.0  0.83842  0.55896  0.75309  1.0000 -0.2276384346
N   N10       1.0  0.55896  0.83842  0.74691  1.0000 -0.2276384346
N   N11       1.0  0.16158  0.44104  0.24691  1.0000 -0.2276384346
N   N12       1.0  0.44104  0.16158  0.25309  1.0000 -0.2276384346
N   N13       1.0  0.22209  0.78079  0.04192  1.0000 -0.1803054194
N   N14       1.0  0.78079  0.22209  0.45808  1.0000 -0.1803054194
N   N15       1.0  0.77791  0.21921  0.95808  1.0000 -0.1803054194
N   N16       1.0  0.21921  0.77791  0.54192  1.0000 -0.1803054194
N   N17       1.0  0.36427  0.03055  0.17404  1.0000 -0.2183309127
N   N18       1.0  0.03055  0.36427  0.32596  1.0000 -0.2183309127
N   N19       1.0  0.63573  0.96945  0.82596  1.0000 -0.2183309127
N   N20       1.0  0.96945  0.63573  0.67404  1.0000 -0.2183309127
N   N21       1.0  0.98357  0.63139  0.18097  1.0000 -0.2183309127
N   N22       1.0  0.63139  0.98357  0.31903  1.0000 -0.2183309127
N   N23       1.0  0.01643  0.36861  0.81903  1.0000 -0.2183309127
N   N24       1.0  0.36861  0.01643  0.68097  1.0000 -0.2183309127
O   O1        1.0  0.35894  0.06154  0.79082  1.0000 -0.5296791655
O   O2        1.0  0.06154  0.35894  0.70918  1.0000 -0.5296791655
O   O3        1.0  0.64106  0.93846  0.20918  1.0000 -0.5296791655
O   O4        1.0  0.93846  0.64106  0.29082  1.0000 -0.5296791655
O   O5        1.0  0.47852  0.97972  0.79740  1.0000 -0.5916437915
O   O6        1.0  0.97972  0.47852  0.70260  1.0000 -0.5916437915
O   O7        1.0  0.52148  0.02028  0.20260  1.0000 -0.5916437915
O   O8        1.0  0.02028  0.52148  0.29740  1.0000 -0.5916437915
O   O9        1.0  0.47647  0.88593  0.02242  1.0000 -0.2398002706
O   O10       1.0  0.88593  0.47647  0.47758  1.0000 -0.2398002706
O   O11       1.0  0.52353  0.11407  0.97758  1.0000 -0.2398002706
O   O12       1.0  0.11407  0.52353  0.52242  1.0000 -0.2398002706
O   O13       1.0  0.79660  0.72194  0.18450  1.0000 -0.5407125689
O   O14       1.0  0.72194  0.79660  0.31550  1.0000 -0.5407125689
O   O15       1.0  0.20340  0.27806  0.81550  1.0000 -0.5407125689
O   O16       1.0  0.27806  0.20340  0.68450  1.0000 -0.5407125689
O   O17       1.0  0.81810  0.63430  0.14710  1.0000 -0.5407125689
O   O18       1.0  0.63430  0.81810  0.35290  1.0000 -0.5407125689
O   O19       1.0  0.18190  0.36570  0.85290  1.0000 -0.5407125689
O   O20       1.0  0.36570  0.18190  0.64710  1.0000 -0.5407125689
O   O21       1.0  0.52416  0.01002  0.70688  1.0000 -0.5916437915
O   O22       1.0  0.01002  0.52416  0.79312  1.0000 -0.5916437915
O   O23       1.0  0.47584  0.98998  0.29312  1.0000 -0.5916437915
O   O24       1.0  0.98998  0.47584  0.20688  1.0000 -0.5916437915
O   O25       1.0  0.64386  0.92908  0.71438  1.0000 -0.5296791655
O   O26       1.0  0.92908  0.64386  0.78562  1.0000 -0.5296791655
O   O27       1.0  0.35614  0.07092  0.28562  1.0000 -0.5296791655
O   O28       1.0  0.07092  0.35614  0.21438  1.0000 -0.5296791655
O   O29       1.0  0.53357  0.10517  0.48363  1.0000 -0.2276384346
O   O30       1.0  0.10517  0.53357  0.01637  1.0000 -0.2276384346
O   O31       1.0  0.46643  0.89483  0.51637  1.0000 -0.2398002706
O   O32       1.0  0.89483  0.46643  0.98363  1.0000 -0.2398002706
O   O33       1.0  0.21522  0.27614  0.31846  1.0000 -0.5296791655
O   O34       1.0  0.27614  0.21522  0.18154  1.0000 -0.5296791655
O   O35       1.0  0.78478  0.72386  0.68154  1.0000 -0.5296791655
O   O36       1.0  0.72386  0.78478  0.81846  1.0000 -0.5296791655
O   O37       1.0  0.19392  0.36164  0.35758  1.0000 -0.5510888807
O   O38       1.0  0.36164  0.19392  0.14242  1.0000 -0.5510888807
O   O39       1.0  0.80608  0.63836  0.64242  1.0000 -0.5510888807
O   O40       1.0  0.63836  0.80608  0.85758  1.0000 -0.5510888807
