# DDEC6 charges by PACMAN v1.1 (https://github.com/mtap-research/PACMAN-charge/)
data_2014[Zn][dia]3[ASR]2
_chemical_formula_sum              "Zn4 H24 C32 S4 N16 O16"
_cell_length_a       11.318
_cell_length_b       9.601
_cell_length_c       13.965
_cell_angle_alpha    90
_cell_angle_beta     92.063
_cell_angle_gamma    90

_symmetry_space_group_name_H-M    "P 1"
_symmetry_Int_Tables_number       1

loop_
  _symmetry_equiv_pos_as_xyz
  'x, y, z'

loop_
  _atom_site_type_symbol
  _atom_site_label
  _atom_site_symmetry_multiplicity
  _atom_site_fract_x
  _atom_site_fract_y
  _atom_site_fract_z
  _atom_site_occupancy
  _atom_site_charge
Zn  Zn1       1.0  0.25143  0.26682  0.34451  1.0000 0.8344592098
Zn  Zn2       1.0  0.74857  0.73318  0.65549  1.0000 0.8344592098
Zn  Zn3       1.0  0.24857  0.76682  0.15549  1.0000 0.8344592098
Zn  Zn4       1.0  0.75143  0.23318  0.84451  1.0000 0.8344592098
H   H1        1.0  0.00281  0.31221  0.63630  1.0000 0.3023494203
H   H2        1.0  0.99719  0.68779  0.36370  1.0000 0.3023494203
H   H3        1.0  0.49719  0.81221  0.86370  1.0000 0.3023494203
H   H4        1.0  0.50281  0.18779  0.13630  1.0000 0.3023494203
H   H5        1.0  0.65152  0.32502  0.52367  1.0000 0.3023494203
H   H6        1.0  0.34848  0.67498  0.47633  1.0000 0.3023494203
H   H7        1.0  0.84848  0.82502  0.97633  1.0000 0.3023494203
H   H8        1.0  0.15152  0.17498  0.02367  1.0000 0.3023494203
H   H9        1.0  0.31196  0.95109  0.39620  1.0000 0.1393683497
H   H10       1.0  0.68804  0.04891  0.60380  1.0000 0.1393683497
H   H11       1.0  0.18804  0.45109  0.10380  1.0000 0.1393683497
H   H12       1.0  0.81196  0.54891  0.89620  1.0000 0.1393683497
H   H13       1.0  0.48991  0.43412  0.40943  1.0000 0.1018034928
H   H14       1.0  0.51009  0.56588  0.59057  1.0000 0.1018034928
H   H15       1.0  0.01009  0.93412  0.09057  1.0000 0.1018034928
H   H16       1.0  0.98991  0.06588  0.90943  1.0000 0.1018034928
H   H17       1.0  0.15380  0.41653  0.52098  1.0000 0.1018034928
H   H18       1.0  0.84620  0.58347  0.47902  1.0000 0.1018034928
H   H19       1.0  0.34620  0.91653  0.97902  1.0000 0.1018034928
H   H20       1.0  0.65380  0.08347  0.02098  1.0000 0.1018034928
H   H21       1.0  0.89050  0.04324  0.65629  1.0000 0.1472404253
H   H22       1.0  0.10950  0.95676  0.34371  1.0000 0.1472404253
H   H23       1.0  0.60950  0.54324  0.84371  1.0000 0.1393683497
H   H24       1.0  0.39050  0.45676  0.15629  1.0000 0.1472404253
C   C1        1.0  0.39073  0.97433  0.44147  1.0000 -0.2471070122
C   C2        1.0  0.60927  0.02567  0.55853  1.0000 -0.2471070122
C   C3        1.0  0.10927  0.47433  0.05853  1.0000 -0.2471070122
C   C4        1.0  0.89073  0.52567  0.94147  1.0000 -0.2471070122
C   C5        1.0  0.44549  0.10483  0.44840  1.0000 0.1472404253
C   C6        1.0  0.55451  0.89517  0.55160  1.0000 0.1472404253
C   C7        1.0  0.05451  0.60483  0.05160  1.0000 0.1472404253
C   C8        1.0  0.94549  0.39517  0.94840  1.0000 0.1472404253
C   C9        1.0  0.55145  0.12897  0.50468  1.0000 0.1472404253
C   C10       1.0  0.44855  0.87103  0.49532  1.0000 0.1472404253
C   C11       1.0  0.94855  0.62897  0.99532  1.0000 0.1472404253
C   C12       1.0  0.05145  0.37103  0.00468  1.0000 0.1472404253
C   C13       1.0  0.49333  0.32524  0.43211  1.0000 0.1882709395
C   C14       1.0  0.50667  0.67476  0.56789  1.0000 0.1882709395
C   C15       1.0  0.00667  0.82524  0.06789  1.0000 0.1882709395
C   C16       1.0  0.99333  0.17476  0.93211  1.0000 0.1882709395
C   C17       1.0  0.07207  0.10096  0.46268  1.0000 0.1472404253
C   C18       1.0  0.92793  0.89904  0.53732  1.0000 0.1472404253
C   C19       1.0  0.42793  0.60096  0.03732  1.0000 0.1472404253
C   C20       1.0  0.57207  0.39904  0.96268  1.0000 0.1472404253
C   C21       1.0  0.01139  0.12171  0.54981  1.0000 0.1472404253
C   C22       1.0  0.98861  0.87829  0.45019  1.0000 0.1472404253
C   C23       1.0  0.48861  0.62171  0.95019  1.0000 0.1472404253
C   C24       1.0  0.51139  0.37829  0.04981  1.0000 0.1472404253
C   C25       1.0  0.11637  0.31115  0.51697  1.0000 0.1882709395
C   C26       1.0  0.88363  0.68885  0.48303  1.0000 0.1882709395
C   C27       1.0  0.38363  0.81115  0.98303  1.0000 0.1882709395
C   C28       1.0  0.61637  0.18885  0.01697  1.0000 0.1882709395
C   C29       1.0  0.93708  0.02308  0.58989  1.0000 -0.2607619632
C   C30       1.0  0.06292  0.97692  0.41011  1.0000 -0.2607619632
C   C31       1.0  0.56292  0.52308  0.91011  1.0000 -0.2607619632
C   C32       1.0  0.43708  0.47692  0.08989  1.0000 -0.2607619632
S   S1        1.0  0.21197  0.58003  0.32879  1.0000 1.4169444982
S   S2        1.0  0.78803  0.41997  0.67121  1.0000 1.4169444982
S   S3        1.0  0.28803  0.08003  0.17121  1.0000 1.4169444982
S   S4        1.0  0.71197  0.91997  0.82879  1.0000 1.4169444982
N   N1        1.0  0.13700  0.22290  0.44419  1.0000 -0.3897591885
N   N2        1.0  0.86300  0.77710  0.55581  1.0000 -0.3897591885
N   N3        1.0  0.36300  0.72290  0.05581  1.0000 -0.3897591885
N   N4        1.0  0.63700  0.27710  0.94419  1.0000 -0.3897591885
N   N5        1.0  0.04383  0.25499  0.58189  1.0000 -0.2607619632
N   N6        1.0  0.95617  0.74501  0.41811  1.0000 -0.2607619632
N   N7        1.0  0.45617  0.75499  0.91811  1.0000 -0.2607619632
N   N8        1.0  0.54383  0.24501  0.08189  1.0000 -0.2607619632
N   N9        1.0  0.41164  0.23073  0.40418  1.0000 -0.3700875994
N   N10       1.0  0.58836  0.76927  0.59582  1.0000 -0.3700875994
N   N11       1.0  0.08836  0.73073  0.09582  1.0000 -0.3700875994
N   N12       1.0  0.91164  0.26927  0.90418  1.0000 -0.3700875994
N   N13       1.0  0.57866  0.26984  0.49230  1.0000 -0.2753777262
N   N14       1.0  0.42134  0.73016  0.50770  1.0000 -0.2753777262
N   N15       1.0  0.92134  0.76984  0.00770  1.0000 -0.2753777262
N   N16       1.0  0.07866  0.23016  0.99230  1.0000 -0.2748750504
O   O1        1.0  0.26758  0.45187  0.28634  1.0000 -0.6258508917
O   O2        1.0  0.73242  0.54813  0.71366  1.0000 -0.6258508917
O   O3        1.0  0.23242  0.95187  0.21366  1.0000 -0.623178434
O   O4        1.0  0.76758  0.04813  0.78634  1.0000 -0.6258508917
O   O5        1.0  0.23304  0.58113  0.43447  1.0000 -0.6562438663
O   O6        1.0  0.76696  0.41887  0.56553  1.0000 -0.6562438663
O   O7        1.0  0.26696  0.08113  0.06553  1.0000 -0.6562438663
O   O8        1.0  0.73304  0.91887  0.93447  1.0000 -0.6562438663
O   O9        1.0  0.08497  0.58523  0.30126  1.0000 -0.623178434
O   O10       1.0  0.91503  0.41477  0.69874  1.0000 -0.623178434
O   O11       1.0  0.41503  0.08523  0.19874  1.0000 -0.623178434
O   O12       1.0  0.58497  0.91477  0.80126  1.0000 -0.623178434
O   O13       1.0  0.27850  0.70053  0.28671  1.0000 -0.6015190091
O   O14       1.0  0.72150  0.29947  0.71329  1.0000 -0.6015190091
O   O15       1.0  0.22150  0.20053  0.21329  1.0000 -0.6015190091
O   O16       1.0  0.77850  0.79947  0.78671  1.0000 -0.6015190091
