# DDEC6 charges by PACMAN v1.1 (https://github.com/mtap-research/PACMAN-charge/)
data_2014[La][nan]3[ASR]2
_chemical_formula_sum              "La4 C24 S6 N12 O24"
_cell_length_a       7.0404
_cell_length_b       13.0015
_cell_length_c       13.7338
_cell_angle_alpha    90
_cell_angle_beta     100.881
_cell_angle_gamma    90

_symmetry_space_group_name_H-M    "P 1"
_symmetry_Int_Tables_number       1

loop_
  _symmetry_equiv_pos_as_xyz
  'x, y, z'

loop_
  _atom_site_type_symbol
  _atom_site_label
  _atom_site_symmetry_multiplicity
  _atom_site_fract_x
  _atom_site_fract_y
  _atom_site_fract_z
  _atom_site_occupancy
  _atom_site_charge
La  La1       1.0  0.20765  0.96156  0.04226  1.0000 1.7216781813
La  La2       1.0  0.79235  0.46156  0.95774  1.0000 1.7300582367
La  La3       1.0  0.41322  0.03591  0.55926  1.0000 1.8399731356
La  La4       1.0  0.58678  0.53591  0.44074  1.0000 1.8399731356
C   C1        1.0  0.05200  0.99040  0.77520  1.0000 0.0441832306
C   C2        1.0  0.94800  0.49040  0.22480  1.0000 0.0441832306
C   C3        1.0  0.90940  0.01390  0.68900  1.0000 0.08873641
C   C4        1.0  0.09060  0.51390  0.31100  1.0000 0.08873641
C   C5        1.0  0.26720  0.00290  0.79930  1.0000 0.5876859712
C   C6        1.0  0.73280  0.50290  0.20070  1.0000 0.5876859712
C   C7        1.0  0.92100  0.06890  0.59240  1.0000 0.602809413
C   C8        1.0  0.07900  0.56890  0.40760  1.0000 0.602809413
C   C9        1.0  0.37240  0.86960  0.28860  1.0000 0.08873641
C   C10       1.0  0.62760  0.36960  0.71140  1.0000 0.08873641
C   C11       1.0  0.45930  0.79490  0.35820  1.0000 0.0617504449
C   C12       1.0  0.54070  0.29490  0.64180  1.0000 0.0617504449
C   C13       1.0  0.32140  0.98300  0.29670  1.0000 0.6176132398
C   C14       1.0  0.67860  0.48300  0.70330  1.0000 0.6176132398
C   C15       1.0  0.55870  0.80130  0.46580  1.0000 0.6176132398
C   C16       1.0  0.44130  0.30130  0.53420  1.0000 0.6176132398
C   C17       1.0  0.64220  0.82090  0.01830  1.0000 0.0617504449
C   C18       1.0  0.35780  0.32090  0.98170  1.0000 0.0617504449
C   C19       1.0  0.74420  0.73500  0.99250  1.0000 0.0617504449
C   C20       1.0  0.25580  0.23500  0.00750  1.0000 0.0617504449
C   C21       1.0  0.70960  0.92040  0.07220  1.0000 0.5876859712
C   C22       1.0  0.29040  0.42040  0.92780  1.0000 0.5876859712
C   C23       1.0  0.95660  0.71210  0.00320  1.0000 0.5803672808
C   C24       1.0  0.04340  0.21210  0.99680  1.0000 0.5803672808
S   S1        1.0  0.74190  0.94264  0.81226  1.0000 0.4433902341
S   S2        1.0  0.25810  0.44264  0.18774  1.0000 0.4433902341
S   S3        1.0  0.36790  0.70876  0.20186  1.0000 0.3782781946
S   S4        1.0  0.63210  0.20876  0.79814  1.0000 0.3782781946
S   S5        1.0  0.40470  0.69318  0.95077  1.0000 0.5028884846
S   S6        1.0  0.59530  0.19318  0.04923  1.0000 0.5028884846
N   N1        1.0  0.97420  0.95020  0.84930  1.0000 -0.3524916185
N   N2        1.0  0.02580  0.45020  0.15070  1.0000 -0.3524916185
N   N3        1.0  0.73100  0.99000  0.70130  1.0000 -0.3827700926
N   N4        1.0  0.26900  0.49000  0.29870  1.0000 -0.3827700926
N   N5        1.0  0.31510  0.83090  0.19890  1.0000 -0.3444565696
N   N6        1.0  0.68490  0.33090  0.80110  1.0000 -0.3444565696
N   N7        1.0  0.46350  0.70210  0.31660  1.0000 -0.3524916185
N   N8        1.0  0.53650  0.20210  0.68340  1.0000 -0.3524916185
N   N9        1.0  0.45200  0.80800  0.99670  1.0000 -0.3694484544
N   N10       1.0  0.54800  0.30800  0.00330  1.0000 -0.3694484544
N   N11       1.0  0.62840  0.65990  0.95600  1.0000 -0.3179826898
N   N12       1.0  0.37160  0.15990  0.04400  1.0000 -0.3179826898
O   O1        1.0  0.34170  0.00460  0.88840  1.0000 -0.5594482753
O   O2        1.0  0.65830  0.50460  0.11160  1.0000 -0.5594482753
O   O3        1.0  0.35890  0.00670  0.73050  1.0000 -0.5970634085
O   O4        1.0  0.64110  0.50670  0.26950  1.0000 -0.5970634085
O   O5        1.0  0.07840  0.09090  0.57310  1.0000 -0.5594482753
O   O6        1.0  0.92160  0.59090  0.42690  1.0000 -0.5594482753
O   O7        1.0  0.75770  0.08760  0.53930  1.0000 -0.5594482753
O   O8        1.0  0.24230  0.58760  0.46070  1.0000 -0.5594482753
O   O9        1.0  0.26650  0.02800  0.21660  1.0000 -0.5378741187
O   O10       1.0  0.73350  0.52800  0.78340  1.0000 -0.5378741187
O   O11       1.0  0.32700  0.02060  0.38030  1.0000 -0.5687184069
O   O12       1.0  0.67300  0.52060  0.61970  1.0000 -0.5687184069
O   O13       1.0  0.58700  0.88730  0.50670  1.0000 -0.5970634085
O   O14       1.0  0.41300  0.38730  0.49330  1.0000 -0.5970634085
O   O15       1.0  0.61750  0.71710  0.50590  1.0000 -0.5378741187
O   O16       1.0  0.38250  0.21710  0.49410  1.0000 -0.5378741187
O   O17       1.0  0.57890  0.97470  0.09720  1.0000 -0.5594482753
O   O18       1.0  0.42110  0.47470  0.90280  1.0000 -0.5687184069
O   O19       1.0  0.88570  0.94100  0.09120  1.0000 -0.5529812736
O   O20       1.0  0.11430  0.44100  0.90880  1.0000 -0.5529812736
O   O21       1.0  0.07290  0.78290  0.00460  1.0000 -0.5687184069
O   O22       1.0  0.92710  0.28290  0.99540  1.0000 -0.5687184069
O   O23       1.0  0.99960  0.61750  0.00760  1.0000 -0.5687184069
O   O24       1.0  0.00040  0.11750  0.99240  1.0000 -0.5687184069
