# DDEC6 charges by PACMAN v1.1 (https://github.com/mtap-research/PACMAN-charge/)
data_2014[Eu][nan]3[ASR]1
_chemical_formula_sum              "Eu4 H8 C10 O26"
_cell_length_a       6.2924
_cell_length_b       8.6702
_cell_length_c       12.9527
_cell_angle_alpha    105.432
_cell_angle_beta     90.451
_cell_angle_gamma    105.118

_symmetry_space_group_name_H-M    "P 1"
_symmetry_Int_Tables_number       1

loop_
  _symmetry_equiv_pos_as_xyz
  'x, y, z'

loop_
  _atom_site_type_symbol
  _atom_site_label
  _atom_site_symmetry_multiplicity
  _atom_site_fract_x
  _atom_site_fract_y
  _atom_site_fract_z
  _atom_site_occupancy
  _atom_site_charge
Eu  Eu1       1.0  0.44137  0.47133  0.74264  1.0000 2.0027294364
Eu  Eu2       1.0  0.55863  0.52867  0.25736  1.0000 2.0027294364
Eu  Eu3       1.0  0.19080  0.83336  0.92483  1.0000 1.9510327782
Eu  Eu4       1.0  0.80920  0.16664  0.07517  1.0000 1.9510327782
H   H1        1.0  0.16500  0.71110  0.67490  1.0000 0.4279121663
H   H2        1.0  0.83500  0.28890  0.32510  1.0000 0.4279121663
H   H3        1.0  0.13320  0.64610  0.79080  1.0000 0.3112282064
H   H4        1.0  0.86680  0.35390  0.20920  1.0000 0.3112282064
H   H5        1.0  0.60980  0.27940  0.65990  1.0000 0.2279260512
H   H6        1.0  0.39020  0.72060  0.34010  1.0000 0.2279260512
H   H7        1.0  0.76920  0.32480  0.60230  1.0000 0.3354629781
H   H8        1.0  0.23080  0.67520  0.39770  1.0000 0.3354629781
C   C1        1.0  0.94560  0.55190  0.04580  1.0000 0.5518450048
C   C2        1.0  0.05440  0.44810  0.95420  1.0000 0.5518450048
C   C3        1.0  0.40520  0.42050  0.47950  1.0000 0.4898971226
C   C4        1.0  0.59480  0.57950  0.52050  1.0000 0.4898971226
C   C5        1.0  0.26570  0.10450  0.78050  1.0000 0.5233357754
C   C6        1.0  0.73430  0.89550  0.21950  1.0000 0.5233357754
C   C7        1.0  0.71690  0.79270  0.86870  1.0000 0.9012159314
C   C8        1.0  0.28310  0.20730  0.13130  1.0000 0.9012159314
C   C9        1.0  0.45650  0.19670  0.87110  1.0000 0.5268138256
C   C10       1.0  0.54350  0.80330  0.12890  1.0000 0.5268138256
O   O1        1.0  0.51250  0.76920  0.83950  1.0000 -0.7735219393
O   O2        1.0  0.48750  0.23080  0.16050  1.0000 -0.7735219393
O   O3        1.0  0.79750  0.66900  0.83870  1.0000 -0.7374151442
O   O4        1.0  0.20250  0.33100  0.16130  1.0000 -0.7374151442
O   O5        1.0  0.83970  0.93190  0.92450  1.0000 -0.718150476
O   O6        1.0  0.16030  0.06810  0.07550  1.0000 -0.718150476
O   O7        1.0  0.36060  0.37140  0.38060  1.0000 -0.5323029552
O   O8        1.0  0.63940  0.62860  0.61940  1.0000 -0.5323029552
O   O9        1.0  0.31400  0.35080  0.54640  1.0000 -0.5612256918
O   O10       1.0  0.68600  0.64920  0.45360  1.0000 -0.5612256918
O   O11       1.0  0.16510  0.96040  0.77700  1.0000 -0.5481691901
O   O12       1.0  0.83490  0.03960  0.22300  1.0000 -0.5481691901
O   O13       1.0  0.23370  0.18350  0.71680  1.0000 -0.5774331484
O   O14       1.0  0.76630  0.81650  0.28320  1.0000 -0.5774331484
O   O15       1.0  0.55750  0.34110  0.87360  1.0000 -0.5481691901
O   O16       1.0  0.44250  0.65890  0.12640  1.0000 -0.5481691901
O   O17       1.0  0.49420  0.11600  0.93350  1.0000 -0.6165428255
O   O18       1.0  0.50580  0.88400  0.06650  1.0000 -0.6165428255
O   O19       1.0  0.98020  0.70210  0.05540  1.0000 -0.5208222661
O   O20       1.0  0.01980  0.29790  0.94460  1.0000 -0.5208222661
O   O21       1.0  0.14070  0.60160  0.70520  1.0000 -0.8403163944
O   O22       1.0  0.85930  0.39840  0.29480  1.0000 -0.8403163944
O   O23       1.0  0.73220  0.32860  0.66170  1.0000 -0.6165428255
O   O24       1.0  0.26780  0.67140  0.33830  1.0000 -0.6165428255
O   O25       1.0  0.82670  0.47150  0.10320  1.0000 -0.65878723
O   O26       1.0  0.17330  0.52850  0.89680  1.0000 -0.65878723
