# DDEC6 charges by PACMAN v1.1 (https://github.com/mtap-research/PACMAN-charge/)
data_2014[Zn][sxb]3[ASR]1
_chemical_formula_sum              "Zn8 H24 C48 O26"
_cell_length_a       11.4723
_cell_length_b       11.4723
_cell_length_c       19.5354
_cell_angle_alpha    74.0257
_cell_angle_beta     105.974
_cell_angle_gamma    121.872

_symmetry_space_group_name_H-M    "P 1"
_symmetry_Int_Tables_number       1

loop_
  _symmetry_equiv_pos_as_xyz
  'x, y, z'

loop_
  _atom_site_type_symbol
  _atom_site_label
  _atom_site_symmetry_multiplicity
  _atom_site_fract_x
  _atom_site_fract_y
  _atom_site_fract_z
  _atom_site_occupancy
  _atom_site_charge
Zn  Zn1       1.0  0.87992  0.70316  0.76772  1.0000 0.9322877982
Zn  Zn2       1.0  0.29684  0.12008  0.26772  1.0000 0.9322877982
Zn  Zn3       1.0  0.01174  0.56308  0.90195  1.0000 0.9674702742
Zn  Zn4       1.0  0.43692  0.98826  0.40195  1.0000 0.9674702742
Zn  Zn5       1.0  0.15495  0.71199  0.76155  1.0000 0.9357943394
Zn  Zn6       1.0  0.28801  0.84505  0.26155  1.0000 0.9357943394
Zn  Zn7       1.0  0.87185  0.42279  0.76031  1.0000 0.9816450932
Zn  Zn8       1.0  0.57721  0.12815  0.26031  1.0000 0.9816450932
H   H1        1.0  0.19690  0.93330  0.54770  1.0000 0.1279492655
H   H2        1.0  0.06670  0.80310  0.04770  1.0000 0.1279492655
H   H3        1.0  0.99350  0.06690  0.37200  1.0000 0.1200837874
H   H4        1.0  0.93310  0.00650  0.87200  1.0000 0.1200837874
H   H5        1.0  0.83360  0.02500  0.43810  1.0000 0.1200837874
H   H6        1.0  0.97500  0.16640  0.93810  1.0000 0.1200837874
H   H7        1.0  0.85490  0.93330  0.56200  1.0000 0.1200837874
H   H8        1.0  0.06670  0.14510  0.06200  1.0000 0.1200837874
H   H9        1.0  0.52790  0.05470  0.84320  1.0000 0.1279492655
H   H10       1.0  0.94530  0.47210  0.34320  1.0000 0.1279492655
H   H11       1.0  0.76390  0.18210  0.03000  1.0000 0.1200837874
H   H12       1.0  0.81790  0.23610  0.53000  1.0000 0.1200837874
H   H13       1.0  0.59790  0.98550  0.09230  1.0000 0.1200837874
H   H14       1.0  0.01450  0.40210  0.59230  1.0000 0.1200837874
H   H15       1.0  0.39370  0.83010  0.02970  1.0000 0.1279492655
H   H16       1.0  0.16990  0.60630  0.52970  1.0000 0.1279492655
H   H17       1.0  0.43340  0.57340  0.75980  1.0000 0.1279492655
H   H18       1.0  0.42660  0.56660  0.25980  1.0000 0.1279492655
H   H19       1.0  0.44580  0.22320  0.77550  1.0000 0.1145952054
H   H20       1.0  0.77680  0.55420  0.27550  1.0000 0.1145952054
H   H21       1.0  0.21360  0.09220  0.78910  1.0000 0.1279492655
H   H22       1.0  0.90780  0.78640  0.28910  1.0000 0.1279492655
H   H23       1.0  0.09130  0.20170  0.78230  1.0000 0.1200837874
H   H24       1.0  0.79830  0.90870  0.28230  1.0000 0.1200837874
C   C1        1.0  0.03180  0.85340  0.64320  1.0000 0.5897975125
C   C2        1.0  0.14660  0.96820  0.14320  1.0000 0.5897975125
C   C3        1.0  0.21480  0.03240  0.40850  1.0000 0.5897975125
C   C4        1.0  0.96760  0.78520  0.90850  1.0000 0.5897975125
C   C5        1.0  0.02630  0.92310  0.56620  1.0000 -0.037997569
C   C6        1.0  0.07690  0.97370  0.06620  1.0000 -0.037997569
C   C7        1.0  0.12360  0.95080  0.52560  1.0000 -0.0986025722
C   C8        1.0  0.04920  0.87640  0.02560  1.0000 -0.0986025722
C   C9        1.0  0.11210  0.00470  0.45250  1.0000 -0.037997569
C   C10       1.0  0.99530  0.88790  0.95250  1.0000 -0.037997569
C   C11       1.0  0.00220  0.03120  0.42090  1.0000 -0.0918626362
C   C12       1.0  0.96880  0.99780  0.92090  1.0000 -0.0918626362
C   C13       1.0  0.90610  0.00610  0.46010  1.0000 -0.0986025722
C   C14       1.0  0.99390  0.09390  0.96010  1.0000 -0.0986025722
C   C15       1.0  0.91890  0.95070  0.53470  1.0000 -0.0918626362
C   C16       1.0  0.04930  0.08110  0.03470  1.0000 -0.0918626362
C   C17       1.0  0.30940  0.82540  0.88970  1.0000 0.5897975125
C   C18       1.0  0.17460  0.69060  0.38970  1.0000 0.5897975125
C   C19       1.0  0.76390  0.26690  0.88880  1.0000 0.5897975125
C   C20       1.0  0.73310  0.23610  0.38880  1.0000 0.5897975125
C   C21       1.0  0.44080  0.92660  0.93030  1.0000 -0.0319738697
C   C22       1.0  0.07340  0.55920  0.43030  1.0000 -0.0319738697
C   C23       1.0  0.54130  0.04170  0.89330  1.0000 -0.1067584633
C   C24       1.0  0.95830  0.45870  0.39330  1.0000 -0.1067584633
C   C25       1.0  0.66210  0.13770  0.93050  1.0000 -0.0319738697
C   C26       1.0  0.86230  0.33790  0.43050  1.0000 -0.0319738697
C   C27       1.0  0.68350  0.11790  0.00490  1.0000 -0.0986025722
C   C28       1.0  0.88210  0.31650  0.50490  1.0000 -0.0986025722
C   C29       1.0  0.58310  0.00070  0.04220  1.0000 -0.0918626362
C   C30       1.0  0.99930  0.41690  0.54220  1.0000 -0.0918626362
C   C31       1.0  0.46130  0.90650  0.00460  1.0000 -0.0918626362
C   C32       1.0  0.09350  0.53870  0.50460  1.0000 -0.0918626362
C   C33       1.0  0.16240  0.46600  0.76020  1.0000 0.5897975125
C   C34       1.0  0.53400  0.83760  0.26020  1.0000 0.5897975125
C   C35       1.0  0.61610  0.49370  0.75990  1.0000 0.5792151549
C   C36       1.0  0.50630  0.38390  0.25990  1.0000 0.5792151549
C   C37       1.0  0.24700  0.39740  0.76730  1.0000 -0.037997569
C   C38       1.0  0.60260  0.75300  0.26730  1.0000 -0.037997569
C   C39       1.0  0.38930  0.47710  0.76430  1.0000 -0.1067584633
C   C40       1.0  0.52290  0.61070  0.26430  1.0000 -0.1067584633
C   C41       1.0  0.46510  0.41110  0.76820  1.0000 -0.0227936274
C   C42       1.0  0.58890  0.53490  0.26820  1.0000 -0.0227936274
C   C43       1.0  0.39700  0.26740  0.77520  1.0000 -0.0918626362
C   C44       1.0  0.73260  0.60300  0.27520  1.0000 -0.0918626362
C   C45       1.0  0.25740  0.18880  0.78190  1.0000 -0.0918626362
C   C46       1.0  0.81120  0.74260  0.28190  1.0000 -0.0918626362
C   C47       1.0  0.18500  0.25460  0.77780  1.0000 -0.0918626362
C   C48       1.0  0.74540  0.81500  0.27780  1.0000 -0.0918626362
O   O1        1.0  0.93940  0.82600  0.67600  1.0000 -0.5245382926
O   O2        1.0  0.17400  0.06060  0.17600  1.0000 -0.5245382926
O   O3        1.0  0.12930  0.82670  0.66900  1.0000 -0.529859013
O   O4        1.0  0.17330  0.87070  0.16900  1.0000 -0.529859013
O   O5        1.0  0.32890  0.04450  0.43920  1.0000 -0.4980618349
O   O6        1.0  0.95550  0.67110  0.93920  1.0000 -0.4980618349
O   O7        1.0  0.17360  0.04520  0.34040  1.0000 -0.5492432556
O   O8        1.0  0.95480  0.82640  0.84040  1.0000 -0.5492432556
O   O9        1.0  0.21660  0.72980  0.92280  1.0000 -0.5492432556
O   O10       1.0  0.27020  0.78340  0.42280  1.0000 -0.5492432556
O   O11       1.0  0.30490  0.84510  0.82130  1.0000 -0.529859013
O   O12       1.0  0.15490  0.69510  0.32130  1.0000 -0.529859013
O   O13       1.0  0.82510  0.37730  0.91470  1.0000 -0.5599116228
O   O14       1.0  0.62270  0.17490  0.41470  1.0000 -0.5599116228
O   O15       1.0  0.77820  0.25560  0.82900  1.0000 -0.529859013
O   O16       1.0  0.74440  0.22180  0.32900  1.0000 -0.529859013
O   O17       1.0  0.22590  0.59710  0.75140  1.0000 -0.529859013
O   O18       1.0  0.40290  0.77410  0.25140  1.0000 -0.529859013
O   O19       1.0  0.03540  0.38960  0.76250  1.0000 -0.5599116228
O   O20       1.0  0.61040  0.96460  0.26250  1.0000 -0.5599116228
O   O21       1.0  0.97960  0.59840  0.79650  1.0000 -1.0234981916
O   O22       1.0  0.40160  0.02040  0.29650  1.0000 -1.0234981916
O   O23       1.0  0.66790  0.43150  0.74720  1.0000 -0.5732929251
O   O24       1.0  0.56850  0.33210  0.24720  1.0000 -0.5732929251
O   O25       1.0  0.67940  0.61880  0.76710  1.0000 -0.5100102565
O   O26       1.0  0.38120  0.32060  0.26710  1.0000 -0.5100102565
