# DDEC6 charges by PACMAN v1.1 (https://github.com/mtap-research/PACMAN-charge/)
data_2014[Gd][bcu]3[ASR]1
_chemical_formula_sum              "Gd2 H48 C88 S8 N8 O24"
_cell_length_a       15.3873
_cell_length_b       15.3873
_cell_length_c       9.8582
_cell_angle_alpha    90
_cell_angle_beta     90
_cell_angle_gamma    90

_symmetry_space_group_name_H-M    "P 1"
_symmetry_Int_Tables_number       1

loop_
  _symmetry_equiv_pos_as_xyz
  'x, y, z'

loop_
  _atom_site_type_symbol
  _atom_site_label
  _atom_site_symmetry_multiplicity
  _atom_site_fract_x
  _atom_site_fract_y
  _atom_site_fract_z
  _atom_site_occupancy
  _atom_site_charge
Gd  Gd1       1.0  0.50000  0.50000  0.75000  1.0000 2.2212264486
Gd  Gd2       1.0  0.50000  0.50000  0.25000  1.0000 2.2212264486
H   H1        1.0  0.73800  0.59070  0.79900  1.0000 0.148112005
H   H2        1.0  0.26200  0.40930  0.79900  1.0000 0.148112005
H   H3        1.0  0.59070  0.26200  0.79900  1.0000 0.148112005
H   H4        1.0  0.40930  0.73800  0.79900  1.0000 0.148112005
H   H5        1.0  0.73800  0.40930  0.70100  1.0000 0.148112005
H   H6        1.0  0.26200  0.59070  0.70100  1.0000 0.148112005
H   H7        1.0  0.59070  0.73800  0.70100  1.0000 0.148112005
H   H8        1.0  0.40930  0.26200  0.70100  1.0000 0.148112005
H   H9        1.0  0.26200  0.40930  0.20100  1.0000 0.148112005
H   H10       1.0  0.73800  0.59070  0.20100  1.0000 0.148112005
H   H11       1.0  0.40930  0.73800  0.20100  1.0000 0.148112005
H   H12       1.0  0.59070  0.26200  0.20100  1.0000 0.148112005
H   H13       1.0  0.26200  0.59070  0.29900  1.0000 0.148112005
H   H14       1.0  0.73800  0.40930  0.29900  1.0000 0.148112005
H   H15       1.0  0.40930  0.26200  0.29900  1.0000 0.148112005
H   H16       1.0  0.59070  0.73800  0.29900  1.0000 0.148112005
H   H17       1.0  0.82570  0.71010  0.80010  1.0000 0.1374657698
H   H18       1.0  0.17430  0.28990  0.80010  1.0000 0.1374657698
H   H19       1.0  0.71010  0.17430  0.80010  1.0000 0.1374657698
H   H20       1.0  0.28990  0.82570  0.80010  1.0000 0.1374657698
H   H21       1.0  0.82570  0.28990  0.69990  1.0000 0.1374657698
H   H22       1.0  0.17430  0.71010  0.69990  1.0000 0.1374657698
H   H23       1.0  0.71010  0.82570  0.69990  1.0000 0.1374657698
H   H24       1.0  0.28990  0.17430  0.69990  1.0000 0.1374657698
H   H25       1.0  0.17430  0.28990  0.19990  1.0000 0.1374657698
H   H26       1.0  0.82570  0.71010  0.19990  1.0000 0.1374657698
H   H27       1.0  0.28990  0.82570  0.19990  1.0000 0.1374657698
H   H28       1.0  0.71010  0.17430  0.19990  1.0000 0.1374657698
H   H29       1.0  0.17430  0.71010  0.30010  1.0000 0.1374657698
H   H30       1.0  0.82570  0.28990  0.30010  1.0000 0.1374657698
H   H31       1.0  0.28990  0.17430  0.30010  1.0000 0.1374657698
H   H32       1.0  0.71010  0.82570  0.30010  1.0000 0.1374657698
H   H33       1.0  0.69850  0.84920  0.00000  1.0000 0.1374657698
H   H34       1.0  0.30150  0.15080  0.00000  1.0000 0.1374657698
H   H35       1.0  0.84920  0.30150  0.00000  1.0000 0.1374657698
H   H36       1.0  0.15080  0.69850  0.00000  1.0000 0.1374657698
H   H37       1.0  0.69850  0.15080  0.50000  1.0000 0.1374657698
H   H38       1.0  0.30150  0.84920  0.50000  1.0000 0.1374657698
H   H39       1.0  0.84920  0.69850  0.50000  1.0000 0.1374657698
H   H40       1.0  0.15080  0.30150  0.50000  1.0000 0.1374657698
H   H41       1.0  0.66550  0.00720  0.00000  1.0000 0.1293951519
H   H42       1.0  0.33450  0.99280  0.00000  1.0000 0.1293951519
H   H43       1.0  0.00720  0.33450  0.00000  1.0000 0.1293951519
H   H44       1.0  0.99280  0.66550  0.00000  1.0000 0.1293951519
H   H45       1.0  0.66550  0.99280  0.50000  1.0000 0.1293951519
H   H46       1.0  0.33450  0.00720  0.50000  1.0000 0.1293951519
H   H47       1.0  0.00720  0.66550  0.50000  1.0000 0.1293951519
H   H48       1.0  0.99280  0.33450  0.50000  1.0000 0.1293951519
C   C1        1.0  0.73570  0.58190  0.00000  1.0000 -0.0954936497
C   C2        1.0  0.26430  0.41810  0.00000  1.0000 -0.0954936497
C   C3        1.0  0.58190  0.26430  0.00000  1.0000 -0.0954936497
C   C4        1.0  0.41810  0.73570  0.00000  1.0000 -0.0954936497
C   C5        1.0  0.73570  0.41810  0.50000  1.0000 -0.0954936497
C   C6        1.0  0.26430  0.58190  0.50000  1.0000 -0.0954936497
C   C7        1.0  0.58190  0.73570  0.50000  1.0000 -0.0954936497
C   C8        1.0  0.41810  0.26430  0.50000  1.0000 -0.0954936497
C   C9        1.0  0.75680  0.61560  0.87990  1.0000 -0.0693149544
C   C10       1.0  0.24320  0.38440  0.87990  1.0000 -0.0693149544
C   C11       1.0  0.61560  0.24320  0.87990  1.0000 -0.0693149544
C   C12       1.0  0.38440  0.75680  0.87990  1.0000 -0.0693149544
C   C13       1.0  0.75680  0.38440  0.62010  1.0000 -0.0693149544
C   C14       1.0  0.24320  0.61560  0.62010  1.0000 -0.0693149544
C   C15       1.0  0.61560  0.75680  0.62010  1.0000 -0.0693149544
C   C16       1.0  0.38440  0.24320  0.62010  1.0000 -0.0693149544
C   C17       1.0  0.24320  0.38440  0.12010  1.0000 -0.0693149544
C   C18       1.0  0.75680  0.61560  0.12010  1.0000 -0.0693149544
C   C19       1.0  0.38440  0.75680  0.12010  1.0000 -0.0693149544
C   C20       1.0  0.61560  0.24320  0.12010  1.0000 -0.0693149544
C   C21       1.0  0.24320  0.61560  0.37990  1.0000 -0.0693149544
C   C22       1.0  0.75680  0.38440  0.37990  1.0000 -0.0693149544
C   C23       1.0  0.38440  0.24320  0.37990  1.0000 -0.0693149544
C   C24       1.0  0.61560  0.75680  0.37990  1.0000 -0.0693149544
C   C25       1.0  0.80630  0.68670  0.88160  1.0000 -0.1293673418
C   C26       1.0  0.19370  0.31330  0.88160  1.0000 -0.1293673418
C   C27       1.0  0.68670  0.19370  0.88160  1.0000 -0.1293673418
C   C28       1.0  0.31330  0.80630  0.88160  1.0000 -0.1293673418
C   C29       1.0  0.80630  0.31330  0.61840  1.0000 -0.1293673418
C   C30       1.0  0.19370  0.68670  0.61840  1.0000 -0.1293673418
C   C31       1.0  0.68670  0.80630  0.61840  1.0000 -0.1293673418
C   C32       1.0  0.31330  0.19370  0.61840  1.0000 -0.1293673418
C   C33       1.0  0.19370  0.31330  0.11840  1.0000 -0.1293673418
C   C34       1.0  0.80630  0.68670  0.11840  1.0000 -0.1293673418
C   C35       1.0  0.31330  0.80630  0.11840  1.0000 -0.1293673418
C   C36       1.0  0.68670  0.19370  0.11840  1.0000 -0.1293673418
C   C37       1.0  0.19370  0.68670  0.38160  1.0000 -0.1293673418
C   C38       1.0  0.80630  0.31330  0.38160  1.0000 -0.1293673418
C   C39       1.0  0.31330  0.19370  0.38160  1.0000 -0.1293673418
C   C40       1.0  0.68670  0.80630  0.38160  1.0000 -0.1293673418
C   C41       1.0  0.82910  0.72560  0.00000  1.0000 0.089068538
C   C42       1.0  0.17090  0.27440  0.00000  1.0000 0.089068538
C   C43       1.0  0.72560  0.17090  0.00000  1.0000 0.089068538
C   C44       1.0  0.27440  0.82910  0.00000  1.0000 0.089068538
C   C45       1.0  0.82910  0.27440  0.50000  1.0000 0.089068538
C   C46       1.0  0.17090  0.72560  0.50000  1.0000 0.089068538
C   C47       1.0  0.72560  0.82910  0.50000  1.0000 0.089068538
C   C48       1.0  0.27440  0.17090  0.50000  1.0000 0.089068538
C   C49       1.0  0.88030  0.81190  0.00000  1.0000 -0.0472750939
C   C50       1.0  0.11970  0.18810  0.00000  1.0000 -0.0472750939
C   C51       1.0  0.81190  0.11970  0.00000  1.0000 -0.0472750939
C   C52       1.0  0.18810  0.88030  0.00000  1.0000 -0.0472750939
C   C53       1.0  0.88030  0.18810  0.50000  1.0000 -0.0472750939
C   C54       1.0  0.11970  0.81190  0.50000  1.0000 -0.0472750939
C   C55       1.0  0.81190  0.88030  0.50000  1.0000 -0.0472750939
C   C56       1.0  0.18810  0.11970  0.50000  1.0000 -0.0472750939
C   C57       1.0  0.83430  0.88460  0.00000  1.0000 0.1690095947
C   C58       1.0  0.16570  0.11540  0.00000  1.0000 0.1690095947
C   C59       1.0  0.88460  0.16570  0.00000  1.0000 0.1690095947
C   C60       1.0  0.11540  0.83430  0.00000  1.0000 0.1690095947
C   C61       1.0  0.83430  0.11540  0.50000  1.0000 0.1690095947
C   C62       1.0  0.16570  0.88460  0.50000  1.0000 0.1690095947
C   C63       1.0  0.88460  0.83430  0.50000  1.0000 0.1690095947
C   C64       1.0  0.11540  0.16570  0.50000  1.0000 0.1690095947
C   C65       1.0  0.73890  0.89420  0.00000  1.0000 -0.1727555446
C   C66       1.0  0.26110  0.10580  0.00000  1.0000 -0.1727555446
C   C67       1.0  0.89420  0.26110  0.00000  1.0000 -0.1727555446
C   C68       1.0  0.10580  0.73890  0.00000  1.0000 -0.1727555446
C   C69       1.0  0.73890  0.10580  0.50000  1.0000 -0.1727555446
C   C70       1.0  0.26110  0.89420  0.50000  1.0000 -0.1727555446
C   C71       1.0  0.89420  0.73890  0.50000  1.0000 -0.1727555446
C   C72       1.0  0.10580  0.26110  0.50000  1.0000 -0.1727555446
C   C73       1.0  0.72040  0.98190  0.00000  1.0000 -0.1876027524
C   C74       1.0  0.27960  0.01810  0.00000  1.0000 -0.1876027524
C   C75       1.0  0.98190  0.27960  0.00000  1.0000 -0.1876027524
C   C76       1.0  0.01810  0.72040  0.00000  1.0000 -0.1876027524
C   C77       1.0  0.72040  0.01810  0.50000  1.0000 -0.1876027524
C   C78       1.0  0.27960  0.98190  0.50000  1.0000 -0.1876027524
C   C79       1.0  0.98190  0.72040  0.50000  1.0000 -0.1876027524
C   C80       1.0  0.01810  0.27960  0.50000  1.0000 -0.1876027524
C   C81       1.0  0.80060  0.02570  0.00000  1.0000 0.1947403796
C   C82       1.0  0.19940  0.97430  0.00000  1.0000 0.1947403796
C   C83       1.0  0.02570  0.19940  0.00000  1.0000 0.1947403796
C   C84       1.0  0.97430  0.80060  0.00000  1.0000 0.1947403796
C   C85       1.0  0.80060  0.97430  0.50000  1.0000 0.1947403796
C   C86       1.0  0.19940  0.02570  0.50000  1.0000 0.1947403796
C   C87       1.0  0.02570  0.80060  0.50000  1.0000 0.1947403796
C   C88       1.0  0.97430  0.19940  0.50000  1.0000 0.1947403796
S   S1        1.0  0.67890  0.47478  0.00000  1.0000 1.2770445295
S   S2        1.0  0.32110  0.52522  0.00000  1.0000 1.2770445295
S   S3        1.0  0.47478  0.32110  0.00000  1.0000 1.2770445295
S   S4        1.0  0.52522  0.67890  0.00000  1.0000 1.2770445295
S   S5        1.0  0.67890  0.52522  0.50000  1.0000 1.2770445295
S   S6        1.0  0.32110  0.47478  0.50000  1.0000 1.2770445295
S   S7        1.0  0.47478  0.67890  0.50000  1.0000 1.2770445295
S   S8        1.0  0.52522  0.32110  0.50000  1.0000 1.2770445295
N   N1        1.0  0.87020  0.96800  0.00000  1.0000 -0.2943044655
N   N2        1.0  0.12980  0.03200  0.00000  1.0000 -0.2952320926
N   N3        1.0  0.96800  0.12980  0.00000  1.0000 -0.2943044655
N   N4        1.0  0.03200  0.87020  0.00000  1.0000 -0.2952320926
N   N5        1.0  0.87020  0.03200  0.50000  1.0000 -0.2943044655
N   N6        1.0  0.12980  0.96800  0.50000  1.0000 -0.2952320926
N   N7        1.0  0.96800  0.87020  0.50000  1.0000 -0.2952320926
N   N8        1.0  0.03200  0.12980  0.50000  1.0000 -0.2943044655
O   O1        1.0  0.62575  0.46912  0.87610  1.0000 -0.7200678862
O   O2        1.0  0.37425  0.53088  0.87610  1.0000 -0.7200678862
O   O3        1.0  0.46912  0.37425  0.87610  1.0000 -0.7200678862
O   O4        1.0  0.53088  0.62575  0.87610  1.0000 -0.7200678862
O   O5        1.0  0.62575  0.53088  0.62390  1.0000 -0.7200678862
O   O6        1.0  0.37425  0.46912  0.62390  1.0000 -0.7200678862
O   O7        1.0  0.46912  0.62575  0.62390  1.0000 -0.7200678862
O   O8        1.0  0.53088  0.37425  0.62390  1.0000 -0.7200678862
O   O9        1.0  0.37425  0.53088  0.12390  1.0000 -0.7200678862
O   O10       1.0  0.62575  0.46912  0.12390  1.0000 -0.7200678862
O   O11       1.0  0.53088  0.62575  0.12390  1.0000 -0.7200678862
O   O12       1.0  0.46912  0.37425  0.12390  1.0000 -0.7200678862
O   O13       1.0  0.37425  0.46912  0.37610  1.0000 -0.7200678862
O   O14       1.0  0.62575  0.53088  0.37610  1.0000 -0.7200678862
O   O15       1.0  0.53088  0.37425  0.37610  1.0000 -0.7200678862
O   O16       1.0  0.46912  0.62575  0.37610  1.0000 -0.7200678862
O   O17       1.0  0.74480  0.41480  0.00000  1.0000 -0.4877904407
O   O18       1.0  0.25520  0.58520  0.00000  1.0000 -0.4877904407
O   O19       1.0  0.41480  0.25520  0.00000  1.0000 -0.4877904407
O   O20       1.0  0.58520  0.74480  0.00000  1.0000 -0.4877904407
O   O21       1.0  0.74480  0.58520  0.50000  1.0000 -0.4877904407
O   O22       1.0  0.25520  0.41480  0.50000  1.0000 -0.4877904407
O   O23       1.0  0.41480  0.74480  0.50000  1.0000 -0.4877904407
O   O24       1.0  0.58520  0.25520  0.50000  1.0000 -0.4877904407
