# DDEC6 charges by PACMAN v1.1 (https://github.com/mtap-research/PACMAN-charge/)
data_2014[Zn][rtl]3[ASR]2
_chemical_formula_sum              "Zn4 H12 C36 O24"
_cell_length_a       9.437
_cell_length_b       15.378
_cell_length_c       13.9839
_cell_angle_alpha    90
_cell_angle_beta     113.967
_cell_angle_gamma    90

_symmetry_space_group_name_H-M    "P 1"
_symmetry_Int_Tables_number       1

loop_
  _symmetry_equiv_pos_as_xyz
  'x, y, z'

loop_
  _atom_site_type_symbol
  _atom_site_label
  _atom_site_symmetry_multiplicity
  _atom_site_fract_x
  _atom_site_fract_y
  _atom_site_fract_z
  _atom_site_occupancy
  _atom_site_charge
Zn  Zn1       1.0  0.13749  0.09632  0.01132  1.0000 0.9695585323
Zn  Zn2       1.0  0.86251  0.59632  0.48868  1.0000 0.9695585323
Zn  Zn3       1.0  0.86251  0.90368  0.98868  1.0000 0.9695585323
Zn  Zn4       1.0  0.13749  0.40368  0.51132  1.0000 0.9695585323
H   H1        1.0  0.63090  0.22910  0.77600  1.0000 0.1241535945
H   H2        1.0  0.36910  0.72910  0.72400  1.0000 0.1241535945
H   H3        1.0  0.36910  0.77090  0.22400  1.0000 0.1241535945
H   H4        1.0  0.63090  0.27090  0.27600  1.0000 0.1241535945
H   H5        1.0  0.63130  0.42280  0.58380  1.0000 0.1400361406
H   H6        1.0  0.36870  0.92280  0.91620  1.0000 0.1400361406
H   H7        1.0  0.36870  0.57720  0.41620  1.0000 0.1400361406
H   H8        1.0  0.63130  0.07720  0.08380  1.0000 0.1400361406
H   H9        1.0  0.02780  0.30160  0.75850  1.0000 0.1400361406
H   H10       1.0  0.97220  0.80160  0.74150  1.0000 0.1400361406
H   H11       1.0  0.97220  0.69840  0.24150  1.0000 0.1400361406
H   H12       1.0  0.02780  0.19840  0.25850  1.0000 0.1400361406
C   C1        1.0  0.92790  0.18910  0.86430  1.0000 0.5327326013
C   C2        1.0  0.07210  0.68910  0.63570  1.0000 0.5327326013
C   C3        1.0  0.07210  0.81090  0.13570  1.0000 0.5327326013
C   C4        1.0  0.92790  0.31090  0.36430  1.0000 0.5327326013
C   C5        1.0  0.84420  0.25590  0.78180  1.0000 -0.0048638117
C   C6        1.0  0.15580  0.75590  0.71820  1.0000 -0.0056178391
C   C7        1.0  0.15580  0.74410  0.21820  1.0000 -0.0056178391
C   C8        1.0  0.84420  0.24410  0.28180  1.0000 -0.0048638117
C   C9        1.0  0.68430  0.26490  0.74840  1.0000 -0.0866196519
C   C10       1.0  0.31570  0.76490  0.75160  1.0000 -0.0866196519
C   C11       1.0  0.31570  0.73510  0.25160  1.0000 -0.0866196519
C   C12       1.0  0.68430  0.23510  0.24840  1.0000 -0.0866196519
C   C13       1.0  0.60420  0.32750  0.67380  1.0000 -0.0209981541
C   C14       1.0  0.39580  0.82750  0.82620  1.0000 -0.0209981541
C   C15       1.0  0.39580  0.67250  0.32620  1.0000 -0.0209981541
C   C16       1.0  0.60420  0.17250  0.17380  1.0000 -0.0209981541
C   C17       1.0  0.42870  0.33440  0.63650  1.0000 0.5412601931
C   C18       1.0  0.57130  0.83440  0.86350  1.0000 0.5412601931
C   C19       1.0  0.57130  0.66560  0.36350  1.0000 0.5412601931
C   C20       1.0  0.42870  0.16560  0.13650  1.0000 0.5412601931
C   C21       1.0  0.68420  0.38010  0.63240  1.0000 -0.0866196519
C   C22       1.0  0.31580  0.88010  0.86760  1.0000 -0.0866196519
C   C23       1.0  0.31580  0.61990  0.36760  1.0000 -0.0866196519
C   C24       1.0  0.68420  0.11990  0.13240  1.0000 -0.0866196519
C   C25       1.0  0.84270  0.36950  0.66270  1.0000 -0.0209981541
C   C26       1.0  0.15730  0.86950  0.83730  1.0000 -0.0209981541
C   C27       1.0  0.15730  0.63050  0.33730  1.0000 -0.0209981541
C   C28       1.0  0.84270  0.13050  0.16270  1.0000 -0.0209981541
C   C29       1.0  0.92140  0.30810  0.73750  1.0000 -0.0866196519
C   C30       1.0  0.07860  0.80810  0.76250  1.0000 -0.0866196519
C   C31       1.0  0.07860  0.69190  0.26250  1.0000 -0.0866196519
C   C32       1.0  0.92140  0.19190  0.23750  1.0000 -0.0866196519
C   C33       1.0  0.92460  0.42390  0.61180  1.0000 0.6002055956
C   C34       1.0  0.07540  0.92390  0.88820  1.0000 0.6002055956
C   C35       1.0  0.07540  0.57610  0.38820  1.0000 0.6002055956
C   C36       1.0  0.92460  0.07610  0.11180  1.0000 0.6002055956
O   O1        1.0  0.85280  0.13360  0.88820  1.0000 -0.4592452543
O   O2        1.0  0.14720  0.63360  0.61180  1.0000 -0.4592452543
O   O3        1.0  0.14720  0.86640  0.11180  1.0000 -0.4592452543
O   O4        1.0  0.85280  0.36640  0.38820  1.0000 -0.4592452543
O   O5        1.0  0.07460  0.19220  0.90640  1.0000 -0.4592452543
O   O6        1.0  0.92540  0.69220  0.59360  1.0000 -0.4592452543
O   O7        1.0  0.92540  0.80780  0.09360  1.0000 -0.4592452543
O   O8        1.0  0.07460  0.30780  0.40640  1.0000 -0.4592452543
O   O9        1.0  0.05410  0.39650  0.61780  1.0000 -0.4808034943
O   O10       1.0  0.94590  0.89650  0.88220  1.0000 -0.4808034943
O   O11       1.0  0.94590  0.60350  0.38220  1.0000 -0.4808034943
O   O12       1.0  0.05410  0.10350  0.11780  1.0000 -0.4808034943
O   O13       1.0  0.85580  0.49040  0.56440  1.0000 -0.4947598251
O   O14       1.0  0.14420  0.99040  0.93560  1.0000 -0.4947598251
O   O15       1.0  0.14420  0.50960  0.43560  1.0000 -0.4947598251
O   O16       1.0  0.85580  0.00960  0.06440  1.0000 -0.4947598251
O   O17       1.0  0.36550  0.39940  0.58000  1.0000 -0.4519952284
O   O18       1.0  0.63450  0.89940  0.92000  1.0000 -0.4519952284
O   O19       1.0  0.63450  0.60060  0.42000  1.0000 -0.4519952284
O   O20       1.0  0.36550  0.10060  0.08000  1.0000 -0.4519952284
O   O21       1.0  0.35870  0.27840  0.66350  1.0000 -0.3948376523
O   O22       1.0  0.64130  0.77840  0.83650  1.0000 -0.3948376523
O   O23       1.0  0.64130  0.72160  0.33650  1.0000 -0.3948376523
O   O24       1.0  0.35870  0.22160  0.16350  1.0000 -0.3948376523
