# DDEC6 charges by PACMAN v1.1 (https://github.com/mtap-research/PACMAN-charge/)
data_2014[Cu][rtl]3[ASR]1
_chemical_formula_sum              "Cu4 H52 C84 N16 O16"
_cell_length_a       11.9272
_cell_length_b       13.954
_cell_length_c       20.185
_cell_angle_alpha    90
_cell_angle_beta     90
_cell_angle_gamma    90

_symmetry_space_group_name_H-M    "P 1"
_symmetry_Int_Tables_number       1

loop_
  _symmetry_equiv_pos_as_xyz
  'x, y, z'

loop_
  _atom_site_type_symbol
  _atom_site_label
  _atom_site_symmetry_multiplicity
  _atom_site_fract_x
  _atom_site_fract_y
  _atom_site_fract_z
  _atom_site_occupancy
  _atom_site_charge
Cu  Cu1       1.0  0.26257  0.07272  0.00000  1.0000 0.7075573197
Cu  Cu2       1.0  0.73743  0.92728  0.00000  1.0000 0.7075573197
Cu  Cu3       1.0  0.76257  0.42728  0.50000  1.0000 0.7075573197
Cu  Cu4       1.0  0.23743  0.57272  0.50000  1.0000 0.7075573197
H   H1        1.0  0.13550  0.32590  0.15990  1.0000 0.1223854583
H   H2        1.0  0.86450  0.67410  0.15990  1.0000 0.1223854583
H   H3        1.0  0.63550  0.17410  0.34010  1.0000 0.1223854583
H   H4        1.0  0.36450  0.82590  0.34010  1.0000 0.1223854583
H   H5        1.0  0.86450  0.67410  0.84010  1.0000 0.1223854583
H   H6        1.0  0.13550  0.32590  0.84010  1.0000 0.1223854583
H   H7        1.0  0.36450  0.82590  0.65990  1.0000 0.1223854583
H   H8        1.0  0.63550  0.17410  0.65990  1.0000 0.1223854583
H   H9        1.0  0.16730  0.40190  0.26570  1.0000 0.1124541937
H   H10       1.0  0.83270  0.59810  0.26570  1.0000 0.1124541937
H   H11       1.0  0.66730  0.09810  0.23430  1.0000 0.1124541937
H   H12       1.0  0.33270  0.90190  0.23430  1.0000 0.1124541937
H   H13       1.0  0.83270  0.59810  0.73430  1.0000 0.1124541937
H   H14       1.0  0.16730  0.40190  0.73430  1.0000 0.1124541937
H   H15       1.0  0.33270  0.90190  0.76570  1.0000 0.1124541937
H   H16       1.0  0.66730  0.09810  0.76570  1.0000 0.1124541937
H   H17       1.0  0.46900  0.27880  0.27320  1.0000 0.1124541937
H   H18       1.0  0.53100  0.72120  0.27320  1.0000 0.1124541937
H   H19       1.0  0.96900  0.22120  0.22680  1.0000 0.1124541937
H   H20       1.0  0.03100  0.77880  0.22680  1.0000 0.1124541937
H   H21       1.0  0.53100  0.72120  0.72680  1.0000 0.1124541937
H   H22       1.0  0.46900  0.27880  0.72680  1.0000 0.1124541937
H   H23       1.0  0.03100  0.77880  0.77320  1.0000 0.1124541937
H   H24       1.0  0.96900  0.22120  0.77320  1.0000 0.1124541937
H   H25       1.0  0.42680  0.19920  0.17210  1.0000 0.1223854583
H   H26       1.0  0.57320  0.80080  0.17210  1.0000 0.1223854583
H   H27       1.0  0.92680  0.30080  0.32790  1.0000 0.1223854583
H   H28       1.0  0.07320  0.69920  0.32790  1.0000 0.1223854583
H   H29       1.0  0.57320  0.80080  0.82790  1.0000 0.1223854583
H   H30       1.0  0.42680  0.19920  0.82790  1.0000 0.1223854583
H   H31       1.0  0.07320  0.69920  0.67210  1.0000 0.1223854583
H   H32       1.0  0.92680  0.30080  0.67210  1.0000 0.1223854583
H   H33       1.0  0.20780  0.48960  0.35490  1.0000 0.1223854583
H   H34       1.0  0.79220  0.51040  0.35490  1.0000 0.1223854583
H   H35       1.0  0.70780  0.01040  0.14510  1.0000 0.1223854583
H   H36       1.0  0.29220  0.98960  0.14510  1.0000 0.1223854583
H   H37       1.0  0.79220  0.51040  0.64510  1.0000 0.1223854583
H   H38       1.0  0.20780  0.48960  0.64510  1.0000 0.1223854583
H   H39       1.0  0.29220  0.98960  0.85490  1.0000 0.1223854583
H   H40       1.0  0.70780  0.01040  0.85490  1.0000 0.1223854583
H   H41       1.0  0.48570  0.33480  0.38570  1.0000 0.1374636488
H   H42       1.0  0.51430  0.66520  0.38570  1.0000 0.1374636488
H   H43       1.0  0.98570  0.16520  0.11430  1.0000 0.1374636488
H   H44       1.0  0.01430  0.83480  0.11430  1.0000 0.1374636488
H   H45       1.0  0.51430  0.66520  0.61430  1.0000 0.1374636488
H   H46       1.0  0.48570  0.33480  0.61430  1.0000 0.1374636488
H   H47       1.0  0.01430  0.83480  0.88570  1.0000 0.1374636488
H   H48       1.0  0.98570  0.16520  0.88570  1.0000 0.1374636488
H   H49       1.0  0.53660  0.40100  0.50000  1.0000 0.1250360003
H   H50       1.0  0.46340  0.59900  0.50000  1.0000 0.1250360003
H   H51       1.0  0.03660  0.09900  0.00000  1.0000 0.1250360003
H   H52       1.0  0.96340  0.90100  0.00000  1.0000 0.1223854583
C   C1        1.0  0.24520  0.20010  0.09600  1.0000 0.5360221332
C   C2        1.0  0.75480  0.79990  0.09600  1.0000 0.5360221332
C   C3        1.0  0.74520  0.29990  0.40400  1.0000 0.5360221332
C   C4        1.0  0.25480  0.70010  0.40400  1.0000 0.5360221332
C   C5        1.0  0.75480  0.79990  0.90400  1.0000 0.5360221332
C   C6        1.0  0.24520  0.20010  0.90400  1.0000 0.5360221332
C   C7        1.0  0.25480  0.70010  0.59600  1.0000 0.5360221332
C   C8        1.0  0.74520  0.29990  0.59600  1.0000 0.5360221332
C   C9        1.0  0.27650  0.25380  0.16100  1.0000 0.0070948739
C   C10       1.0  0.72350  0.74620  0.16100  1.0000 0.0070948739
C   C11       1.0  0.77650  0.24620  0.33900  1.0000 0.0070948739
C   C12       1.0  0.22350  0.75380  0.33900  1.0000 0.0070948739
C   C13       1.0  0.72350  0.74620  0.83900  1.0000 0.0070948739
C   C14       1.0  0.27650  0.25380  0.83900  1.0000 0.0070948739
C   C15       1.0  0.22350  0.75380  0.66100  1.0000 0.0070948739
C   C16       1.0  0.77650  0.24620  0.66100  1.0000 0.0070948739
C   C17       1.0  0.20240  0.31380  0.18400  1.0000 -0.1034743888
C   C18       1.0  0.79760  0.68620  0.18400  1.0000 -0.1034743888
C   C19       1.0  0.70240  0.18620  0.31600  1.0000 -0.1034743888
C   C20       1.0  0.29760  0.81380  0.31600  1.0000 -0.1034743888
C   C21       1.0  0.79760  0.68620  0.81600  1.0000 -0.1034743888
C   C22       1.0  0.20240  0.31380  0.81600  1.0000 -0.1034743888
C   C23       1.0  0.29760  0.81380  0.68400  1.0000 -0.1034743888
C   C24       1.0  0.70240  0.18620  0.68400  1.0000 -0.1034743888
C   C25       1.0  0.22220  0.36170  0.24600  1.0000 -0.1642634803
C   C26       1.0  0.77780  0.63830  0.24600  1.0000 -0.1642634803
C   C27       1.0  0.72220  0.13830  0.25400  1.0000 -0.1642634803
C   C28       1.0  0.27780  0.86170  0.25400  1.0000 -0.1642634803
C   C29       1.0  0.77780  0.63830  0.75400  1.0000 -0.1642634803
C   C30       1.0  0.22220  0.36170  0.75400  1.0000 -0.1642634803
C   C31       1.0  0.27780  0.86170  0.74600  1.0000 -0.1642634803
C   C32       1.0  0.72220  0.13830  0.74600  1.0000 -0.1642634803
C   C33       1.0  0.32250  0.34670  0.27450  1.0000 0.1011065832
C   C34       1.0  0.67750  0.65330  0.27450  1.0000 0.1011065832
C   C35       1.0  0.82250  0.15330  0.22550  1.0000 0.1011065832
C   C36       1.0  0.17750  0.84670  0.22550  1.0000 0.1011065832
C   C37       1.0  0.67750  0.65330  0.72550  1.0000 0.1011065832
C   C38       1.0  0.32250  0.34670  0.72550  1.0000 0.1011065832
C   C39       1.0  0.17750  0.84670  0.77450  1.0000 0.1011065832
C   C40       1.0  0.82250  0.15330  0.77450  1.0000 0.1011065832
C   C41       1.0  0.39960  0.28850  0.25110  1.0000 -0.1533623849
C   C42       1.0  0.60040  0.71150  0.25110  1.0000 -0.1533623849
C   C43       1.0  0.89960  0.21150  0.24890  1.0000 -0.1533623849
C   C44       1.0  0.10040  0.78850  0.24890  1.0000 -0.1533623849
C   C45       1.0  0.60040  0.71150  0.74890  1.0000 -0.1533623849
C   C46       1.0  0.39960  0.28850  0.74890  1.0000 -0.1533623849
C   C47       1.0  0.10040  0.78850  0.75110  1.0000 -0.1533623849
C   C48       1.0  0.89960  0.21150  0.75110  1.0000 -0.1533623849
C   C49       1.0  0.37320  0.24130  0.19120  1.0000 -0.1094772713
C   C50       1.0  0.62680  0.75870  0.19120  1.0000 -0.1094772713
C   C51       1.0  0.87320  0.25870  0.30880  1.0000 -0.1094772713
C   C52       1.0  0.12680  0.74130  0.30880  1.0000 -0.1094772713
C   C53       1.0  0.62680  0.75870  0.80880  1.0000 -0.1094772713
C   C54       1.0  0.37320  0.24130  0.80880  1.0000 -0.1094772713
C   C55       1.0  0.12680  0.74130  0.69120  1.0000 -0.1094772713
C   C56       1.0  0.87320  0.25870  0.69120  1.0000 -0.1094772713
C   C57       1.0  0.33930  0.39640  0.34390  1.0000 -0.0232428899
C   C58       1.0  0.66070  0.60360  0.34390  1.0000 -0.0232428899
C   C59       1.0  0.83930  0.10360  0.15610  1.0000 -0.0232428899
C   C60       1.0  0.16070  0.89640  0.15610  1.0000 -0.0232428899
C   C61       1.0  0.66070  0.60360  0.65610  1.0000 -0.0232428899
C   C62       1.0  0.33930  0.39640  0.65610  1.0000 -0.0232428899
C   C63       1.0  0.16070  0.89640  0.84390  1.0000 -0.0232428899
C   C64       1.0  0.83930  0.10360  0.84390  1.0000 -0.0232428899
C   C65       1.0  0.27430  0.46440  0.37410  1.0000 -0.0403362913
C   C66       1.0  0.72570  0.53560  0.37410  1.0000 -0.0403362913
C   C67       1.0  0.77430  0.03560  0.12590  1.0000 -0.0403362913
C   C68       1.0  0.22570  0.96440  0.12590  1.0000 -0.0403362913
C   C69       1.0  0.72570  0.53560  0.62590  1.0000 -0.0403362913
C   C70       1.0  0.27430  0.46440  0.62590  1.0000 -0.0403362913
C   C71       1.0  0.22570  0.96440  0.87410  1.0000 -0.0403362913
C   C72       1.0  0.77430  0.03560  0.87410  1.0000 -0.0403362913
C   C73       1.0  0.42560  0.37900  0.39030  1.0000 -0.0792082148
C   C74       1.0  0.57440  0.62100  0.39030  1.0000 -0.0792082148
C   C75       1.0  0.92560  0.12100  0.10970  1.0000 -0.0792082148
C   C76       1.0  0.07440  0.87900  0.10970  1.0000 -0.0792082148
C   C77       1.0  0.57440  0.62100  0.60970  1.0000 -0.0792082148
C   C78       1.0  0.42560  0.37900  0.60970  1.0000 -0.0792082148
C   C79       1.0  0.07440  0.87900  0.89030  1.0000 -0.0792082148
C   C80       1.0  0.92560  0.12100  0.89030  1.0000 -0.0792082148
C   C81       1.0  0.47470  0.44920  0.50000  1.0000 0.0070948739
C   C82       1.0  0.52530  0.55080  0.50000  1.0000 0.0070948739
C   C83       1.0  0.97470  0.05080  0.00000  1.0000 0.0070948739
C   C84       1.0  0.02530  0.94920  0.00000  1.0000 0.0070948739
N   N1        1.0  0.31300  0.49160  0.43250  1.0000 -0.2555825906
N   N2        1.0  0.68700  0.50840  0.43250  1.0000 -0.2555825906
N   N3        1.0  0.81300  0.00840  0.06750  1.0000 -0.2555825906
N   N4        1.0  0.18700  0.99160  0.06750  1.0000 -0.2555825906
N   N5        1.0  0.68700  0.50840  0.56750  1.0000 -0.2555825906
N   N6        1.0  0.31300  0.49160  0.56750  1.0000 -0.2555825906
N   N7        1.0  0.18700  0.99160  0.93250  1.0000 -0.2555825906
N   N8        1.0  0.81300  0.00840  0.93250  1.0000 -0.2555825906
N   N9        1.0  0.40670  0.43610  0.44160  1.0000 0.1223854583
N   N10       1.0  0.59330  0.56390  0.44160  1.0000 0.1223854583
N   N11       1.0  0.90670  0.06390  0.05840  1.0000 0.1223854583
N   N12       1.0  0.09330  0.93610  0.05840  1.0000 0.1223854583
N   N13       1.0  0.59330  0.56390  0.55840  1.0000 0.1223854583
N   N14       1.0  0.40670  0.43610  0.55840  1.0000 0.1223854583
N   N15       1.0  0.09330  0.93610  0.94160  1.0000 0.1223854583
N   N16       1.0  0.90670  0.06390  0.94160  1.0000 0.1223854583
O   O1        1.0  0.32160  0.15330  0.07210  1.0000 -0.466599212
O   O2        1.0  0.67840  0.84670  0.07210  1.0000 -0.466599212
O   O3        1.0  0.82160  0.34670  0.42790  1.0000 -0.466599212
O   O4        1.0  0.17840  0.65330  0.42790  1.0000 -0.466599212
O   O5        1.0  0.67840  0.84670  0.92790  1.0000 -0.466599212
O   O6        1.0  0.32160  0.15330  0.92790  1.0000 -0.466599212
O   O7        1.0  0.17840  0.65330  0.57210  1.0000 -0.466599212
O   O8        1.0  0.82160  0.34670  0.57210  1.0000 -0.466599212
O   O9        1.0  0.15080  0.20860  0.07440  1.0000 -0.5201035151
O   O10       1.0  0.84920  0.79140  0.07440  1.0000 -0.5201035151
O   O11       1.0  0.65080  0.29140  0.42560  1.0000 -0.5201035151
O   O12       1.0  0.34920  0.70860  0.42560  1.0000 -0.5201035151
O   O13       1.0  0.84920  0.79140  0.92560  1.0000 -0.5201035151
O   O14       1.0  0.15080  0.20860  0.92560  1.0000 -0.5201035151
O   O15       1.0  0.34920  0.70860  0.57440  1.0000 -0.5201035151
O   O16       1.0  0.65080  0.29140  0.57440  1.0000 -0.5201035151
