# DDEC6 charges by PACMAN v1.1 (https://github.com/mtap-research/PACMAN-charge/)
data_2014[Eu][nan]3[ASR]6
_chemical_formula_sum              "Eu12 H172 C292 N24 O64"
_cell_length_a       14.5551
_cell_length_b       17.8237
_cell_length_c       34.7141
_cell_angle_alpha    90
_cell_angle_beta     113.847
_cell_angle_gamma    90

_symmetry_space_group_name_H-M    "P 1"
_symmetry_Int_Tables_number       1

loop_
  _symmetry_equiv_pos_as_xyz
  'x, y, z'

loop_
  _atom_site_type_symbol
  _atom_site_label
  _atom_site_symmetry_multiplicity
  _atom_site_fract_x
  _atom_site_fract_y
  _atom_site_fract_z
  _atom_site_occupancy
  _atom_site_charge
Eu  Eu1       1.0  0.41652  0.42330  0.51131  1.0000 2.213633273
Eu  Eu2       1.0  0.58349  0.92330  0.98870  1.0000 2.213633273
Eu  Eu3       1.0  0.58349  0.57670  0.48870  1.0000 2.213633273
Eu  Eu4       1.0  0.41652  0.07670  0.01131  1.0000 2.213633273
Eu  Eu5       1.0  0.14127  0.50324  0.49958  1.0000 2.1020952801
Eu  Eu6       1.0  0.85874  0.00324  0.00043  1.0000 2.1020952801
Eu  Eu7       1.0  0.85874  0.49676  0.50043  1.0000 2.1020952801
Eu  Eu8       1.0  0.14127  0.99676  0.99958  1.0000 2.1020952801
Eu  Eu9       1.0  0.71361  0.43352  0.56890  1.0000 2.0665608982
Eu  Eu10      1.0  0.28640  0.93352  0.93111  1.0000 2.0665608982
Eu  Eu11      1.0  0.28640  0.56648  0.43111  1.0000 2.0665608982
Eu  Eu12      1.0  0.71361  0.06648  0.06889  1.0000 2.0665608982
H   H1        1.0  0.66890  0.25420  0.67120  1.0000 0.1305482573
H   H2        1.0  0.33111  0.75420  0.82881  1.0000 0.1305482573
H   H3        1.0  0.33111  0.74580  0.32881  1.0000 0.1305482573
H   H4        1.0  0.66890  0.24580  0.17120  1.0000 0.1305482573
H   H5        1.0  0.58200  0.18710  0.70230  1.0000 0.1202633504
H   H6        1.0  0.41801  0.68710  0.79771  1.0000 0.1202633504
H   H7        1.0  0.41801  0.81290  0.29771  1.0000 0.1202633504
H   H8        1.0  0.58200  0.31290  0.20230  1.0000 0.1202633504
H   H9        1.0  0.33480  0.30510  0.63620  1.0000 0.1107560803
H   H10       1.0  0.66521  0.80510  0.86381  1.0000 0.1107560803
H   H11       1.0  0.66521  0.69490  0.36381  1.0000 0.1107560803
H   H12       1.0  0.33480  0.19490  0.13620  1.0000 0.1107560803
H   H13       1.0  0.42209  0.36650  0.60350  1.0000 0.1202633504
H   H14       1.0  0.57791  0.86650  0.89651  1.0000 0.1202633504
H   H15       1.0  0.57791  0.63350  0.39650  1.0000 0.1202633504
H   H16       1.0  0.42209  0.13350  0.10350  1.0000 0.1202633504
H   H17       1.0  0.25389  0.21430  0.65060  1.0000 0.1202633504
H   H18       1.0  0.74611  0.71430  0.84941  1.0000 0.1202633504
H   H19       1.0  0.74611  0.78570  0.34941  1.0000 0.1202633504
H   H20       1.0  0.25389  0.28570  0.15060  1.0000 0.1202633504
H   H21       1.0  0.26910  0.09900  0.75160  1.0000 0.1202633504
H   H22       1.0  0.73090  0.59900  0.74840  1.0000 0.1202633504
H   H23       1.0  0.73090  0.90100  0.24840  1.0000 0.1202633504
H   H24       1.0  0.26910  0.40100  0.25160  1.0000 0.1202633504
H   H25       1.0  0.36720  0.03760  0.80490  1.0000 0.1107560803
H   H26       1.0  0.63281  0.53760  0.69511  1.0000 0.1107560803
H   H27       1.0  0.63281  0.96240  0.19511  1.0000 0.1107560803
H   H28       1.0  0.36719  0.46240  0.30490  1.0000 0.1107560803
H   H29       1.0  0.47099  0.99560  0.87040  1.0000 0.1202633504
H   H30       1.0  0.52900  0.49560  0.62960  1.0000 0.1202633504
H   H31       1.0  0.52900  0.00440  0.12960  1.0000 0.1202633504
H   H32       1.0  0.47100  0.50440  0.37040  1.0000 0.1202633504
H   H33       1.0  0.70220  0.10500  0.86140  1.0000 0.1202633504
H   H34       1.0  0.29780  0.60500  0.63860  1.0000 0.1202633504
H   H35       1.0  0.29780  0.89500  0.13861  1.0000 0.1202633504
H   H36       1.0  0.70220  0.39500  0.36140  1.0000 0.1202633504
H   H37       1.0  0.59560  0.14750  0.79640  1.0000 0.1202633504
H   H38       1.0  0.40441  0.64750  0.70361  1.0000 0.1202633504
H   H39       1.0  0.40441  0.85250  0.20361  1.0000 0.1202633504
H   H40       1.0  0.59559  0.35250  0.29640  1.0000 0.1202633504
H   H41       1.0  0.11150  0.06050  0.70759  1.0000 0.1202633504
H   H42       1.0  0.88850  0.56050  0.79241  1.0000 0.1202633504
H   H43       1.0  0.88850  0.93950  0.29241  1.0000 0.1202633504
H   H44       1.0  0.11150  0.43950  0.20760  1.0000 0.1202633504
H   H45       1.0  0.94070  0.06720  0.68220  1.0000 0.1002163936
H   H46       1.0  0.05931  0.56720  0.81781  1.0000 0.1002163936
H   H47       1.0  0.05931  0.93280  0.31781  1.0000 0.1002163936
H   H48       1.0  0.94069  0.43280  0.18219  1.0000 0.1002163936
H   H49       1.0  0.93620  0.25320  0.62610  1.0000 0.1107560803
H   H50       1.0  0.06381  0.75320  0.87391  1.0000 0.1107560803
H   H51       1.0  0.06381  0.74680  0.37391  1.0000 0.1107560803
H   H52       1.0  0.93619  0.24680  0.12610  1.0000 0.1107560803
H   H53       1.0  0.10460  0.25440  0.65070  1.0000 0.1202633504
H   H54       1.0  0.89541  0.75440  0.84931  1.0000 0.1202633504
H   H55       1.0  0.89541  0.74560  0.34931  1.0000 0.1202633504
H   H56       1.0  0.10460  0.24560  0.15070  1.0000 0.1202633504
H   H57       1.0  0.30219  0.19670  0.53329  1.0000 0.1305482573
H   H58       1.0  0.69781  0.69670  0.96671  1.0000 0.1305482573
H   H59       1.0  0.69781  0.80330  0.46671  1.0000 0.1305482573
H   H60       1.0  0.30219  0.30330  0.03329  1.0000 0.1305482573
H   H61       1.0  0.24440  0.08280  0.54460  1.0000 0.1202633504
H   H62       1.0  0.75561  0.58280  0.95541  1.0000 0.1202633504
H   H63       1.0  0.75560  0.91720  0.45541  1.0000 0.1202633504
H   H64       1.0  0.24440  0.41720  0.04460  1.0000 0.1202633504
H   H65       1.0  0.02430  0.18630  0.56280  1.0000 0.1107560803
H   H66       1.0  0.97571  0.68630  0.93720  1.0000 0.1107560803
H   H67       1.0  0.97571  0.81370  0.43721  1.0000 0.1107560803
H   H68       1.0  0.02430  0.31370  0.06280  1.0000 0.1107560803
H   H69       1.0  0.08759  0.29960  0.55480  1.0000 0.1305482573
H   H70       1.0  0.91241  0.79960  0.94520  1.0000 0.1305482573
H   H71       1.0  0.91241  0.70040  0.44521  1.0000 0.1305482573
H   H72       1.0  0.08760  0.20040  0.05480  1.0000 0.1305482573
H   H73       1.0  0.98300  0.08070  0.58020  1.0000 0.1202633504
H   H74       1.0  0.01701  0.58070  0.91981  1.0000 0.1202633504
H   H75       1.0  0.01701  0.91930  0.41980  1.0000 0.1202633504
H   H76       1.0  0.98299  0.41930  0.08020  1.0000 0.1202633504
H   H77       1.0  0.99799  0.85970  0.56639  1.0000 0.1305482573
H   H78       1.0  0.00201  0.35970  0.93361  1.0000 0.1305482573
H   H79       1.0  0.00201  0.14030  0.43361  1.0000 0.1305482573
H   H80       1.0  0.99799  0.64030  0.06639  1.0000 0.1305482573
H   H81       1.0  0.09280  0.77330  0.55910  1.0000 0.1107560803
H   H82       1.0  0.90721  0.27330  0.94091  1.0000 0.1107560803
H   H83       1.0  0.90721  0.22670  0.44091  1.0000 0.1107560803
H   H84       1.0  0.09280  0.72670  0.05910  1.0000 0.1107560803
H   H85       1.0  0.15590  0.67790  0.53180  1.0000 0.1202633504
H   H86       1.0  0.84411  0.17790  0.96821  1.0000 0.1202633504
H   H87       1.0  0.84411  0.32210  0.46821  1.0000 0.1202633504
H   H88       1.0  0.15590  0.82210  0.03179  1.0000 0.1202633504
H   H89       1.0  0.26230  0.82630  0.47750  1.0000 0.1202633504
H   H90       1.0  0.73771  0.32630  0.02251  1.0000 0.1202633504
H   H91       1.0  0.73771  0.17370  0.52250  1.0000 0.1202633504
H   H92       1.0  0.26230  0.67370  0.97750  1.0000 0.1202633504
H   H93       1.0  0.22159  0.92090  0.51489  1.0000 0.1202633504
H   H94       1.0  0.77841  0.42090  0.98511  1.0000 0.1202633504
H   H95       1.0  0.77841  0.07910  0.48511  1.0000 0.1202633504
H   H96       1.0  0.22159  0.57910  0.01490  1.0000 0.1202633504
H   H97       1.0  0.80849  0.04800  0.56190  1.0000 0.1202633504
H   H98       1.0  0.19151  0.54800  0.93811  1.0000 0.1202633504
H   H99       1.0  0.19151  0.95200  0.43811  1.0000 0.1202633504
H   H100      1.0  0.80849  0.45200  0.06190  1.0000 0.1202633504
H   H101      1.0  0.68120  0.02530  0.58220  1.0000 0.1107560803
H   H102      1.0  0.31881  0.52530  0.91781  1.0000 0.1107560803
H   H103      1.0  0.31881  0.97470  0.41780  1.0000 0.1107560803
H   H104      1.0  0.68119  0.47470  0.08220  1.0000 0.1107560803
H   H105      1.0  0.83480  0.86750  0.65980  1.0000 0.1107560803
H   H106      1.0  0.16521  0.36750  0.84021  1.0000 0.1107560803
H   H107      1.0  0.16520  0.13250  0.34020  1.0000 0.1107560803
H   H108      1.0  0.83479  0.63250  0.15979  1.0000 0.1107560803
H   H109      1.0  0.94400  0.86350  0.62310  1.0000 0.1305482573
H   H110      1.0  0.05601  0.36350  0.87691  1.0000 0.1305482573
H   H111      1.0  0.05601  0.13650  0.37691  1.0000 0.1305482573
H   H112      1.0  0.94400  0.63650  0.12310  1.0000 0.1305482573
H   H113      1.0  0.48670  0.33350  0.42000  1.0000 0.1305482573
H   H114      1.0  0.51331  0.83350  0.08001  1.0000 0.1305482573
H   H115      1.0  0.51330  0.66650  0.58000  1.0000 0.1305482573
H   H116      1.0  0.48669  0.16650  0.92000  1.0000 0.1305482573
H   H117      1.0  0.51760  0.23700  0.38200  1.0000 0.1107560803
H   H118      1.0  0.48241  0.73700  0.11801  1.0000 0.1107560803
H   H119      1.0  0.48241  0.76300  0.61801  1.0000 0.1107560803
H   H120      1.0  0.51760  0.26300  0.88200  1.0000 0.1107560803
H   H121      1.0  0.23670  0.25650  0.29380  1.0000 0.1107560803
H   H122      1.0  0.76331  0.75650  0.20620  1.0000 0.1107560803
H   H123      1.0  0.76331  0.74350  0.70621  1.0000 0.1107560803
H   H124      1.0  0.23669  0.24350  0.79380  1.0000 0.1107560803
H   H125      1.0  0.20580  0.35240  0.33110  1.0000 0.1202633504
H   H126      1.0  0.79420  0.85240  0.16890  1.0000 0.1202633504
H   H127      1.0  0.79421  0.64760  0.66891  1.0000 0.1202633504
H   H128      1.0  0.20580  0.14760  0.83110  1.0000 0.1202633504
H   H129      1.0  0.55590  0.18480  0.33249  1.0000 0.1305482573
H   H130      1.0  0.44411  0.68480  0.16750  1.0000 0.1305482573
H   H131      1.0  0.44411  0.81520  0.66751  1.0000 0.1305482573
H   H132      1.0  0.55590  0.31520  0.83250  1.0000 0.1305482573
H   H133      1.0  0.43989  0.06930  0.22529  1.0000 0.1305482573
H   H134      1.0  0.56011  0.56930  0.27471  1.0000 0.1305482573
H   H135      1.0  0.56011  0.93070  0.77471  1.0000 0.1305482573
H   H136      1.0  0.43990  0.43070  0.72530  1.0000 0.1305482573
H   H137      1.0  0.30240  0.07340  0.16410  1.0000 0.1107560803
H   H138      1.0  0.69761  0.57340  0.33591  1.0000 0.1107560803
H   H139      1.0  0.69761  0.92660  0.83591  1.0000 0.1107560803
H   H140      1.0  0.30240  0.42660  0.66409  1.0000 0.1107560803
H   H141      1.0  0.15360  0.05870  0.10690  1.0000 0.1305482573
H   H142      1.0  0.84641  0.55870  0.39311  1.0000 0.1305482573
H   H143      1.0  0.84640  0.94130  0.89311  1.0000 0.1305482573
H   H144      1.0  0.15360  0.44130  0.60689  1.0000 0.1305482573
H   H145      1.0  0.00250  0.09580  0.17840  1.0000 0.1305482573
H   H146      1.0  0.99750  0.59580  0.32160  1.0000 0.1305482573
H   H147      1.0  0.99751  0.90420  0.82161  1.0000 0.1305482573
H   H148      1.0  0.00250  0.40420  0.67840  1.0000 0.1305482573
H   H149      1.0  0.15040  0.11670  0.23540  1.0000 0.1202633504
H   H150      1.0  0.84961  0.61670  0.26460  1.0000 0.1202633504
H   H151      1.0  0.84961  0.88330  0.76461  1.0000 0.1202633504
H   H152      1.0  0.15040  0.38330  0.73540  1.0000 0.1202633504
H   H153      1.0  0.59020  0.11920  0.22229  1.0000 0.1202633504
H   H154      1.0  0.40981  0.61920  0.27771  1.0000 0.1202633504
H   H155      1.0  0.40981  0.88080  0.77771  1.0000 0.1202633504
H   H156      1.0  0.59020  0.38080  0.72230  1.0000 0.1202633504
H   H157      1.0  0.75290  0.09780  0.22950  1.0000 0.1107560803
H   H158      1.0  0.24710  0.59780  0.27050  1.0000 0.1107560803
H   H159      1.0  0.24711  0.90220  0.77050  1.0000 0.1107560803
H   H160      1.0  0.75290  0.40220  0.72950  1.0000 0.1107560803
H   H161      1.0  0.84079  0.05980  0.34710  1.0000 0.1002163936
H   H162      1.0  0.15921  0.55980  0.15291  1.0000 0.1002163936
H   H163      1.0  0.15921  0.94020  0.65291  1.0000 0.1002163936
H   H164      1.0  0.84080  0.44020  0.84710  1.0000 0.1002163936
H   H165      1.0  0.68369  0.08540  0.34510  1.0000 0.1305482573
H   H166      1.0  0.31631  0.58540  0.15491  1.0000 0.1305482573
H   H167      1.0  0.31631  0.91460  0.65491  1.0000 0.1305482573
H   H168      1.0  0.68370  0.41460  0.84510  1.0000 0.1305482573
H   H169      1.0  0.92819  0.37490  0.42640  1.0000 0.1002163936
H   H170      1.0  0.07180  0.87490  0.07361  1.0000 0.1002163936
H   H171      1.0  0.07181  0.62510  0.57361  1.0000 0.1002163936
H   H172      1.0  0.92819  0.12510  0.92640  1.0000 0.1002163936
C   C1        1.0  0.60681  0.35710  0.61131  1.0000 0.5971516708
C   C2        1.0  0.39320  0.85710  0.88870  1.0000 0.5971516708
C   C3        1.0  0.39320  0.64290  0.38870  1.0000 0.5971516708
C   C4        1.0  0.60681  0.14290  0.11131  1.0000 0.5971516708
C   C5        1.0  0.55322  0.31520  0.63292  1.0000 -0.0280994474
C   C6        1.0  0.44679  0.81520  0.86709  1.0000 -0.0280994474
C   C7        1.0  0.44678  0.68480  0.36708  1.0000 -0.0280994474
C   C8        1.0  0.55322  0.18480  0.13292  1.0000 -0.0280994474
C   C9        1.0  0.60070  0.26320  0.66320  1.0000 -0.1063286772
C   C10       1.0  0.39931  0.76320  0.83681  1.0000 -0.1063286772
C   C11       1.0  0.39931  0.73680  0.33681  1.0000 -0.1063286772
C   C12       1.0  0.60069  0.23680  0.16320  1.0000 -0.1063286772
C   C13       1.0  0.54850  0.22350  0.68230  1.0000 -0.1291038355
C   C14       1.0  0.45151  0.72350  0.81771  1.0000 -0.1291038355
C   C15       1.0  0.45151  0.77650  0.31771  1.0000 -0.1291038355
C   C16       1.0  0.54850  0.27650  0.18230  1.0000 -0.1291038355
C   C17       1.0  0.44949  0.23670  0.67249  1.0000 0.0481780943
C   C18       1.0  0.55051  0.73670  0.82751  1.0000 0.0481780943
C   C19       1.0  0.55051  0.76330  0.32751  1.0000 0.0481780943
C   C20       1.0  0.44950  0.26330  0.17250  1.0000 0.0481780943
C   C21       1.0  0.40160  0.29300  0.64280  1.0000 -0.1578019669
C   C22       1.0  0.59840  0.79300  0.85721  1.0000 -0.1578019669
C   C23       1.0  0.59840  0.70700  0.35720  1.0000 -0.1578019669
C   C24       1.0  0.40159  0.20700  0.14280  1.0000 -0.1578019669
C   C25       1.0  0.45460  0.33010  0.62350  1.0000 -0.0921457495
C   C26       1.0  0.54541  0.83010  0.87651  1.0000 -0.0921457495
C   C27       1.0  0.54541  0.66990  0.37650  1.0000 -0.0921457495
C   C28       1.0  0.45460  0.16990  0.12350  1.0000 -0.0921457495
C   C29       1.0  0.39280  0.19690  0.69349  1.0000 0.2005889753
C   C30       1.0  0.60720  0.69690  0.80651  1.0000 0.2005889753
C   C31       1.0  0.60720  0.80310  0.30651  1.0000 0.2005889753
C   C32       1.0  0.39280  0.30310  0.19350  1.0000 0.2005889753
C   C33       1.0  0.29040  0.19330  0.67690  1.0000 -0.2203741233
C   C34       1.0  0.70961  0.69330  0.82311  1.0000 -0.2203741233
C   C35       1.0  0.70961  0.80670  0.32310  1.0000 -0.2203741233
C   C36       1.0  0.29040  0.30670  0.17690  1.0000 -0.2203741233
C   C37       1.0  0.23930  0.15870  0.69840  1.0000 0.1107560803
C   C38       1.0  0.76071  0.65870  0.80161  1.0000 0.1107560803
C   C39       1.0  0.76070  0.84130  0.30161  1.0000 0.1107560803
C   C40       1.0  0.23930  0.34130  0.19840  1.0000 0.1107560803
C   C41       1.0  0.29910  0.12480  0.73650  1.0000 -0.2203741233
C   C42       1.0  0.70091  0.62480  0.76351  1.0000 -0.2203741233
C   C43       1.0  0.70091  0.87520  0.26350  1.0000 -0.2203741233
C   C44       1.0  0.29909  0.37520  0.23650  1.0000 -0.2203741233
C   C45       1.0  0.40318  0.12920  0.75199  1.0000 0.2065539754
C   C46       1.0  0.59681  0.62920  0.74801  1.0000 0.2065539754
C   C47       1.0  0.59681  0.87080  0.24802  1.0000 0.2065539754
C   C48       1.0  0.40319  0.37080  0.25199  1.0000 0.2065539754
C   C49       1.0  0.47009  0.09760  0.79329  1.0000 0.039674246
C   C50       1.0  0.52991  0.59760  0.70671  1.0000 0.039674246
C   C51       1.0  0.52990  0.90240  0.20670  1.0000 0.039674246
C   C52       1.0  0.47010  0.40240  0.29330  1.0000 0.039674246
C   C53       1.0  0.43442  0.05200  0.81632  1.0000 -0.1505676319
C   C54       1.0  0.56559  0.55200  0.68369  1.0000 -0.1505676319
C   C55       1.0  0.56559  0.94800  0.18369  1.0000 -0.1505676319
C   C56       1.0  0.43441  0.44800  0.31632  1.0000 -0.1505676319
C   C57       1.0  0.49634  0.02740  0.85584  1.0000 -0.0921457495
C   C58       1.0  0.50367  0.52740  0.64417  1.0000 -0.0921457495
C   C59       1.0  0.50367  0.97260  0.14416  1.0000 -0.0921457495
C   C60       1.0  0.49634  0.47260  0.35584  1.0000 -0.0921457495
C   C61       1.0  0.59568  0.04950  0.87418  1.0000 -0.0187692095
C   C62       1.0  0.40433  0.54950  0.62583  1.0000 -0.0187692095
C   C63       1.0  0.40432  0.95050  0.12582  1.0000 -0.0187692095
C   C64       1.0  0.59567  0.45050  0.37417  1.0000 -0.0187692095
C   C65       1.0  0.63440  0.09270  0.85070  1.0000 -0.1003927785
C   C66       1.0  0.36560  0.59270  0.64931  1.0000 -0.1003927785
C   C67       1.0  0.36560  0.90730  0.14931  1.0000 -0.1003927785
C   C68       1.0  0.63440  0.40730  0.35070  1.0000 -0.1003927785
C   C69       1.0  0.57020  0.11680  0.81140  1.0000 -0.1382019977
C   C70       1.0  0.42981  0.61680  0.68861  1.0000 -0.1382019977
C   C71       1.0  0.42980  0.88320  0.18861  1.0000 -0.1382019977
C   C72       1.0  0.57020  0.38320  0.31139  1.0000 -0.1382019977
C   C73       1.0  0.66292  0.02650  0.91853  1.0000 0.6223190168
C   C74       1.0  0.33708  0.52650  0.58147  1.0000 0.6223190168
C   C75       1.0  0.33708  0.97350  0.08148  1.0000 0.6223190168
C   C76       1.0  0.66292  0.47350  0.41853  1.0000 0.6223190168
C   C77       1.0  0.13000  0.15870  0.68230  1.0000 0.1002163936
C   C78       1.0  0.87001  0.65870  0.81771  1.0000 0.1002163936
C   C79       1.0  0.87001  0.84130  0.31771  1.0000 0.1002163936
C   C80       1.0  0.13000  0.34130  0.18230  1.0000 0.1002163936
C   C81       1.0  0.07770  0.10120  0.69120  1.0000 -0.2100254568
C   C82       1.0  0.92231  0.60120  0.80881  1.0000 -0.2100254568
C   C83       1.0  0.92231  0.89880  0.30881  1.0000 -0.2100254568
C   C84       1.0  0.07770  0.39880  0.19120  1.0000 -0.2100254568
C   C85       1.0  0.97459  0.10570  0.67530  1.0000 0.039674246
C   C86       1.0  0.02541  0.60570  0.82471  1.0000 0.039674246
C   C87       1.0  0.02541  0.89430  0.32471  1.0000 0.039674246
C   C88       1.0  0.97459  0.39430  0.17530  1.0000 0.039674246
C   C89       1.0  0.97100  0.21330  0.64299  1.0000 0.0876650775
C   C90       1.0  0.02901  0.71330  0.85701  1.0000 0.0876650775
C   C91       1.0  0.02901  0.78670  0.35701  1.0000 0.0876650775
C   C92       1.0  0.97100  0.28670  0.14300  1.0000 0.0876650775
C   C93       1.0  0.07320  0.21440  0.65770  1.0000 -0.2016451022
C   C94       1.0  0.92681  0.71440  0.84231  1.0000 -0.2016451022
C   C95       1.0  0.92681  0.78560  0.34231  1.0000 -0.2016451022
C   C96       1.0  0.07319  0.28560  0.15770  1.0000 -0.2016451022
C   C97       1.0  0.23659  0.33490  0.53370  1.0000 0.6350419263
C   C98       1.0  0.76341  0.83490  0.96631  1.0000 0.6350419263
C   C99       1.0  0.76341  0.66510  0.46631  1.0000 0.6350419263
C   C100      1.0  0.23659  0.16510  0.03370  1.0000 0.6350419263
C   C101      1.0  0.19889  0.26110  0.54139  1.0000 -0.0280994474
C   C102      1.0  0.80110  0.76110  0.95861  1.0000 -0.0280994474
C   C103      1.0  0.80110  0.73890  0.45861  1.0000 -0.0280994474
C   C104      1.0  0.19889  0.23890  0.04140  1.0000 -0.0280994474
C   C105      1.0  0.24560  0.19510  0.53939  1.0000 -0.0921457495
C   C106      1.0  0.75441  0.69510  0.96061  1.0000 -0.0921457495
C   C107      1.0  0.75440  0.80490  0.46061  1.0000 -0.0921457495
C   C108      1.0  0.24560  0.30490  0.03940  1.0000 -0.0921457495
C   C109      1.0  0.21070  0.12640  0.54600  1.0000 -0.1382019977
C   C110      1.0  0.78931  0.62640  0.95401  1.0000 -0.1382019977
C   C111      1.0  0.78931  0.87360  0.45401  1.0000 -0.1382019977
C   C112      1.0  0.21069  0.37360  0.04600  1.0000 -0.1382019977
C   C113      1.0  0.12720  0.12190  0.55460  1.0000 0.0481780943
C   C114      1.0  0.87281  0.62190  0.94541  1.0000 0.0481780943
C   C115      1.0  0.87281  0.87810  0.44541  1.0000 0.0481780943
C   C116      1.0  0.12720  0.37810  0.05460  1.0000 0.0481780943
C   C117      1.0  0.08140  0.18770  0.55710  1.0000 -0.1578019669
C   C118      1.0  0.91861  0.68770  0.94291  1.0000 -0.1578019669
C   C119      1.0  0.91861  0.81230  0.44291  1.0000 -0.1578019669
C   C120      1.0  0.08139  0.31230  0.05709  1.0000 -0.1578019669
C   C121      1.0  0.11860  0.25590  0.55150  1.0000 -0.1003927785
C   C122      1.0  0.88141  0.75590  0.94851  1.0000 -0.1003927785
C   C123      1.0  0.88140  0.74410  0.44851  1.0000 -0.1003927785
C   C124      1.0  0.11860  0.24410  0.05150  1.0000 -0.1003927785
C   C125      1.0  0.08690  0.04680  0.55929  1.0000 0.2065539754
C   C126      1.0  0.91311  0.54680  0.94071  1.0000 0.2065539754
C   C127      1.0  0.91311  0.95320  0.44071  1.0000 0.2065539754
C   C128      1.0  0.08690  0.45320  0.05930  1.0000 0.2065539754
C   C129      1.0  0.01080  0.03890  0.57300  1.0000 -0.2286586076
C   C130      1.0  0.98921  0.53890  0.92701  1.0000 -0.2286586076
C   C131      1.0  0.98921  0.96110  0.42701  1.0000 -0.2286586076
C   C132      1.0  0.01080  0.46110  0.07300  1.0000 -0.2286586076
C   C133      1.0  0.97649  0.96770  0.57590  1.0000 0.1002163936
C   C134      1.0  0.02351  0.46770  0.92411  1.0000 0.1002163936
C   C135      1.0  0.02350  0.03230  0.42411  1.0000 0.1002163936
C   C136      1.0  0.97650  0.53230  0.07590  1.0000 0.1002163936
C   C137      1.0  0.02030  0.90810  0.56500  1.0000 -0.2286586076
C   C138      1.0  0.97971  0.40810  0.93501  1.0000 -0.2286586076
C   C139      1.0  0.97971  0.09190  0.43501  1.0000 -0.2286586076
C   C140      1.0  0.02030  0.59190  0.06499  1.0000 -0.2286586076
C   C141      1.0  0.09689  0.91880  0.55180  1.0000 0.2065539754
C   C142      1.0  0.90311  0.41880  0.94820  1.0000 0.2065539754
C   C143      1.0  0.90311  0.08120  0.44821  1.0000 0.2065539754
C   C144      1.0  0.09690  0.58120  0.05180  1.0000 0.2065539754
C   C145      1.0  0.14320  0.85780  0.53800  1.0000 0.0481780943
C   C146      1.0  0.85681  0.35780  0.96201  1.0000 0.0481780943
C   C147      1.0  0.85681  0.14220  0.46201  1.0000 0.0481780943
C   C148      1.0  0.14319  0.64220  0.03800  1.0000 0.0481780943
C   C149      1.0  0.12929  0.78600  0.54339  1.0000 -0.1694922967
C   C150      1.0  0.87071  0.28600  0.95661  1.0000 -0.1694922967
C   C151      1.0  0.87071  0.21400  0.45661  1.0000 -0.1694922967
C   C152      1.0  0.12929  0.71400  0.04340  1.0000 -0.1694922967
C   C153      1.0  0.16700  0.72740  0.52650  1.0000 -0.0777729794
C   C154      1.0  0.83301  0.22740  0.97351  1.0000 -0.0777729794
C   C155      1.0  0.83301  0.27260  0.47351  1.0000 -0.0777729794
C   C156      1.0  0.16700  0.77260  0.02650  1.0000 -0.0777729794
C   C157      1.0  0.21610  0.74130  0.50400  1.0000 -0.0187692095
C   C158      1.0  0.78391  0.24130  0.99601  1.0000 -0.0187692095
C   C159      1.0  0.78390  0.25870  0.49601  1.0000 -0.0187692095
C   C160      1.0  0.21610  0.75870  0.00400  1.0000 -0.0187692095
C   C161      1.0  0.23220  0.81470  0.49580  1.0000 -0.1003927785
C   C162      1.0  0.76780  0.31470  0.00421  1.0000 -0.1003927785
C   C163      1.0  0.76781  0.18530  0.50421  1.0000 -0.1003927785
C   C164      1.0  0.23220  0.68530  0.99580  1.0000 -0.1003927785
C   C165      1.0  0.20139  0.87190  0.51629  1.0000 -0.1694922967
C   C166      1.0  0.79861  0.37190  0.98371  1.0000 -0.1694922967
C   C167      1.0  0.79861  0.12810  0.48371  1.0000 -0.1694922967
C   C168      1.0  0.20139  0.62810  0.01630  1.0000 -0.1694922967
C   C169      1.0  0.24360  0.68040  0.48180  1.0000 0.6223190168
C   C170      1.0  0.75640  0.18040  0.01821  1.0000 0.6223190168
C   C171      1.0  0.75641  0.31960  0.51821  1.0000 0.6223190168
C   C172      1.0  0.24360  0.81960  0.98180  1.0000 0.6223190168
C   C173      1.0  0.88889  0.95750  0.58830  1.0000 0.1107560803
C   C174      1.0  0.11110  0.45750  0.91170  1.0000 0.1107560803
C   C175      1.0  0.11111  0.04250  0.41171  1.0000 0.1107560803
C   C176      1.0  0.88889  0.54250  0.08829  1.0000 0.1107560803
C   C177      1.0  0.81139  0.00620  0.57830  1.0000 -0.194166228
C   C178      1.0  0.18861  0.50620  0.92170  1.0000 -0.194166228
C   C179      1.0  0.18861  0.99380  0.42171  1.0000 -0.194166228
C   C180      1.0  0.81139  0.49380  0.07830  1.0000 -0.194166228
C   C181      1.0  0.73699  0.99400  0.59240  1.0000 0.0876650775
C   C182      1.0  0.26301  0.49400  0.90761  1.0000 0.0876650775
C   C183      1.0  0.26301  0.00600  0.40761  1.0000 0.0876650775
C   C184      1.0  0.73699  0.50600  0.09240  1.0000 0.0876650775
C   C185      1.0  0.82349  0.89750  0.63650  1.0000 0.0695300216
C   C186      1.0  0.17651  0.39750  0.86351  1.0000 0.0695300216
C   C187      1.0  0.17650  0.10250  0.36351  1.0000 0.0695300216
C   C188      1.0  0.82349  0.60250  0.13650  1.0000 0.0695300216
C   C189      1.0  0.89460  0.90010  0.61680  1.0000 -0.2100254568
C   C190      1.0  0.10541  0.40010  0.88321  1.0000 -0.2100254568
C   C191      1.0  0.10541  0.09990  0.38321  1.0000 -0.2100254568
C   C192      1.0  0.89460  0.59990  0.11680  1.0000 -0.2100254568
C   C193      1.0  0.32970  0.42370  0.39980  1.0000 0.5932755063
C   C194      1.0  0.67031  0.92370  0.10021  1.0000 0.5932755063
C   C195      1.0  0.67031  0.57630  0.60020  1.0000 0.5932755063
C   C196      1.0  0.32970  0.07630  0.89980  1.0000 0.5932755063
C   C197      1.0  0.34510  0.35450  0.37890  1.0000 -0.0280994474
C   C198      1.0  0.65490  0.85450  0.12111  1.0000 -0.0280994474
C   C199      1.0  0.65490  0.64550  0.62111  1.0000 -0.0280994474
C   C200      1.0  0.34509  0.14550  0.87889  1.0000 -0.0280994474
C   C201      1.0  0.43709  0.31890  0.39430  1.0000 -0.0777729794
C   C202      1.0  0.56290  0.81890  0.10571  1.0000 -0.0777729794
C   C203      1.0  0.56290  0.68110  0.60571  1.0000 -0.0777729794
C   C204      1.0  0.43710  0.18110  0.89430  1.0000 -0.0777729794
C   C205      1.0  0.45580  0.26120  0.37140  1.0000 -0.1505676319
C   C206      1.0  0.54421  0.76120  0.12860  1.0000 -0.1505676319
C   C207      1.0  0.54421  0.73880  0.62860  1.0000 -0.1505676319
C   C208      1.0  0.45579  0.23880  0.87140  1.0000 -0.1505676319
C   C209      1.0  0.38210  0.23960  0.33249  1.0000 0.039674246
C   C210      1.0  0.61791  0.73960  0.16750  1.0000 0.039674246
C   C211      1.0  0.61791  0.76040  0.66751  1.0000 0.039674246
C   C212      1.0  0.38210  0.26040  0.83250  1.0000 0.039674246
C   C213      1.0  0.28770  0.27300  0.31860  1.0000 -0.1505676319
C   C214      1.0  0.71230  0.77300  0.18141  1.0000 -0.1505676319
C   C215      1.0  0.71231  0.72700  0.68141  1.0000 -0.1505676319
C   C216      1.0  0.28770  0.22700  0.81860  1.0000 -0.1505676319
C   C217      1.0  0.26889  0.33010  0.34099  1.0000 -0.1003927785
C   C218      1.0  0.73111  0.83010  0.15901  1.0000 -0.1003927785
C   C219      1.0  0.73111  0.66990  0.65901  1.0000 -0.1003927785
C   C220      1.0  0.26890  0.16990  0.84100  1.0000 -0.1003927785
C   C221      1.0  0.40410  0.18490  0.30480  1.0000 0.216500629
C   C222      1.0  0.59591  0.68490  0.19521  1.0000 0.216500629
C   C223      1.0  0.59591  0.81510  0.69520  1.0000 0.216500629
C   C224      1.0  0.40409  0.31510  0.80480  1.0000 0.216500629
C   C225      1.0  0.50079  0.16690  0.30939  1.0000 -0.2286586076
C   C226      1.0  0.49921  0.66690  0.19061  1.0000 -0.2286586076
C   C227      1.0  0.49921  0.83310  0.69061  1.0000 -0.2286586076
C   C228      1.0  0.50079  0.33310  0.80940  1.0000 -0.2286586076
C   C229      1.0  0.51529  0.12240  0.27970  1.0000 0.1107560803
C   C230      1.0  0.48471  0.62240  0.22031  1.0000 0.1107560803
C   C231      1.0  0.48471  0.87760  0.72030  1.0000 0.1107560803
C   C232      1.0  0.51529  0.37760  0.77970  1.0000 0.1107560803
C   C233      1.0  0.43260  0.09860  0.24610  1.0000 -0.2203741233
C   C234      1.0  0.56741  0.59860  0.25391  1.0000 -0.2203741233
C   C235      1.0  0.56741  0.90140  0.75391  1.0000 -0.2203741233
C   C236      1.0  0.43259  0.40140  0.74609  1.0000 -0.2203741233
C   C237      1.0  0.33730  0.11790  0.24269  1.0000 0.2065539754
C   C238      1.0  0.66270  0.61790  0.25731  1.0000 0.2065539754
C   C239      1.0  0.66271  0.88210  0.75731  1.0000 0.2065539754
C   C240      1.0  0.33730  0.38210  0.74269  1.0000 0.2065539754
C   C241      1.0  0.24210  0.09830  0.20570  1.0000 0.039674246
C   C242      1.0  0.75791  0.59830  0.29430  1.0000 0.039674246
C   C243      1.0  0.75791  0.90170  0.79431  1.0000 0.039674246
C   C244      1.0  0.24210  0.40170  0.70569  1.0000 0.039674246
C   C245      1.0  0.24200  0.07960  0.16700  1.0000 -0.1505676319
C   C246      1.0  0.75801  0.57960  0.33301  1.0000 -0.1505676319
C   C247      1.0  0.75801  0.92040  0.83300  1.0000 -0.1505676319
C   C248      1.0  0.24200  0.42040  0.66700  1.0000 -0.1505676319
C   C249      1.0  0.15310  0.07010  0.13300  1.0000 -0.1003927785
C   C250      1.0  0.84691  0.57010  0.36701  1.0000 -0.1003927785
C   C251      1.0  0.84691  0.92990  0.86701  1.0000 -0.1003927785
C   C252      1.0  0.15310  0.42990  0.63299  1.0000 -0.1003927785
C   C253      1.0  0.06180  0.07720  0.13650  1.0000 -0.0280994474
C   C254      1.0  0.93820  0.57720  0.36351  1.0000 -0.0280994474
C   C255      1.0  0.93821  0.92280  0.86351  1.0000 -0.0280994474
C   C256      1.0  0.06180  0.42280  0.63650  1.0000 -0.0280994474
C   C257      1.0  0.06300  0.09300  0.17530  1.0000 -0.1003927785
C   C258      1.0  0.93701  0.59300  0.32471  1.0000 -0.1003927785
C   C259      1.0  0.93701  0.90700  0.82471  1.0000 -0.1003927785
C   C260      1.0  0.06300  0.40700  0.67530  1.0000 -0.1003927785
C   C261      1.0  0.15130  0.10460  0.20949  1.0000 -0.1382019977
C   C262      1.0  0.84871  0.60460  0.29051  1.0000 -0.1382019977
C   C263      1.0  0.84871  0.89540  0.79051  1.0000 -0.1382019977
C   C264      1.0  0.15130  0.39540  0.70950  1.0000 -0.1382019977
C   C265      1.0  0.96467  0.07050  0.09838  1.0000 0.6282146911
C   C266      1.0  0.03533  0.57050  0.40163  1.0000 0.6282146911
C   C267      1.0  0.03533  0.92950  0.90163  1.0000 0.6282146911
C   C268      1.0  0.96468  0.42950  0.59838  1.0000 0.6282146911
C   C269      1.0  0.61770  0.10560  0.28300  1.0000 0.1002163936
C   C270      1.0  0.38231  0.60560  0.21701  1.0000 0.1002163936
C   C271      1.0  0.38231  0.89440  0.71701  1.0000 0.1002163936
C   C272      1.0  0.61770  0.39440  0.78300  1.0000 0.1002163936
C   C273      1.0  0.64019  0.10850  0.24869  1.0000 -0.2016451022
C   C274      1.0  0.35981  0.60850  0.25131  1.0000 -0.2016451022
C   C275      1.0  0.35980  0.89150  0.75131  1.0000 -0.2016451022
C   C276      1.0  0.64019  0.39150  0.74869  1.0000 -0.2016451022
C   C277      1.0  0.73850  0.09530  0.25320  1.0000 0.0817957839
C   C278      1.0  0.26150  0.59530  0.24681  1.0000 0.0817957839
C   C279      1.0  0.26150  0.90470  0.74681  1.0000 0.0817957839
C   C280      1.0  0.73850  0.40470  0.75319  1.0000 0.0817957839
C   C281      1.0  0.79000  0.07400  0.32160  1.0000 0.0817957839
C   C282      1.0  0.21000  0.57400  0.17841  1.0000 0.0817957839
C   C283      1.0  0.21001  0.92600  0.67841  1.0000 0.0817957839
C   C284      1.0  0.79000  0.42600  0.82160  1.0000 0.0817957839
C   C285      1.0  0.69480  0.08800  0.32060  1.0000 -0.2100254568
C   C286      1.0  0.30521  0.58800  0.17941  1.0000 -0.2100254568
C   C287      1.0  0.30521  0.91200  0.67941  1.0000 -0.2100254568
C   C288      1.0  0.69480  0.41200  0.82060  1.0000 -0.2100254568
C   C289      1.0  0.98280  0.39950  0.44650  1.0000 0.4945937658
C   C290      1.0  0.01721  0.89950  0.05350  1.0000 0.4945937658
C   C291      1.0  0.01721  0.60050  0.55351  1.0000 0.4945937658
C   C292      1.0  0.98279  0.10050  0.94649  1.0000 0.4945937658
N   N1        1.0  0.91849  0.16130  0.65050  1.0000 -0.258540614
N   N2        1.0  0.08150  0.66130  0.84950  1.0000 -0.258540614
N   N3        1.0  0.08151  0.83870  0.34951  1.0000 -0.258540614
N   N4        1.0  0.91849  0.33870  0.15050  1.0000 -0.258540614
N   N5        1.0  0.44981  0.16460  0.73062  1.0000 -0.3188108539
N   N6        1.0  0.55019  0.66460  0.76939  1.0000 -0.3188108539
N   N7        1.0  0.55019  0.83540  0.26938  1.0000 -0.3188108539
N   N8        1.0  0.44982  0.33540  0.23062  1.0000 -0.3188108539
N   N9        1.0  0.73890  0.94120  0.61930  1.0000 -0.258540614
N   N10       1.0  0.26111  0.44120  0.88071  1.0000 -0.258540614
N   N11       1.0  0.26111  0.05880  0.38071  1.0000 -0.258540614
N   N12       1.0  0.73889  0.55880  0.11929  1.0000 -0.258540614
N   N13       1.0  0.12968  0.98770  0.54937  1.0000 -0.2985151147
N   N14       1.0  0.87033  0.48770  0.95063  1.0000 -0.2985151147
N   N15       1.0  0.87033  0.01230  0.45063  1.0000 -0.2985151147
N   N16       1.0  0.12968  0.51230  0.04938  1.0000 -0.2985151147
N   N17       1.0  0.81110  0.07950  0.28950  1.0000 -0.258540614
N   N18       1.0  0.18891  0.57950  0.21051  1.0000 -0.258540614
N   N19       1.0  0.18891  0.92050  0.71051  1.0000 -0.258540614
N   N20       1.0  0.81110  0.42050  0.78950  1.0000 -0.258540614
N   N21       1.0  0.32442  0.16150  0.27212  1.0000 -0.3188108539
N   N22       1.0  0.67559  0.66150  0.22789  1.0000 -0.3188108539
N   N23       1.0  0.67558  0.83850  0.72789  1.0000 -0.3188108539
N   N24       1.0  0.32441  0.33850  0.77211  1.0000 -0.3188108539
O   O1        1.0  0.75387  0.04240  0.93157  1.0000 -0.630976822
O   O2        1.0  0.24614  0.54240  0.56844  1.0000 -0.630976822
O   O3        1.0  0.24613  0.95760  0.06843  1.0000 -0.630976822
O   O4        1.0  0.75387  0.45760  0.43156  1.0000 -0.630976822
O   O5        1.0  0.62373  0.99330  0.94003  1.0000 -0.6135775408
O   O6        1.0  0.37628  0.49330  0.55998  1.0000 -0.6135775408
O   O7        1.0  0.37628  0.00670  0.05998  1.0000 -0.6135775408
O   O8        1.0  0.62372  0.50670  0.44002  1.0000 -0.6135775408
O   O9        1.0  0.31165  0.33540  0.52465  1.0000 -0.6364982983
O   O10       1.0  0.68836  0.83540  0.97536  1.0000 -0.6364982983
O   O11       1.0  0.68836  0.66460  0.47536  1.0000 -0.6364982983
O   O12       1.0  0.31165  0.16460  0.02465  1.0000 -0.6364982983
O   O13       1.0  0.18996  0.39120  0.53626  1.0000 -0.6202027063
O   O14       1.0  0.81005  0.89120  0.96375  1.0000 -0.6202027063
O   O15       1.0  0.81005  0.60880  0.46375  1.0000 -0.6202027063
O   O16       1.0  0.18996  0.10880  0.03626  1.0000 -0.6202027063
O   O17       1.0  0.28504  0.69440  0.45584  1.0000 -0.5929351112
O   O18       1.0  0.71496  0.19440  0.04417  1.0000 -0.5929351112
O   O19       1.0  0.71496  0.30560  0.54417  1.0000 -0.5929351112
O   O20       1.0  0.28503  0.80560  0.95583  1.0000 -0.5929351112
O   O21       1.0  0.22894  0.61290  0.48884  1.0000 -0.6525180896
O   O22       1.0  0.77107  0.11290  0.01117  1.0000 -0.6525180896
O   O23       1.0  0.77107  0.38710  0.51116  1.0000 -0.6525180896
O   O24       1.0  0.22894  0.88710  0.98884  1.0000 -0.6525180896
O   O25       1.0  0.39119  0.43870  0.43679  1.0000 -0.6202027063
O   O26       1.0  0.60881  0.93870  0.06321  1.0000 -0.6202027063
O   O27       1.0  0.60881  0.56130  0.56322  1.0000 -0.6202027063
O   O28       1.0  0.39119  0.06130  0.93678  1.0000 -0.6202027063
O   O29       1.0  0.25825  0.46690  0.38015  1.0000 -0.5661116054
O   O30       1.0  0.74176  0.96690  0.11986  1.0000 -0.5661116054
O   O31       1.0  0.74176  0.53310  0.61986  1.0000 -0.5661116054
O   O32       1.0  0.25825  0.03310  0.88015  1.0000 -0.5661116054
O   O33       1.0  0.96832  0.05830  0.06412  1.0000 -0.6202027063
O   O34       1.0  0.03169  0.55830  0.43589  1.0000 -0.6202027063
O   O35       1.0  0.03169  0.94170  0.93589  1.0000 -0.6202027063
O   O36       1.0  0.96832  0.44170  0.56412  1.0000 -0.6202027063
O   O37       1.0  0.88553  0.07890  0.10424  1.0000 -0.630976822
O   O38       1.0  0.11447  0.57890  0.39576  1.0000 -0.630976822
O   O39       1.0  0.11447  0.92110  0.89577  1.0000 -0.630976822
O   O40       1.0  0.88553  0.42110  0.60423  1.0000 -0.630976822
O   O41       1.0  0.06409  0.39680  0.44439  1.0000 -0.4502676239
O   O42       1.0  0.93590  0.89680  0.05561  1.0000 -0.4502676239
O   O43       1.0  0.93590  0.60320  0.55561  1.0000 -0.4502676239
O   O44       1.0  0.06410  0.10320  0.94440  1.0000 -0.4502676239
O   O45       1.0  0.97127  0.43590  0.47636  1.0000 -0.7097780516
O   O46       1.0  0.02874  0.93590  0.02364  1.0000 -0.7097780516
O   O47       1.0  0.02874  0.56410  0.52363  1.0000 -0.7097780516
O   O48       1.0  0.97127  0.06410  0.97637  1.0000 -0.7097780516
O   O49       1.0  0.24728  0.46530  0.46688  1.0000 -1.1659404596
O   O50       1.0  0.75272  0.96530  0.03313  1.0000 -1.1659404596
O   O51       1.0  0.75273  0.53470  0.53313  1.0000 -1.1659404596
O   O52       1.0  0.24728  0.03470  0.96688  1.0000 -1.1659404596
O   O53       1.0  0.57356  0.44710  0.50506  1.0000 -1.1432367822
O   O54       1.0  0.42643  0.94710  0.99494  1.0000 -1.1432367822
O   O55       1.0  0.42644  0.55290  0.49494  1.0000 -1.1432367822
O   O56       1.0  0.57356  0.05290  0.00507  1.0000 -1.1432367822
O   O57       1.0  0.70086  0.35810  0.62646  1.0000 -0.5661116054
O   O58       1.0  0.29915  0.85810  0.87355  1.0000 -0.5661116054
O   O59       1.0  0.29914  0.64190  0.37355  1.0000 -0.5661116054
O   O60       1.0  0.70086  0.14190  0.12646  1.0000 -0.5661116054
O   O61       1.0  0.55771  0.39290  0.57771  1.0000 -0.6857479473
O   O62       1.0  0.44230  0.89290  0.92230  1.0000 -0.6857479473
O   O63       1.0  0.44230  0.60710  0.42230  1.0000 -0.6857479473
O   O64       1.0  0.55771  0.10710  0.07771  1.0000 -0.6857479473
