# DDEC6 charges by PACMAN v1.1 (https://github.com/mtap-research/PACMAN-charge/)
data_2014[ErAg][nan]3[ASR]1
_chemical_formula_sum              "Er2 Ag2 H16 C28 N4 O16"
_cell_length_a       9.499
_cell_length_b       9.5854
_cell_length_c       11.4945
_cell_angle_alpha    101.906
_cell_angle_beta     95.748
_cell_angle_gamma    119.387

_symmetry_space_group_name_H-M    "P 1"
_symmetry_Int_Tables_number       1

loop_
  _symmetry_equiv_pos_as_xyz
  'x, y, z'

loop_
  _atom_site_type_symbol
  _atom_site_label
  _atom_site_symmetry_multiplicity
  _atom_site_fract_x
  _atom_site_fract_y
  _atom_site_fract_z
  _atom_site_occupancy
  _atom_site_charge
Er  Er1       1.0  0.73141  0.36122  0.49497  1.0000 2.0650106665
Er  Er2       1.0  0.26859  0.63878  0.50503  1.0000 2.0644949671
Ag  Ag1       1.0  0.51032  0.80804  0.17762  1.0000 0.3300631341
Ag  Ag2       1.0  0.48968  0.19196  0.82238  1.0000 0.3300631341
H   H1        1.0  0.17540  0.77180  0.20330  1.0000 0.1205348146
H   H2        1.0  0.82460  0.22820  0.79670  1.0000 0.1205348146
H   H3        1.0  0.92550  0.70220  0.09000  1.0000 0.1205348146
H   H4        1.0  0.07450  0.29780  0.91000  1.0000 0.1205348146
H   H5        1.0  0.87350  0.62120  0.87880  1.0000 0.1376831827
H   H6        1.0  0.12650  0.37880  0.12120  1.0000 0.1376831827
H   H7        1.0  0.33970  0.72550  0.90760  1.0000 0.1268594486
H   H8        1.0  0.66030  0.27450  0.09240  1.0000 0.1268594486
H   H9        1.0  0.70580  0.69400  0.32860  1.0000 0.1268594486
H   H10       1.0  0.29420  0.30600  0.67140  1.0000 0.1268594486
H   H11       1.0  0.19370  0.02010  0.39300  1.0000 0.1376831827
H   H12       1.0  0.80630  0.97990  0.60700  1.0000 0.1376831827
H   H13       1.0  0.13620  0.15980  0.27140  1.0000 0.150390878
H   H14       1.0  0.86380  0.84020  0.72860  1.0000 0.150390878
H   H15       1.0  0.86660  0.06170  0.18250  1.0000 0.0980880555
H   H16       1.0  0.13340  0.93830  0.81750  1.0000 0.0980880555
C   C1        1.0  0.15840  0.74690  0.11860  1.0000 0.0788574662
C   C2        1.0  0.84160  0.25310  0.88140  1.0000 0.0788574662
C   C3        1.0  0.00670  0.70190  0.05120  1.0000 -0.1438855085
C   C4        1.0  0.99330  0.29810  0.94880  1.0000 -0.1438855085
C   C5        1.0  0.97680  0.65650  0.92620  1.0000 -0.0587449971
C   C6        1.0  0.02320  0.34350  0.07380  1.0000 -0.0587449971
C   C7        1.0  0.10280  0.66420  0.87130  1.0000 -0.0747061003
C   C8        1.0  0.89720  0.33580  0.12870  1.0000 -0.0747061003
C   C9        1.0  0.25400  0.71680  0.94440  1.0000 0.0152490098
C   C10       1.0  0.74600  0.28320  0.05560  1.0000 0.0152490098
C   C11       1.0  0.07770  0.61360  0.73430  1.0000 0.6242512461
C   C12       1.0  0.92230  0.38640  0.26570  1.0000 0.6242512461
C   C13       1.0  0.79380  0.78830  0.31690  1.0000 0.0502975654
C   C14       1.0  0.20620  0.21170  0.68310  1.0000 0.0502975654
C   C15       1.0  0.95520  0.84080  0.37250  1.0000 -0.0747061003
C   C16       1.0  0.04480  0.15920  0.62750  1.0000 -0.0747061003
C   C17       1.0  0.08450  0.98150  0.35600  1.0000 -0.0547770265
C   C18       1.0  0.91550  0.01850  0.64400  1.0000 -0.0547770265
C   C19       1.0  0.05040  0.06470  0.28400  1.0000 -0.1206754822
C   C20       1.0  0.94960  0.93530  0.71600  1.0000 -0.1206754822
C   C21       1.0  0.88850  0.00510  0.23120  1.0000 0.0641348061
C   C22       1.0  0.11150  0.99490  0.76880  1.0000 0.0641348061
C   C23       1.0  0.98350  0.74190  0.44740  1.0000 0.6350303885
C   C24       1.0  0.01650  0.25810  0.55260  1.0000 0.6350303885
C   C25       1.0  0.48680  0.96670  0.43030  1.0000 0.4864500758
C   C26       1.0  0.51320  0.03330  0.56970  1.0000 0.4864500758
C   C27       1.0  0.53570  0.54300  0.56910  1.0000 0.4810872224
C   C28       1.0  0.46430  0.45700  0.43090  1.0000 0.4810872224
N   N1        1.0  0.28260  0.75650  0.06820  1.0000 -0.1818457845
N   N2        1.0  0.71740  0.24350  0.93180  1.0000 -0.1818457845
N   N3        1.0  0.76080  0.87030  0.24610  1.0000 -0.1818457845
N   N4        1.0  0.23920  0.12970  0.75390  1.0000 -0.1818457845
O   O1        1.0  0.41470  0.81060  0.38528  1.0000 -0.5858543369
O   O2        1.0  0.58530  0.18940  0.61472  1.0000 -0.5858543369
O   O3        1.0  0.20570  0.66930  0.69310  1.0000 -0.6358447078
O   O4        1.0  0.79430  0.33070  0.30690  1.0000 -0.6358447078
O   O5        1.0  0.93050  0.51750  0.67350  1.0000 -0.6521241072
O   O6        1.0  0.06950  0.48250  0.32650  1.0000 -0.6521241072
O   O7        1.0  0.13170  0.78100  0.48230  1.0000 -0.6663779322
O   O8        1.0  0.86830  0.21900  0.51770  1.0000 -0.6663779322
O   O9        1.0  0.85760  0.62440  0.46620  1.0000 -0.6663779322
O   O10       1.0  0.14240  0.37560  0.53380  1.0000 -0.6663779322
O   O11       1.0  0.49520  0.64480  0.61760  1.0000 -0.6089521054
O   O12       1.0  0.50480  0.35520  0.38240  1.0000 -0.6089521054
O   O13       1.0  0.62880  0.50710  0.62245  1.0000 -0.5858543369
O   O14       1.0  0.37120  0.49290  0.37755  1.0000 -0.5858543369
O   O15       1.0  0.54020  0.07260  0.37366  1.0000 -0.5562353137
O   O16       1.0  0.45980  0.92740  0.62634  1.0000 -0.5562353137
