# DDEC6 charges by PACMAN v1.1 (https://github.com/mtap-research/PACMAN-charge/)
data_2014[Cd][pcu]3[ASR]3
_chemical_formula_sum              "Cd6 H32 C48 N20 O16"
_cell_length_a       9.628
_cell_length_b       21.337
_cell_length_c       13.208
_cell_angle_alpha    90
_cell_angle_beta     91.953
_cell_angle_gamma    90

_symmetry_space_group_name_H-M    "P 1"
_symmetry_Int_Tables_number       1

loop_
  _symmetry_equiv_pos_as_xyz
  'x, y, z'

loop_
  _atom_site_type_symbol
  _atom_site_label
  _atom_site_symmetry_multiplicity
  _atom_site_fract_x
  _atom_site_fract_y
  _atom_site_fract_z
  _atom_site_occupancy
  _atom_site_charge
Cd  Cd1       1.0  0.50000  0.00000  0.50000  1.0000 0.998264683
Cd  Cd2       1.0  0.50000  0.50000  0.00000  1.0000 0.998264683
Cd  Cd3       1.0  0.59446  0.09159  0.27423  1.0000 0.8367173798
Cd  Cd4       1.0  0.40554  0.59159  0.22577  1.0000 0.8343197829
Cd  Cd5       1.0  0.40554  0.90841  0.72577  1.0000 0.8367173798
Cd  Cd6       1.0  0.59446  0.40841  0.77423  1.0000 0.8367173798
H   H1        1.0  0.48440  0.26840  0.77240  1.0000 0.1152885161
H   H2        1.0  0.51560  0.76840  0.72760  1.0000 0.1152885161
H   H3        1.0  0.51560  0.73160  0.22760  1.0000 0.1152885161
H   H4        1.0  0.48440  0.23160  0.27240  1.0000 0.1152885161
H   H5        1.0  0.47530  0.17680  0.68100  1.0000 0.1397522525
H   H6        1.0  0.52470  0.67680  0.81900  1.0000 0.1397522525
H   H7        1.0  0.52470  0.82320  0.31900  1.0000 0.1397522525
H   H8        1.0  0.47530  0.32320  0.18100  1.0000 0.1397522525
H   H9        1.0  0.68220  0.26200  0.46490  1.0000 0.1397522525
H   H10       1.0  0.31780  0.76200  0.03510  1.0000 0.1397522525
H   H11       1.0  0.31780  0.73800  0.53510  1.0000 0.1397522525
H   H12       1.0  0.68220  0.23800  0.96490  1.0000 0.1397522525
H   H13       1.0  0.68860  0.35080  0.56160  1.0000 0.0975045874
H   H14       1.0  0.31140  0.85080  0.93840  1.0000 0.0975045874
H   H15       1.0  0.31140  0.64920  0.43840  1.0000 0.0975045874
H   H16       1.0  0.68860  0.14920  0.06160  1.0000 0.0975045874
H   H17       1.0  0.84280  0.07830  0.43520  1.0000 0.1102717868
H   H18       1.0  0.15720  0.57830  0.06480  1.0000 0.1102717868
H   H19       1.0  0.15720  0.92170  0.56480  1.0000 0.1102717868
H   H20       1.0  0.84280  0.42170  0.93520  1.0000 0.1102717868
H   H21       1.0  0.07610  0.06350  0.46280  1.0000 0.1397522525
H   H22       1.0  0.92390  0.56350  0.03720  1.0000 0.1397522525
H   H23       1.0  0.92390  0.93650  0.53720  1.0000 0.1397522525
H   H24       1.0  0.07610  0.43650  0.96280  1.0000 0.1397522525
H   H25       1.0  0.12840  0.10370  0.17250  1.0000 0.1397522525
H   H26       1.0  0.87160  0.60370  0.32750  1.0000 0.1397522525
H   H27       1.0  0.87160  0.89630  0.82750  1.0000 0.1397522525
H   H28       1.0  0.12840  0.39630  0.67250  1.0000 0.1397522525
H   H29       1.0  0.89290  0.11260  0.15120  1.0000 0.0895192321
H   H30       1.0  0.10710  0.61260  0.34880  1.0000 0.0895192321
H   H31       1.0  0.10710  0.88740  0.84880  1.0000 0.0895192321
H   H32       1.0  0.89290  0.38740  0.65120  1.0000 0.0895192321
C   C1        1.0  0.52490  0.26705  0.70950  1.0000 0.0895192321
C   C2        1.0  0.47510  0.76705  0.79050  1.0000 0.0895192321
C   C3        1.0  0.47510  0.73295  0.29050  1.0000 0.0895192321
C   C4        1.0  0.52490  0.23295  0.20950  1.0000 0.0895192321
C   C5        1.0  0.51960  0.21177  0.65510  1.0000 -0.1604115796
C   C6        1.0  0.48040  0.71177  0.84490  1.0000 -0.1604115796
C   C7        1.0  0.48040  0.78823  0.34490  1.0000 -0.1604115796
C   C8        1.0  0.51960  0.28823  0.15510  1.0000 -0.1604115796
C   C9        1.0  0.58030  0.20877  0.56230  1.0000 0.0214417153
C   C10       1.0  0.41970  0.70877  0.93770  1.0000 0.0214417153
C   C11       1.0  0.41970  0.79123  0.43770  1.0000 0.0214417153
C   C12       1.0  0.58030  0.29123  0.06230  1.0000 0.0214417153
C   C13       1.0  0.64180  0.26197  0.52790  1.0000 -0.1604115796
C   C14       1.0  0.35820  0.76197  0.97210  1.0000 -0.1653980338
C   C15       1.0  0.35820  0.73803  0.47210  1.0000 -0.1604115796
C   C16       1.0  0.64180  0.23803  0.02790  1.0000 -0.1604115796
C   C17       1.0  0.64430  0.31538  0.58580  1.0000 0.0368219452
C   C18       1.0  0.35570  0.81538  0.91420  1.0000 0.0368219452
C   C19       1.0  0.35570  0.68462  0.41420  1.0000 0.0368219452
C   C20       1.0  0.64430  0.18462  0.08580  1.0000 0.0368219452
C   C21       1.0  0.58000  0.14902  0.50080  1.0000 0.580826541
C   C22       1.0  0.42000  0.64902  0.99920  1.0000 0.580826541
C   C23       1.0  0.42000  0.85098  0.49920  1.0000 0.580826541
C   C24       1.0  0.58000  0.35098  0.00080  1.0000 0.580826541
C   C25       1.0  0.90120  0.08221  0.38100  1.0000 0.0729650944
C   C26       1.0  0.09880  0.58221  0.11900  1.0000 0.0729650944
C   C27       1.0  0.09880  0.91779  0.61900  1.0000 0.0729650944
C   C28       1.0  0.90120  0.41779  0.88100  1.0000 0.0729650944
C   C29       1.0  0.04150  0.07405  0.39850  1.0000 -0.1515793674
C   C30       1.0  0.95850  0.57405  0.10150  1.0000 -0.1515793674
C   C31       1.0  0.95850  0.92595  0.60150  1.0000 -0.1515793674
C   C32       1.0  0.04150  0.42595  0.89850  1.0000 -0.1515793674
C   C33       1.0  0.13000  0.08153  0.32010  1.0000 0.0214417153
C   C34       1.0  0.87000  0.58153  0.17990  1.0000 0.0214417153
C   C35       1.0  0.87000  0.91847  0.67990  1.0000 0.0214417153
C   C36       1.0  0.13000  0.41847  0.82010  1.0000 0.0214417153
C   C37       1.0  0.07190  0.09710  0.22720  1.0000 -0.1604115796
C   C38       1.0  0.92810  0.59710  0.27280  1.0000 -0.1604115796
C   C39       1.0  0.92810  0.90290  0.77280  1.0000 -0.1604115796
C   C40       1.0  0.07190  0.40290  0.72720  1.0000 -0.1604115796
C   C41       1.0  0.93020  0.10300  0.21510  1.0000 0.0626312062
C   C42       1.0  0.06980  0.60300  0.28490  1.0000 0.0626312062
C   C43       1.0  0.06980  0.89700  0.78490  1.0000 0.0626312062
C   C44       1.0  0.93020  0.39700  0.71510  1.0000 0.0626312062
C   C45       1.0  0.28390  0.07090  0.33600  1.0000 0.580826541
C   C46       1.0  0.71610  0.57090  0.16400  1.0000 0.580826541
C   C47       1.0  0.71610  0.92910  0.66400  1.0000 0.580826541
C   C48       1.0  0.28390  0.42910  0.83600  1.0000 0.580826541
N   N1        1.0  0.58560  0.31826  0.67550  1.0000 -0.2202716194
N   N2        1.0  0.41440  0.81826  0.82450  1.0000 -0.2202716194
N   N3        1.0  0.41440  0.68174  0.32450  1.0000 -0.2202716194
N   N4        1.0  0.58560  0.18174  0.17550  1.0000 -0.2202716194
N   N5        1.0  0.84470  0.09547  0.29000  1.0000 -0.2321041585
N   N6        1.0  0.15530  0.59547  0.21000  1.0000 -0.2321041585
N   N7        1.0  0.15530  0.90453  0.71000  1.0000 -0.2321041585
N   N8        1.0  0.84470  0.40453  0.79000  1.0000 -0.2321041585
N   N9        1.0  0.62260  0.99975  0.35810  1.0000 -0.5582060986
N   N10       1.0  0.37740  0.49975  0.14190  1.0000 -0.5582060986
N   N11       1.0  0.37740  0.00025  0.64190  1.0000 -0.5582060986
N   N12       1.0  0.62260  0.50025  0.85810  1.0000 -0.5582060986
N   N13       1.0  0.70110  0.95899  0.34130  1.0000 0.4331952758
N   N14       1.0  0.29890  0.45899  0.15870  1.0000 0.4331952758
N   N15       1.0  0.29890  0.04101  0.65870  1.0000 0.4331952758
N   N16       1.0  0.70110  0.54101  0.84130  1.0000 0.4331952758
N   N17       1.0  0.77660  0.91940  0.32460  1.0000 -0.372441001
N   N18       1.0  0.22340  0.41940  0.17540  1.0000 -0.372441001
N   N19       1.0  0.22340  0.08060  0.67540  1.0000 -0.372441001
N   N20       1.0  0.77660  0.58060  0.82460  1.0000 -0.3754298561
O   O1        1.0  0.56970  0.09926  0.54850  1.0000 -0.5434809712
O   O2        1.0  0.43030  0.59926  0.95150  1.0000 -0.5434809712
O   O3        1.0  0.43030  0.90074  0.45150  1.0000 -0.5434809712
O   O4        1.0  0.56970  0.40074  0.04850  1.0000 -0.5434809712
O   O5        1.0  0.59420  0.15589  0.40856  1.0000 -0.5500400934
O   O6        1.0  0.40580  0.65589  0.09144  1.0000 -0.5500400934
O   O7        1.0  0.40580  0.84411  0.59144  1.0000 -0.5500400934
O   O8        1.0  0.59420  0.34411  0.90856  1.0000 -0.5500400934
O   O9        1.0  0.31990  0.04638  0.41700  1.0000 -0.5500400934
O   O10       1.0  0.68010  0.54638  0.08300  1.0000 -0.5434809712
O   O11       1.0  0.68010  0.95362  0.58300  1.0000 -0.5434809712
O   O12       1.0  0.31990  0.45362  0.91700  1.0000 -0.5434809712
O   O13       1.0  0.35980  0.08763  0.26610  1.0000 -0.5500400934
O   O14       1.0  0.64020  0.58763  0.23390  1.0000 -0.5500400934
O   O15       1.0  0.64020  0.91237  0.73390  1.0000 -0.5500400934
O   O16       1.0  0.35980  0.41237  0.76610  1.0000 -0.5500400934
