# DDEC6 charges by PACMAN v1.1 (https://github.com/mtap-research/PACMAN-charge/)
data_2014[Cu][nts]3[ASR]1
_chemical_formula_sum              "Cu24 H192 C384 N80 O96"
_cell_length_a       35.2696
_cell_length_b       35.2696
_cell_length_c       35.2696
_cell_angle_alpha    121.093
_cell_angle_beta     121.093
_cell_angle_gamma    88.1169

_symmetry_space_group_name_H-M    "P 1"
_symmetry_Int_Tables_number       1

loop_
  _symmetry_equiv_pos_as_xyz
  'x, y, z'

loop_
  _atom_site_type_symbol
  _atom_site_label
  _atom_site_symmetry_multiplicity
  _atom_site_fract_x
  _atom_site_fract_y
  _atom_site_fract_z
  _atom_site_occupancy
  _atom_site_charge
Cu  Cu1       1.0  0.29021  0.08862  0.37883  1.0000 0.840153876
Cu  Cu2       1.0  0.70979  0.91138  0.62117  1.0000 0.840153876
Cu  Cu3       1.0  0.08862  0.70979  0.79841  1.0000 0.840153876
Cu  Cu4       1.0  0.91138  0.29021  0.20159  1.0000 0.840153876
Cu  Cu5       1.0  0.21673  0.06661  0.28334  1.0000 0.840153876
Cu  Cu6       1.0  0.78327  0.93339  0.71666  1.0000 0.840153876
Cu  Cu7       1.0  0.06661  0.78327  0.84988  1.0000 0.840153876
Cu  Cu8       1.0  0.93339  0.21673  0.15012  1.0000 0.840153876
Cu  Cu9       1.0  0.96042  0.03091  0.21695  1.0000 0.8495490991
Cu  Cu10      1.0  0.81396  0.74347  0.78305  1.0000 0.8495490991
Cu  Cu11      1.0  0.03091  0.81396  0.07049  1.0000 0.8495490991
Cu  Cu12      1.0  0.74347  0.96042  0.92951  1.0000 0.8495490991
Cu  Cu13      1.0  0.03958  0.96909  0.78305  1.0000 0.8495490991
Cu  Cu14      1.0  0.18604  0.25653  0.21695  1.0000 0.8495490991
Cu  Cu15      1.0  0.96909  0.18604  0.92951  1.0000 0.8495490991
Cu  Cu16      1.0  0.25653  0.03958  0.07049  1.0000 0.8495490991
Cu  Cu17      1.0  0.94920  0.04281  0.29097  1.0000 0.8495490991
Cu  Cu18      1.0  0.75184  0.65823  0.70903  1.0000 0.8495490991
Cu  Cu19      1.0  0.04281  0.75184  0.09361  1.0000 0.8495490991
Cu  Cu20      1.0  0.65823  0.94920  0.90639  1.0000 0.8495490991
Cu  Cu21      1.0  0.05080  0.95719  0.70903  1.0000 0.8495490991
Cu  Cu22      1.0  0.24816  0.34177  0.29097  1.0000 0.8495490991
Cu  Cu23      1.0  0.95719  0.24816  0.90639  1.0000 0.8495490991
Cu  Cu24      1.0  0.34177  0.05080  0.09361  1.0000 0.8495490991
H   H1        1.0  0.10920  0.07620  0.31040  1.0000 0.1399991038
H   H2        1.0  0.76580  0.79880  0.68960  1.0000 0.1399991038
H   H3        1.0  0.07620  0.76580  0.96700  1.0000 0.1399991038
H   H4        1.0  0.79880  0.10920  0.03300  1.0000 0.1399991038
H   H5        1.0  0.89080  0.92380  0.68960  1.0000 0.1399991038
H   H6        1.0  0.23420  0.20120  0.31040  1.0000 0.1399991038
H   H7        1.0  0.92380  0.23420  0.03300  1.0000 0.1399991038
H   H8        1.0  0.20120  0.89080  0.96700  1.0000 0.1399991038
H   H9        1.0  0.09260  0.08930  0.42070  1.0000 0.1399991038
H   H10       1.0  0.66860  0.67190  0.57930  1.0000 0.1399991038
H   H11       1.0  0.08930  0.66860  0.99670  1.0000 0.1399991038
H   H12       1.0  0.67190  0.09260  0.00330  1.0000 0.1399991038
H   H13       1.0  0.90740  0.91070  0.57930  1.0000 0.1399991038
H   H14       1.0  0.33140  0.32810  0.42070  1.0000 0.1399991038
H   H15       1.0  0.91070  0.33140  0.00330  1.0000 0.1399991038
H   H16       1.0  0.32810  0.90740  0.99670  1.0000 0.1399991038
H   H17       1.0  0.22170  0.10580  0.45170  1.0000 0.1399991038
H   H18       1.0  0.65410  0.77000  0.54830  1.0000 0.1399991038
H   H19       1.0  0.10580  0.65410  0.88410  1.0000 0.1399991038
H   H20       1.0  0.77000  0.22170  0.11590  1.0000 0.1399991038
H   H21       1.0  0.77830  0.89420  0.54830  1.0000 0.1399991038
H   H22       1.0  0.34590  0.23000  0.45170  1.0000 0.1399991038
H   H23       1.0  0.89420  0.34590  0.11590  1.0000 0.1399991038
H   H24       1.0  0.23000  0.77830  0.88410  1.0000 0.1399991038
H   H25       1.0  0.23740  0.08420  0.50900  1.0000 0.1187900934
H   H26       1.0  0.57520  0.72840  0.49100  1.0000 0.1187900934
H   H27       1.0  0.08420  0.57520  0.84680  1.0000 0.1187900934
H   H28       1.0  0.72840  0.23740  0.15320  1.0000 0.1187900934
H   H29       1.0  0.76260  0.91580  0.49100  1.0000 0.1187900934
H   H30       1.0  0.42480  0.27160  0.50900  1.0000 0.1187900934
H   H31       1.0  0.91580  0.42480  0.15320  1.0000 0.1187900934
H   H32       1.0  0.27160  0.76260  0.84680  1.0000 0.1187900934
H   H33       1.0  0.27950  0.05680  0.56190  1.0000 0.1187900934
H   H34       1.0  0.49490  0.71760  0.43810  1.0000 0.1187900934
H   H35       1.0  0.05680  0.49490  0.77730  1.0000 0.1187900934
H   H36       1.0  0.71760  0.27950  0.22270  1.0000 0.1187900934
H   H37       1.0  0.72050  0.94320  0.43810  1.0000 0.1187900934
H   H38       1.0  0.50510  0.28240  0.56190  1.0000 0.1187900934
H   H39       1.0  0.94320  0.50510  0.22270  1.0000 0.1187900934
H   H40       1.0  0.28240  0.72050  0.77730  1.0000 0.1187900934
H   H41       1.0  0.33220  0.04410  0.62250  1.0000 0.1303476638
H   H42       1.0  0.42160  0.70970  0.37750  1.0000 0.1303476638
H   H43       1.0  0.04410  0.42160  0.71190  1.0000 0.1303476638
H   H44       1.0  0.70970  0.33220  0.28810  1.0000 0.1303476638
H   H45       1.0  0.66780  0.95590  0.37750  1.0000 0.1303476638
H   H46       1.0  0.57840  0.29030  0.62250  1.0000 0.1303476638
H   H47       1.0  0.95590  0.57840  0.28810  1.0000 0.1303476638
H   H48       1.0  0.29030  0.66780  0.71190  1.0000 0.1303476638
H   H49       1.0  0.32270  0.14270  0.73600  1.0000 0.1303476638
H   H50       1.0  0.40670  0.58670  0.26400  1.0000 0.1303476638
H   H51       1.0  0.14270  0.40670  0.82000  1.0000 0.1303476638
H   H52       1.0  0.58670  0.32270  0.18000  1.0000 0.1303476638
H   H53       1.0  0.67730  0.85730  0.26400  1.0000 0.1303476638
H   H54       1.0  0.59330  0.41330  0.73600  1.0000 0.1303476638
H   H55       1.0  0.85730  0.59330  0.18000  1.0000 0.1303476638
H   H56       1.0  0.41330  0.67730  0.82000  1.0000 0.1303476638
H   H57       1.0  0.26580  0.15610  0.67150  1.0000 0.1303476638
H   H58       1.0  0.48460  0.59430  0.32850  1.0000 0.1303476638
H   H59       1.0  0.15610  0.48460  0.89030  1.0000 0.1303476638
H   H60       1.0  0.59430  0.26580  0.10970  1.0000 0.1303476638
H   H61       1.0  0.73420  0.84390  0.32850  1.0000 0.1303476638
H   H62       1.0  0.51540  0.40570  0.67150  1.0000 0.1303476638
H   H63       1.0  0.84390  0.51540  0.10970  1.0000 0.1303476638
H   H64       1.0  0.40570  0.73420  0.89030  1.0000 0.1303476638
H   H65       1.0  0.61340  0.95270  0.66570  1.0000 0.1399991038
H   H66       1.0  0.28700  0.94770  0.33430  1.0000 0.1399991038
H   H67       1.0  0.95270  0.28700  0.33930  1.0000 0.1399991038
H   H68       1.0  0.94770  0.61340  0.66070  1.0000 0.1399991038
H   H69       1.0  0.38660  0.04730  0.33430  1.0000 0.1399991038
H   H70       1.0  0.71300  0.05230  0.66570  1.0000 0.1399991038
H   H71       1.0  0.04730  0.71300  0.66070  1.0000 0.1399991038
H   H72       1.0  0.05230  0.38660  0.33930  1.0000 0.1399991038
H   H73       1.0  0.59720  0.96990  0.77990  1.0000 0.1399991038
H   H74       1.0  0.19000  0.81730  0.22010  1.0000 0.1399991038
H   H75       1.0  0.96990  0.19000  0.37270  1.0000 0.1399991038
H   H76       1.0  0.81730  0.59720  0.62730  1.0000 0.1399991038
H   H77       1.0  0.40280  0.03010  0.22010  1.0000 0.1399991038
H   H78       1.0  0.81000  0.18270  0.77990  1.0000 0.1399991038
H   H79       1.0  0.03010  0.81000  0.62730  1.0000 0.1399991038
H   H80       1.0  0.18270  0.40280  0.37270  1.0000 0.1399991038
H   H81       1.0  0.70960  0.94020  0.78400  1.0000 0.1399991038
H   H82       1.0  0.15620  0.92560  0.21600  1.0000 0.1399991038
H   H83       1.0  0.94020  0.15620  0.23060  1.0000 0.1399991038
H   H84       1.0  0.92560  0.70960  0.76940  1.0000 0.1399991038
H   H85       1.0  0.29040  0.05980  0.21600  1.0000 0.1399991038
H   H86       1.0  0.84380  0.07440  0.78400  1.0000 0.1399991038
H   H87       1.0  0.05980  0.84380  0.76940  1.0000 0.1399991038
H   H88       1.0  0.07440  0.29040  0.23060  1.0000 0.1399991038
H   H89       1.0  0.53700  0.99120  0.74580  1.0000 0.1187900934
H   H90       1.0  0.24540  0.79120  0.25420  1.0000 0.1187900934
H   H91       1.0  0.99120  0.24540  0.45420  1.0000 0.1187900934
H   H92       1.0  0.79120  0.53700  0.54580  1.0000 0.1187900934
H   H93       1.0  0.46300  0.00880  0.25420  1.0000 0.1187900934
H   H94       1.0  0.75460  0.20880  0.74580  1.0000 0.1187900934
H   H95       1.0  0.00880  0.75460  0.54580  1.0000 0.1187900934
H   H96       1.0  0.20880  0.46300  0.45420  1.0000 0.1187900934
H   H97       1.0  0.45870  0.99160  0.72090  1.0000 0.1187900934
H   H98       1.0  0.27070  0.73780  0.27910  1.0000 0.1187900934
H   H99       1.0  0.99160  0.27070  0.53290  1.0000 0.1187900934
H   H100      1.0  0.73780  0.45870  0.46710  1.0000 0.1187900934
H   H101      1.0  0.54130  0.00840  0.27910  1.0000 0.1187900934
H   H102      1.0  0.72930  0.26220  0.72090  1.0000 0.1187900934
H   H103      1.0  0.00840  0.72930  0.46710  1.0000 0.1187900934
H   H104      1.0  0.26220  0.54130  0.53290  1.0000 0.1187900934
H   H105      1.0  0.40690  0.02170  0.73540  1.0000 0.1303476638
H   H106      1.0  0.28630  0.67150  0.26460  1.0000 0.1303476638
H   H107      1.0  0.02170  0.28630  0.61480  1.0000 0.1303476638
H   H108      1.0  0.67150  0.40690  0.38520  1.0000 0.1303476638
H   H109      1.0  0.59310  0.97830  0.26460  1.0000 0.1303476638
H   H110      1.0  0.71370  0.32850  0.73540  1.0000 0.1303476638
H   H111      1.0  0.97830  0.71370  0.38520  1.0000 0.1303476638
H   H112      1.0  0.32850  0.59310  0.61480  1.0000 0.1303476638
H   H113      1.0  0.41170  0.10350  0.69260  1.0000 0.1303476638
H   H114      1.0  0.41090  0.71910  0.30740  1.0000 0.1303476638
H   H115      1.0  0.10350  0.41090  0.69180  1.0000 0.1303476638
H   H116      1.0  0.71910  0.41170  0.30820  1.0000 0.1303476638
H   H117      1.0  0.58830  0.89650  0.30740  1.0000 0.1303476638
H   H118      1.0  0.58910  0.28090  0.69260  1.0000 0.1303476638
H   H119      1.0  0.89650  0.58910  0.30820  1.0000 0.1303476638
H   H120      1.0  0.28090  0.58830  0.69180  1.0000 0.1303476638
H   H121      1.0  0.46930  0.07370  0.68160  1.0000 0.1303476638
H   H122      1.0  0.39210  0.78770  0.31840  1.0000 0.1303476638
H   H123      1.0  0.07370  0.39210  0.60440  1.0000 0.1303476638
H   H124      1.0  0.78770  0.46930  0.39560  1.0000 0.1303476638
H   H125      1.0  0.53070  0.92630  0.31840  1.0000 0.1303476638
H   H126      1.0  0.60790  0.21230  0.68160  1.0000 0.1303476638
H   H127      1.0  0.92630  0.60790  0.39560  1.0000 0.1303476638
H   H128      1.0  0.21230  0.53070  0.60440  1.0000 0.1303476638
H   H129      1.0  0.31240  0.05410  0.96230  1.0000 0.1399991038
H   H130      1.0  0.09180  0.35010  0.03770  1.0000 0.1399991038
H   H131      1.0  0.05410  0.09180  0.74170  1.0000 0.1399991038
H   H132      1.0  0.35010  0.31240  0.25830  1.0000 0.1399991038
H   H133      1.0  0.68760  0.94590  0.03770  1.0000 0.1399991038
H   H134      1.0  0.90820  0.64990  0.96230  1.0000 0.1399991038
H   H135      1.0  0.94590  0.90820  0.25830  1.0000 0.1399991038
H   H136      1.0  0.64990  0.68760  0.74170  1.0000 0.1399991038
H   H137      1.0  0.20160  0.01780  0.81300  1.0000 0.1303476638
H   H138      1.0  0.20480  0.38860  0.18700  1.0000 0.1303476638
H   H139      1.0  0.01780  0.20480  0.81620  1.0000 0.1303476638
H   H140      1.0  0.38860  0.20160  0.18380  1.0000 0.1303476638
H   H141      1.0  0.79840  0.98220  0.18700  1.0000 0.1303476638
H   H142      1.0  0.79520  0.61140  0.81300  1.0000 0.1303476638
H   H143      1.0  0.98220  0.79520  0.18380  1.0000 0.1303476638
H   H144      1.0  0.61140  0.79840  0.81620  1.0000 0.1303476638
H   H145      1.0  0.18150  0.01560  0.91510  1.0000 0.1399991038
H   H146      1.0  0.10050  0.26640  0.08490  1.0000 0.1399991038
H   H147      1.0  0.01560  0.10050  0.83410  1.0000 0.1399991038
H   H148      1.0  0.26640  0.18150  0.16590  1.0000 0.1399991038
H   H149      1.0  0.81850  0.98440  0.08490  1.0000 0.1399991038
H   H150      1.0  0.89950  0.73360  0.91510  1.0000 0.1399991038
H   H151      1.0  0.98440  0.89950  0.16590  1.0000 0.1399991038
H   H152      1.0  0.73360  0.81850  0.83410  1.0000 0.1399991038
H   H153      1.0  0.27540  0.03000  0.74840  1.0000 0.1187900934
H   H154      1.0  0.28160  0.52700  0.25160  1.0000 0.1187900934
H   H155      1.0  0.03000  0.28160  0.75460  1.0000 0.1187900934
H   H156      1.0  0.52700  0.27540  0.24540  1.0000 0.1187900934
H   H157      1.0  0.72460  0.97000  0.25160  1.0000 0.1187900934
H   H158      1.0  0.71840  0.47300  0.74840  1.0000 0.1187900934
H   H159      1.0  0.97000  0.71840  0.24540  1.0000 0.1187900934
H   H160      1.0  0.47300  0.72460  0.75460  1.0000 0.1187900934
H   H161      1.0  0.28900  0.04390  0.69790  1.0000 0.1303476638
H   H162      1.0  0.34600  0.59110  0.30210  1.0000 0.1303476638
H   H163      1.0  0.04390  0.34600  0.75490  1.0000 0.1303476638
H   H164      1.0  0.59110  0.28900  0.24510  1.0000 0.1303476638
H   H165      1.0  0.71100  0.95610  0.30210  1.0000 0.1303476638
H   H166      1.0  0.65400  0.40890  0.69790  1.0000 0.1303476638
H   H167      1.0  0.95610  0.65400  0.24510  1.0000 0.1303476638
H   H168      1.0  0.40890  0.71100  0.75490  1.0000 0.1303476638
H   H169      1.0  0.42070  0.11250  0.82260  1.0000 0.1303476638
H   H170      1.0  0.28990  0.59810  0.17740  1.0000 0.1303476638
H   H171      1.0  0.11250  0.28990  0.69180  1.0000 0.1303476638
H   H172      1.0  0.59810  0.42070  0.30820  1.0000 0.1303476638
H   H173      1.0  0.57930  0.88750  0.17740  1.0000 0.1303476638
H   H174      1.0  0.71010  0.40190  0.82260  1.0000 0.1303476638
H   H175      1.0  0.88750  0.71010  0.30820  1.0000 0.1303476638
H   H176      1.0  0.40190  0.57930  0.69180  1.0000 0.1303476638
H   H177      1.0  0.40690  0.09520  0.86990  1.0000 0.1303476638
H   H178      1.0  0.22530  0.53700  0.13010  1.0000 0.1303476638
H   H179      1.0  0.09520  0.22530  0.68830  1.0000 0.1303476638
H   H180      1.0  0.53700  0.40690  0.31170  1.0000 0.1303476638
H   H181      1.0  0.59310  0.90480  0.13010  1.0000 0.1303476638
H   H182      1.0  0.77470  0.46300  0.86990  1.0000 0.1303476638
H   H183      1.0  0.90480  0.77470  0.31170  1.0000 0.1303476638
H   H184      1.0  0.46300  0.59310  0.68830  1.0000 0.1303476638
H   H185      1.0  0.25660  0.03390  0.80270  1.0000 0.1187900934
H   H186      1.0  0.23120  0.45390  0.19730  1.0000 0.1097731419
H   H187      1.0  0.03390  0.23120  0.77730  1.0000 0.1187900934
H   H188      1.0  0.45390  0.25660  0.22270  1.0000 0.1187900934
H   H189      1.0  0.74340  0.96610  0.19730  1.0000 0.1187900934
H   H190      1.0  0.76880  0.54610  0.80270  1.0000 0.1187900934
H   H191      1.0  0.96610  0.76880  0.22270  1.0000 0.1187900934
H   H192      1.0  0.54610  0.74340  0.77730  1.0000 0.1187900934
C   C1        1.0  0.20136  0.08629  0.35965  1.0000 0.5789906059
C   C2        1.0  0.72664  0.84171  0.64035  1.0000 0.5789906059
C   C3        1.0  0.08629  0.72664  0.88493  1.0000 0.5789906059
C   C4        1.0  0.84171  0.20136  0.11507  1.0000 0.5789906059
C   C5        1.0  0.79864  0.91371  0.64035  1.0000 0.5789906059
C   C6        1.0  0.27336  0.15829  0.35965  1.0000 0.5789906059
C   C7        1.0  0.91371  0.27336  0.11507  1.0000 0.5789906059
C   C8        1.0  0.15829  0.79864  0.88493  1.0000 0.5789906059
C   C9        1.0  0.16907  0.09047  0.37870  1.0000 0.0064524114
C   C10       1.0  0.71177  0.79037  0.62130  1.0000 0.0064524114
C   C11       1.0  0.09047  0.71177  0.92140  1.0000 0.0064524114
C   C12       1.0  0.79037  0.16907  0.07860  1.0000 0.0064524114
C   C13       1.0  0.83093  0.90953  0.62130  1.0000 0.0064524114
C   C14       1.0  0.28823  0.20963  0.37870  1.0000 0.0064524114
C   C15       1.0  0.90953  0.28823  0.07860  1.0000 0.0064524114
C   C16       1.0  0.20963  0.83093  0.92140  1.0000 0.0064524114
C   C17       1.0  0.12232  0.08217  0.34495  1.0000 -0.1095819976
C   C18       1.0  0.73722  0.77737  0.65505  1.0000 -0.1095819976
C   C19       1.0  0.08217  0.73722  0.95985  1.0000 -0.1095819976
C   C20       1.0  0.77737  0.12232  0.04015  1.0000 -0.1095819976
C   C21       1.0  0.87768  0.91783  0.65505  1.0000 -0.1095819976
C   C22       1.0  0.26278  0.22263  0.34495  1.0000 -0.1095819976
C   C23       1.0  0.91783  0.26278  0.04015  1.0000 -0.1095819976
C   C24       1.0  0.22263  0.87768  0.95985  1.0000 -0.1095819976
C   C25       1.0  0.09391  0.08252  0.36155  1.0000 -0.0065960012
C   C26       1.0  0.72097  0.73236  0.63845  1.0000 -0.0065960012
C   C27       1.0  0.08252  0.72097  0.98861  1.0000 -0.0065960012
C   C28       1.0  0.73236  0.09391  0.01139  1.0000 -0.0065960012
C   C29       1.0  0.90609  0.91748  0.63845  1.0000 -0.0065960012
C   C30       1.0  0.27903  0.26764  0.36155  1.0000 -0.0065960012
C   C31       1.0  0.91748  0.27903  0.01139  1.0000 -0.0065960012
C   C32       1.0  0.26764  0.90609  0.98861  1.0000 -0.0065960012
C   C33       1.0  0.11232  0.09065  0.41029  1.0000 -0.1461466074
C   C34       1.0  0.68036  0.70203  0.58971  1.0000 -0.1461466074
C   C35       1.0  0.09065  0.68036  0.97833  1.0000 -0.1461466074
C   C36       1.0  0.70203  0.11232  0.02167  1.0000 -0.1461466074
C   C37       1.0  0.88768  0.90935  0.58971  1.0000 -0.1461466074
C   C38       1.0  0.31964  0.29797  0.41029  1.0000 -0.1461466074
C   C39       1.0  0.90935  0.31964  0.02167  1.0000 -0.1461466074
C   C40       1.0  0.29797  0.88768  0.97833  1.0000 -0.1461466074
C   C41       1.0  0.16122  0.10126  0.44616  1.0000 0.1399991038
C   C42       1.0  0.65510  0.71506  0.55384  1.0000 0.1399991038
C   C43       1.0  0.10126  0.65510  0.94004  1.0000 0.1399991038
C   C44       1.0  0.71506  0.16122  0.05996  1.0000 0.1399991038
C   C45       1.0  0.83878  0.89874  0.55384  1.0000 0.1399991038
C   C46       1.0  0.34490  0.28494  0.44616  1.0000 0.1399991038
C   C47       1.0  0.89874  0.34490  0.05996  1.0000 0.1399991038
C   C48       1.0  0.28494  0.83878  0.94004  1.0000 0.1399991038
C   C49       1.0  0.18908  0.10005  0.42883  1.0000 -0.1714516084
C   C50       1.0  0.67122  0.76025  0.57117  1.0000 -0.1714516084
C   C51       1.0  0.10005  0.67122  0.91097  1.0000 -0.1714516084
C   C52       1.0  0.76025  0.18908  0.08903  1.0000 -0.1714516084
C   C53       1.0  0.81092  0.89995  0.57117  1.0000 -0.1714516084
C   C54       1.0  0.32878  0.23975  0.42883  1.0000 -0.1714516084
C   C55       1.0  0.89995  0.32878  0.08903  1.0000 -0.1714516084
C   C56       1.0  0.23975  0.81092  0.91097  1.0000 -0.1714516084
C   C57       1.0  0.04078  0.06631  0.32133  1.0000 0.5789906059
C   C58       1.0  0.74498  0.71945  0.67867  1.0000 0.5789906059
C   C59       1.0  0.06631  0.74498  0.02553  1.0000 0.5789906059
C   C60       1.0  0.71945  0.04078  0.97447  1.0000 0.5789906059
C   C61       1.0  0.95922  0.93369  0.67867  1.0000 0.5789906059
C   C62       1.0  0.25502  0.28055  0.32133  1.0000 0.5789906059
C   C63       1.0  0.93369  0.25502  0.97447  1.0000 0.5789906059
C   C64       1.0  0.28055  0.95922  0.02553  1.0000 0.5789906059
C   C65       1.0  0.21879  0.09769  0.52130  1.0000 -0.1429907035
C   C66       1.0  0.57639  0.69749  0.47870  1.0000 -0.1429907035
C   C67       1.0  0.09769  0.57639  0.87890  1.0000 -0.1429907035
C   C68       1.0  0.69749  0.21879  0.12110  1.0000 -0.1429907035
C   C69       1.0  0.78121  0.90231  0.47870  1.0000 -0.1429907035
C   C70       1.0  0.42361  0.30251  0.52130  1.0000 -0.1429907035
C   C71       1.0  0.90231  0.42361  0.12110  1.0000 -0.1429907035
C   C72       1.0  0.30251  0.78121  0.87890  1.0000 -0.1429907035
C   C73       1.0  0.22580  0.11240  0.56980  1.0000 0.148433625
C   C74       1.0  0.54260  0.65600  0.43020  1.0000 0.148433625
C   C75       1.0  0.11240  0.54260  0.88660  1.0000 0.148433625
C   C76       1.0  0.65600  0.22580  0.11340  1.0000 0.148433625
C   C77       1.0  0.77420  0.88760  0.43020  1.0000 0.148433625
C   C78       1.0  0.45740  0.34400  0.56980  1.0000 0.148433625
C   C79       1.0  0.88760  0.45740  0.11340  1.0000 0.148433625
C   C80       1.0  0.34400  0.77420  0.88660  1.0000 0.148433625
C   C81       1.0  0.26480  0.10360  0.60980  1.0000 0.0278480453
C   C82       1.0  0.49380  0.65500  0.39020  1.0000 0.0278480453
C   C83       1.0  0.10360  0.49380  0.83880  1.0000 0.0278480453
C   C84       1.0  0.65500  0.26480  0.16120  1.0000 0.0278480453
C   C85       1.0  0.73520  0.89640  0.39020  1.0000 0.0278480453
C   C86       1.0  0.50620  0.34500  0.60980  1.0000 0.0278480453
C   C87       1.0  0.89640  0.50620  0.16120  1.0000 0.0278480453
C   C88       1.0  0.34500  0.73520  0.83880  1.0000 0.0278480453
C   C89       1.0  0.28660  0.07400  0.59740  1.0000 -0.1233104266
C   C90       1.0  0.47660  0.68920  0.40260  1.0000 -0.1233104266
C   C91       1.0  0.07400  0.47660  0.78740  1.0000 -0.1233104266
C   C92       1.0  0.68920  0.28660  0.21260  1.0000 -0.1233104266
C   C93       1.0  0.71340  0.92600  0.40260  1.0000 -0.1233104266
C   C94       1.0  0.52340  0.31080  0.59740  1.0000 -0.1233104266
C   C95       1.0  0.92600  0.52340  0.21260  1.0000 -0.1233104266
C   C96       1.0  0.31080  0.71340  0.78740  1.0000 -0.1233104266
C   C97       1.0  0.31900  0.06790  0.63390  1.0000 -0.2026128347
C   C98       1.0  0.43400  0.68510  0.36610  1.0000 -0.2026128347
C   C99       1.0  0.06790  0.43400  0.74890  1.0000 -0.2026128347
C   C100      1.0  0.68510  0.31900  0.25110  1.0000 -0.2026128347
C   C101      1.0  0.68100  0.93210  0.36610  1.0000 -0.2026128347
C   C102      1.0  0.56600  0.31490  0.63390  1.0000 -0.2026128347
C   C103      1.0  0.93210  0.56600  0.25110  1.0000 -0.2026128347
C   C104      1.0  0.31490  0.68100  0.74890  1.0000 -0.2026128347
C   C105      1.0  0.33360  0.09330  0.68570  1.0000 0.148433625
C   C106      1.0  0.40760  0.64790  0.31430  1.0000 0.148433625
C   C107      1.0  0.09330  0.40760  0.75970  1.0000 0.148433625
C   C108      1.0  0.64790  0.33360  0.24030  1.0000 0.148433625
C   C109      1.0  0.66640  0.90670  0.31430  1.0000 0.148433625
C   C110      1.0  0.59240  0.35210  0.68570  1.0000 0.148433625
C   C111      1.0  0.90670  0.59240  0.24030  1.0000 0.148433625
C   C112      1.0  0.35210  0.66640  0.75970  1.0000 0.148433625
C   C113      1.0  0.31380  0.12450  0.69970  1.0000 -0.2026128347
C   C114      1.0  0.42480  0.61410  0.30030  1.0000 -0.2026128347
C   C115      1.0  0.12450  0.42480  0.81070  1.0000 -0.2026128347
C   C116      1.0  0.61410  0.31380  0.18930  1.0000 -0.2026128347
C   C117      1.0  0.68620  0.87550  0.30030  1.0000 -0.2026128347
C   C118      1.0  0.57520  0.38590  0.69970  1.0000 -0.2026128347
C   C119      1.0  0.87550  0.57520  0.18930  1.0000 -0.2026128347
C   C120      1.0  0.38590  0.68620  0.81070  1.0000 -0.2026128347
C   C121      1.0  0.27860  0.13170  0.66070  1.0000 -0.1233104266
C   C122      1.0  0.47100  0.61790  0.33930  1.0000 -0.1233104266
C   C123      1.0  0.13170  0.47100  0.85310  1.0000 -0.1233104266
C   C124      1.0  0.61790  0.27860  0.14690  1.0000 -0.1233104266
C   C125      1.0  0.72140  0.86830  0.33930  1.0000 -0.1233104266
C   C126      1.0  0.52900  0.38210  0.66070  1.0000 -0.1233104266
C   C127      1.0  0.86830  0.52900  0.14690  1.0000 -0.1233104266
C   C128      1.0  0.38210  0.72140  0.85310  1.0000 -0.1233104266
C   C129      1.0  0.69512  0.93421  0.69917  1.0000 0.5734566778
C   C130      1.0  0.23504  0.99595  0.30083  1.0000 0.5734566778
C   C131      1.0  0.93421  0.23504  0.23909  1.0000 0.5734566778
C   C132      1.0  0.99595  0.69512  0.76091  1.0000 0.5734566778
C   C133      1.0  0.30488  0.06579  0.30083  1.0000 0.5734566778
C   C134      1.0  0.76496  0.00405  0.69917  1.0000 0.5734566778
C   C135      1.0  0.06579  0.76496  0.76091  1.0000 0.5734566778
C   C136      1.0  0.00405  0.30488  0.23909  1.0000 0.5734566778
C   C137      1.0  0.66606  0.94511  0.72129  1.0000 -0.0065960012
C   C138      1.0  0.22382  0.94477  0.27871  1.0000 -0.0065960012
C   C139      1.0  0.94511  0.22382  0.27905  1.0000 -0.0065960012
C   C140      1.0  0.94477  0.66606  0.72095  1.0000 -0.0065960012
C   C141      1.0  0.33394  0.05489  0.27871  1.0000 -0.0065960012
C   C142      1.0  0.77618  0.05523  0.72129  1.0000 -0.0065960012
C   C143      1.0  0.05489  0.77618  0.72095  1.0000 -0.0065960012
C   C144      1.0  0.05523  0.33394  0.27905  1.0000 -0.0065960012
C   C145      1.0  0.62504  0.95424  0.69760  1.0000 -0.1611212052
C   C146      1.0  0.25664  0.92744  0.30240  1.0000 -0.1611212052
C   C147      1.0  0.95424  0.25664  0.32920  1.0000 -0.1611212052
C   C148      1.0  0.92744  0.62504  0.67080  1.0000 -0.1611212052
C   C149      1.0  0.37496  0.04576  0.30240  1.0000 -0.1611212052
C   C150      1.0  0.74336  0.07256  0.69760  1.0000 -0.1611212052
C   C151      1.0  0.04576  0.74336  0.67080  1.0000 -0.1611212052
C   C152      1.0  0.07256  0.37496  0.32920  1.0000 -0.1611212052
C   C153      1.0  0.60002  0.96616  0.72166  1.0000 0.1399991038
C   C154      1.0  0.24450  0.87836  0.27834  1.0000 0.1399991038
C   C155      1.0  0.96616  0.24450  0.36614  1.0000 0.1399991038
C   C156      1.0  0.87836  0.60002  0.63386  1.0000 0.1399991038
C   C157      1.0  0.39998  0.03384  0.27834  1.0000 0.1399991038
C   C158      1.0  0.75550  0.12164  0.72166  1.0000 0.1399991038
C   C159      1.0  0.03384  0.75550  0.63386  1.0000 0.1399991038
C   C160      1.0  0.12164  0.39998  0.36614  1.0000 0.1399991038
C   C161      1.0  0.61469  0.96372  0.76517  1.0000 -0.1797739963
C   C162      1.0  0.19855  0.84952  0.23483  1.0000 -0.1797739963
C   C163      1.0  0.96372  0.19855  0.34903  1.0000 -0.1797739963
C   C164      1.0  0.84952  0.61469  0.65097  1.0000 -0.1797739963
C   C165      1.0  0.38531  0.03628  0.23483  1.0000 -0.1797739963
C   C166      1.0  0.80145  0.15048  0.76517  1.0000 -0.1797739963
C   C167      1.0  0.03628  0.80145  0.65097  1.0000 -0.1797739963
C   C168      1.0  0.15048  0.38531  0.34903  1.0000 -0.1797739963
C   C169      1.0  0.65414  0.95244  0.78658  1.0000 -0.0025483807
C   C170      1.0  0.16586  0.86756  0.21342  1.0000 -0.0025483807
C   C171      1.0  0.95244  0.16586  0.29830  1.0000 -0.0025483807
C   C172      1.0  0.86756  0.65414  0.70170  1.0000 -0.0025483807
C   C173      1.0  0.34586  0.04756  0.21342  1.0000 -0.0025483807
C   C174      1.0  0.83414  0.13244  0.78658  1.0000 -0.0025483807
C   C175      1.0  0.04756  0.83414  0.70170  1.0000 -0.0025483807
C   C176      1.0  0.13244  0.34586  0.29830  1.0000 -0.0025483807
C   C177      1.0  0.68070  0.94520  0.76654  1.0000 -0.1095819976
C   C178      1.0  0.17866  0.91416  0.23346  1.0000 -0.1095819976
C   C179      1.0  0.94520  0.17866  0.26450  1.0000 -0.1095819976
C   C180      1.0  0.91416  0.68070  0.73550  1.0000 -0.1095819976
C   C181      1.0  0.31930  0.05480  0.23346  1.0000 -0.1095819976
C   C182      1.0  0.82134  0.08584  0.76654  1.0000 -0.1095819976
C   C183      1.0  0.05480  0.82134  0.73550  1.0000 -0.1095819976
C   C184      1.0  0.08584  0.31930  0.26450  1.0000 -0.1095819976
C   C185      1.0  0.67118  0.94997  0.83419  1.0000 0.5789906059
C   C186      1.0  0.11578  0.83699  0.16581  1.0000 0.5789906059
C   C187      1.0  0.94997  0.11578  0.27879  1.0000 0.5789906059
C   C188      1.0  0.83699  0.67118  0.72121  1.0000 0.5789906059
C   C189      1.0  0.32882  0.05003  0.16581  1.0000 0.5789906059
C   C190      1.0  0.88422  0.16301  0.83419  1.0000 0.5789906059
C   C191      1.0  0.05003  0.88422  0.72121  1.0000 0.5789906059
C   C192      1.0  0.16301  0.32882  0.27879  1.0000 0.5789906059
C   C193      1.0  0.53390  0.99110  0.71740  1.0000 -0.131014277
C   C194      1.0  0.27370  0.81650  0.28260  1.0000 -0.131014277
C   C195      1.0  0.99110  0.27370  0.45720  1.0000 -0.131014277
C   C196      1.0  0.81650  0.53390  0.54280  1.0000 -0.131014277
C   C197      1.0  0.46610  0.00890  0.28260  1.0000 -0.131014277
C   C198      1.0  0.72630  0.18350  0.71740  1.0000 -0.131014277
C   C199      1.0  0.00890  0.72630  0.54280  1.0000 -0.131014277
C   C200      1.0  0.18350  0.46610  0.45720  1.0000 -0.131014277
C   C201      1.0  0.50050  0.00320  0.68670  1.0000 0.1097731419
C   C202      1.0  0.31650  0.81380  0.31330  1.0000 0.1097731419
C   C203      1.0  0.00320  0.31650  0.50270  1.0000 0.1097731419
C   C204      1.0  0.81380  0.50050  0.49730  1.0000 0.1097731419
C   C205      1.0  0.49950  0.99680  0.31330  1.0000 0.1097731419
C   C206      1.0  0.68350  0.18620  0.68670  1.0000 0.1097731419
C   C207      1.0  0.99680  0.68350  0.49730  1.0000 0.1097731419
C   C208      1.0  0.18620  0.49950  0.50270  1.0000 0.1097731419
C   C209      1.0  0.46830  0.03140  0.70250  1.0000 0.0278480453
C   C210      1.0  0.32890  0.76580  0.29750  1.0000 0.0278480453
C   C211      1.0  0.03140  0.32890  0.56310  1.0000 0.0278480453
C   C212      1.0  0.76580  0.46830  0.43690  1.0000 0.0278480453
C   C213      1.0  0.53170  0.96860  0.29750  1.0000 0.0278480453
C   C214      1.0  0.67110  0.23420  0.70250  1.0000 0.0278480453
C   C215      1.0  0.96860  0.67110  0.43690  1.0000 0.0278480453
C   C216      1.0  0.23420  0.53170  0.56310  1.0000 0.0278480453
C   C217      1.0  0.45020  0.01530  0.71590  1.0000 -0.1095819976
C   C218      1.0  0.29940  0.73430  0.28410  1.0000 -0.1095819976
C   C219      1.0  0.01530  0.29940  0.56510  1.0000 -0.1095819976
C   C220      1.0  0.73430  0.45020  0.43490  1.0000 -0.1095819976
C   C221      1.0  0.54980  0.98470  0.28410  1.0000 -0.1095819976
C   C222      1.0  0.70060  0.26570  0.71590  1.0000 -0.1095819976
C   C223      1.0  0.98470  0.70060  0.43490  1.0000 -0.1095819976
C   C224      1.0  0.26570  0.54980  0.56510  1.0000 -0.1095819976
C   C225      1.0  0.41880  0.03260  0.72280  1.0000 -0.2095377322
C   C226      1.0  0.30980  0.69600  0.27720  1.0000 -0.2095377322
C   C227      1.0  0.03260  0.30980  0.61380  1.0000 -0.2095377322
C   C228      1.0  0.69600  0.41880  0.38620  1.0000 -0.2095377322
C   C229      1.0  0.58120  0.96740  0.27720  1.0000 -0.2095377322
C   C230      1.0  0.69020  0.30400  0.72280  1.0000 -0.2095377322
C   C231      1.0  0.96740  0.69020  0.38620  1.0000 -0.2095377322
C   C232      1.0  0.30400  0.58120  0.61380  1.0000 -0.2095377322
C   C233      1.0  0.40150  0.06460  0.71370  1.0000 0.1553547077
C   C234      1.0  0.35090  0.68780  0.28630  1.0000 0.1553547077
C   C235      1.0  0.06460  0.35090  0.66310  1.0000 0.1553547077
C   C236      1.0  0.68780  0.40150  0.33690  1.0000 0.1553547077
C   C237      1.0  0.59850  0.93540  0.28630  1.0000 0.1553547077
C   C238      1.0  0.64910  0.31220  0.71370  1.0000 0.1553547077
C   C239      1.0  0.93540  0.64910  0.33690  1.0000 0.1553547077
C   C240      1.0  0.31220  0.59850  0.66310  1.0000 0.1553547077
C   C241      1.0  0.42090  0.08060  0.69890  1.0000 -0.1906181832
C   C242      1.0  0.38170  0.72200  0.30110  1.0000 -0.1906181832
C   C243      1.0  0.08060  0.38170  0.65970  1.0000 -0.1906181832
C   C244      1.0  0.72200  0.42090  0.34030  1.0000 -0.1906181832
C   C245      1.0  0.57910  0.91940  0.30110  1.0000 -0.1906181832
C   C246      1.0  0.61830  0.27800  0.69890  1.0000 -0.1906181832
C   C247      1.0  0.91940  0.61830  0.34030  1.0000 -0.1906181832
C   C248      1.0  0.27800  0.57910  0.65970  1.0000 -0.1906181832
C   C249      1.0  0.45550  0.06300  0.69270  1.0000 -0.1429907035
C   C250      1.0  0.37030  0.76280  0.30730  1.0000 -0.1429907035
C   C251      1.0  0.06300  0.37030  0.60750  1.0000 -0.1429907035
C   C252      1.0  0.76280  0.45550  0.39250  1.0000 -0.1429907035
C   C253      1.0  0.54450  0.93700  0.30730  1.0000 -0.1429907035
C   C254      1.0  0.62970  0.23720  0.69270  1.0000 -0.1429907035
C   C255      1.0  0.93700  0.62970  0.39250  1.0000 -0.1429907035
C   C256      1.0  0.23720  0.54450  0.60750  1.0000 -0.1429907035
C   C257      1.0  0.26864  0.03942  0.99752  1.0000 0.5789906059
C   C258      1.0  0.04190  0.27112  0.00248  1.0000 0.5789906059
C   C259      1.0  0.03942  0.04190  0.77078  1.0000 0.5789906059
C   C260      1.0  0.27112  0.26864  0.22922  1.0000 0.5789906059
C   C261      1.0  0.73136  0.96058  0.00248  1.0000 0.5789906059
C   C262      1.0  0.95810  0.72888  0.99752  1.0000 0.5789906059
C   C263      1.0  0.96058  0.95810  0.22922  1.0000 0.5789906059
C   C264      1.0  0.72888  0.73136  0.77078  1.0000 0.5789906059
C   C265      1.0  0.25026  0.03475  0.94561  1.0000 -0.0065960012
C   C266      1.0  0.08914  0.30465  0.05439  1.0000 -0.0065960012
C   C267      1.0  0.03475  0.08914  0.78449  1.0000 -0.0065960012
C   C268      1.0  0.30465  0.25026  0.21551  1.0000 -0.0065960012
C   C269      1.0  0.74974  0.96525  0.05439  1.0000 -0.0065960012
C   C270      1.0  0.91086  0.69535  0.94561  1.0000 -0.0065960012
C   C271      1.0  0.96525  0.91086  0.21551  1.0000 -0.0065960012
C   C272      1.0  0.69535  0.74974  0.78449  1.0000 -0.0065960012
C   C273      1.0  0.27963  0.04322  0.93575  1.0000 -0.1429907035
C   C274      1.0  0.10747  0.34388  0.06425  1.0000 -0.1429907035
C   C275      1.0  0.04322  0.10747  0.76359  1.0000 -0.1429907035
C   C276      1.0  0.34388  0.27963  0.23641  1.0000 -0.1429907035
C   C277      1.0  0.72037  0.95678  0.06425  1.0000 -0.1429907035
C   C278      1.0  0.89253  0.65612  0.93575  1.0000 -0.1429907035
C   C279      1.0  0.95678  0.89253  0.23641  1.0000 -0.1429907035
C   C280      1.0  0.65612  0.72037  0.76359  1.0000 -0.1429907035
C   C281      1.0  0.26093  0.03553  0.88440  1.0000 0.1303476638
C   C282      1.0  0.15113  0.37653  0.11560  1.0000 0.1303476638
C   C283      1.0  0.03553  0.15113  0.77460  1.0000 0.1303476638
C   C284      1.0  0.37653  0.26093  0.22540  1.0000 0.1303476638
C   C285      1.0  0.73907  0.96447  0.11560  1.0000 0.1303476638
C   C286      1.0  0.84887  0.62347  0.88440  1.0000 0.1303476638
C   C287      1.0  0.96447  0.84887  0.22540  1.0000 0.1303476638
C   C288      1.0  0.62347  0.73907  0.77460  1.0000 0.1303476638
C   C289      1.0  0.21366  0.02139  0.84615  1.0000 -0.1797739963
C   C290      1.0  0.17524  0.36751  0.15385  1.0000 -0.1797739963
C   C291      1.0  0.02139  0.17524  0.80773  1.0000 -0.1797739963
C   C292      1.0  0.36751  0.21366  0.19227  1.0000 -0.1797739963
C   C293      1.0  0.78634  0.97861  0.15385  1.0000 -0.1797739963
C   C294      1.0  0.82476  0.63249  0.84615  1.0000 -0.1797739963
C   C295      1.0  0.97861  0.82476  0.19227  1.0000 -0.1797739963
C   C296      1.0  0.63249  0.78634  0.80773  1.0000 -0.1797739963
C   C297      1.0  0.18401  0.01251  0.85746  1.0000 0.0064524114
C   C298      1.0  0.15505  0.32655  0.14254  1.0000 0.0064524114
C   C299      1.0  0.01251  0.15505  0.82850  1.0000 0.0064524114
C   C300      1.0  0.32655  0.18401  0.17150  1.0000 0.0064524114
C   C301      1.0  0.81599  0.98749  0.14254  1.0000 0.0064524114
C   C302      1.0  0.84495  0.67345  0.85746  1.0000 0.0064524114
C   C303      1.0  0.98749  0.84495  0.17150  1.0000 0.0064524114
C   C304      1.0  0.67345  0.81599  0.82850  1.0000 0.0064524114
C   C305      1.0  0.20207  0.02023  0.90710  1.0000 -0.1095819976
C   C306      1.0  0.11313  0.29497  0.09290  1.0000 -0.1095819976
C   C307      1.0  0.02023  0.11313  0.81816  1.0000 -0.1095819976
C   C308      1.0  0.29497  0.20207  0.18184  1.0000 -0.1095819976
C   C309      1.0  0.79793  0.97977  0.09290  1.0000 -0.1095819976
C   C310      1.0  0.88687  0.70503  0.90710  1.0000 -0.1095819976
C   C311      1.0  0.97977  0.88687  0.18184  1.0000 -0.1095819976
C   C312      1.0  0.70503  0.79793  0.81816  1.0000 -0.1095819976
C   C313      1.0  0.13009  0.99310  0.81355  1.0000 0.5734566778
C   C314      1.0  0.17955  0.31654  0.18645  1.0000 0.5734566778
C   C315      1.0  0.99310  0.17955  0.86301  1.0000 0.5734566778
C   C316      1.0  0.31654  0.13009  0.13699  1.0000 0.5734566778
C   C317      1.0  0.86991  0.00690  0.18645  1.0000 0.5734566778
C   C318      1.0  0.82045  0.68346  0.81355  1.0000 0.5734566778
C   C319      1.0  0.00690  0.82045  0.13699  1.0000 0.5734566778
C   C320      1.0  0.68346  0.86991  0.86301  1.0000 0.5734566778
C   C321      1.0  0.33900  0.06780  0.81560  1.0000 0.0278480453
C   C322      1.0  0.25220  0.52340  0.18440  1.0000 0.0278480453
C   C323      1.0  0.06780  0.25220  0.72880  1.0000 0.0278480453
C   C324      1.0  0.52340  0.33900  0.27120  1.0000 0.0278480453
C   C325      1.0  0.66100  0.93220  0.18440  1.0000 0.0278480453
C   C326      1.0  0.74780  0.47660  0.81560  1.0000 0.0278480453
C   C327      1.0  0.93220  0.74780  0.27120  1.0000 0.0278480453
C   C328      1.0  0.47660  0.66100  0.72880  1.0000 0.0278480453
C   C329      1.0  0.30530  0.04860  0.76450  1.0000 -0.131014277
C   C330      1.0  0.28410  0.54080  0.23550  1.0000 -0.131014277
C   C331      1.0  0.04860  0.28410  0.74330  1.0000 -0.131014277
C   C332      1.0  0.54080  0.30530  0.25670  1.0000 -0.131014277
C   C333      1.0  0.69470  0.95140  0.23550  1.0000 -0.131014277
C   C334      1.0  0.71590  0.45920  0.76450  1.0000 -0.131014277
C   C335      1.0  0.95140  0.71590  0.25670  1.0000 -0.131014277
C   C336      1.0  0.45920  0.69470  0.74330  1.0000 -0.131014277
C   C337      1.0  0.31390  0.05590  0.73440  1.0000 -0.2026128347
C   C338      1.0  0.32150  0.57950  0.26560  1.0000 -0.2026128347
C   C339      1.0  0.05590  0.32150  0.74200  1.0000 -0.2026128347
C   C340      1.0  0.57950  0.31390  0.25800  1.0000 -0.2026128347
C   C341      1.0  0.68610  0.94410  0.26560  1.0000 -0.2026128347
C   C342      1.0  0.67850  0.42050  0.73440  1.0000 -0.2026128347
C   C343      1.0  0.94410  0.67850  0.25800  1.0000 -0.2026128347
C   C344      1.0  0.42050  0.68610  0.74200  1.0000 -0.2026128347
C   C345      1.0  0.35680  0.07960  0.75560  1.0000 0.148433625
C   C346      1.0  0.32400  0.60120  0.24440  1.0000 0.148433625
C   C347      1.0  0.07960  0.32400  0.72280  1.0000 0.148433625
C   C348      1.0  0.60120  0.35680  0.27720  1.0000 0.148433625
C   C349      1.0  0.64320  0.92040  0.24440  1.0000 0.148433625
C   C350      1.0  0.67600  0.39880  0.75560  1.0000 0.148433625
C   C351      1.0  0.92040  0.67600  0.27720  1.0000 0.148433625
C   C352      1.0  0.39880  0.64320  0.72280  1.0000 0.148433625
C   C353      1.0  0.39020  0.09520  0.80600  1.0000 -0.1797739963
C   C354      1.0  0.28920  0.58420  0.19400  1.0000 -0.1797739963
C   C355      1.0  0.09520  0.28920  0.70500  1.0000 -0.1797739963
C   C356      1.0  0.58420  0.39020  0.29500  1.0000 -0.1797739963
C   C357      1.0  0.60980  0.90480  0.19400  1.0000 -0.1797739963
C   C358      1.0  0.71080  0.41580  0.80600  1.0000 -0.1797739963
C   C359      1.0  0.90480  0.71080  0.29500  1.0000 -0.1797739963
C   C360      1.0  0.41580  0.60980  0.70500  1.0000 -0.1797739963
C   C361      1.0  0.38160  0.08690  0.83510  1.0000 -0.1233104266
C   C362      1.0  0.25180  0.54650  0.16490  1.0000 -0.1233104266
C   C363      1.0  0.08690  0.25180  0.70530  1.0000 -0.1233104266
C   C364      1.0  0.54650  0.38160  0.29470  1.0000 -0.1233104266
C   C365      1.0  0.61840  0.91310  0.16490  1.0000 -0.1233104266
C   C366      1.0  0.74820  0.45350  0.83510  1.0000 -0.1233104266
C   C367      1.0  0.91310  0.74820  0.29470  1.0000 -0.1233104266
C   C368      1.0  0.45350  0.61840  0.70530  1.0000 -0.1233104266
C   C369      1.0  0.28638  0.04306  0.83472  1.0000 -0.1095819976
C   C370      1.0  0.20834  0.45166  0.16528  1.0000 -0.1095819976
C   C371      1.0  0.04306  0.20834  0.75668  1.0000 -0.1095819976
C   C372      1.0  0.45166  0.28638  0.24332  1.0000 -0.1095819976
C   C373      1.0  0.71362  0.95694  0.16528  1.0000 -0.1095819976
C   C374      1.0  0.79166  0.54834  0.83472  1.0000 -0.1095819976
C   C375      1.0  0.95694  0.79166  0.24332  1.0000 -0.1095819976
C   C376      1.0  0.54834  0.71362  0.75668  1.0000 -0.1095819976
C   C377      1.0  0.32717  0.05887  0.84630  1.0000 0.1097731419
C   C378      1.0  0.21257  0.48087  0.15370  1.0000 0.1097731419
C   C379      1.0  0.05887  0.21257  0.73170  1.0000 0.1097731419
C   C380      1.0  0.48087  0.32717  0.26830  1.0000 0.1097731419
C   C381      1.0  0.67283  0.94113  0.15370  1.0000 0.1097731419
C   C382      1.0  0.78743  0.51913  0.84630  1.0000 0.1097731419
C   C383      1.0  0.94113  0.78743  0.26830  1.0000 0.1097731419
C   C384      1.0  0.51913  0.67283  0.73170  1.0000 0.1097731419
N   N1        1.0  0.18214  0.10623  0.49711  1.0000 0.1399991038
N   N2        1.0  0.60912  0.68503  0.50289  1.0000 0.1399991038
N   N3        1.0  0.10623  0.60912  0.92409  1.0000 0.1399991038
N   N4        1.0  0.68503  0.18214  0.07591  1.0000 0.1399991038
N   N5        1.0  0.81786  0.89377  0.50289  1.0000 0.1399991038
N   N6        1.0  0.39088  0.31497  0.49711  1.0000 0.1399991038
N   N7        1.0  0.89377  0.39088  0.07591  1.0000 0.1399991038
N   N8        1.0  0.31497  0.81786  0.92409  1.0000 0.1399991038
N   N9        1.0  0.16899  0.12880  0.52919  1.0000 -0.131014277
N   N10       1.0  0.59961  0.63980  0.47081  1.0000 -0.131014277
N   N11       1.0  0.12880  0.59961  0.95981  1.0000 -0.131014277
N   N12       1.0  0.63980  0.16899  0.04019  1.0000 -0.131014277
N   N13       1.0  0.83101  0.87120  0.47081  1.0000 -0.131014277
N   N14       1.0  0.40039  0.36020  0.52919  1.0000 -0.131014277
N   N15       1.0  0.87120  0.40039  0.04019  1.0000 -0.131014277
N   N16       1.0  0.36020  0.83101  0.95981  1.0000 -0.131014277
N   N17       1.0  0.19810  0.13250  0.57420  1.0000 -0.2095377322
N   N18       1.0  0.55830  0.62390  0.42580  1.0000 -0.2095377322
N   N19       1.0  0.13250  0.55830  0.93440  1.0000 -0.2095377322
N   N20       1.0  0.62390  0.19810  0.06560  1.0000 -0.2095377322
N   N21       1.0  0.80190  0.86750  0.42580  1.0000 -0.2095377322
N   N22       1.0  0.44170  0.37610  0.57420  1.0000 -0.2095377322
N   N23       1.0  0.86750  0.44170  0.06560  1.0000 -0.2095377322
N   N24       1.0  0.37610  0.80190  0.93440  1.0000 -0.2095377322
N   N25       1.0  0.56046  0.97948  0.70098  1.0000 0.1399991038
N   N26       1.0  0.27850  0.85948  0.29902  1.0000 0.1399991038
N   N27       1.0  0.97948  0.27850  0.41902  1.0000 0.1399991038
N   N28       1.0  0.85948  0.56046  0.58098  1.0000 0.1399991038
N   N29       1.0  0.43954  0.02052  0.29902  1.0000 0.1399991038
N   N30       1.0  0.72150  0.14052  0.70098  1.0000 0.1399991038
N   N31       1.0  0.02052  0.72150  0.58098  1.0000 0.1399991038
N   N32       1.0  0.14052  0.43954  0.41902  1.0000 0.1399991038
N   N33       1.0  0.54850  0.98800  0.66590  1.0000 -0.0992708521
N   N34       1.0  0.32210  0.88260  0.33410  1.0000 -0.0992708521
N   N35       1.0  0.98800  0.32210  0.43950  1.0000 -0.0992708521
N   N36       1.0  0.88260  0.54850  0.56050  1.0000 -0.0992708521
N   N37       1.0  0.45150  0.01200  0.33410  1.0000 -0.0992708521
N   N38       1.0  0.67790  0.11740  0.66590  1.0000 -0.0992708521
N   N39       1.0  0.01200  0.67790  0.56050  1.0000 -0.0992708521
N   N40       1.0  0.11740  0.45150  0.43950  1.0000 -0.0992708521
N   N41       1.0  0.51270  0.00100  0.65610  1.0000 -0.2026128347
N   N42       1.0  0.34490  0.85660  0.34390  1.0000 -0.2026128347
N   N43       1.0  0.00100  0.34490  0.48830  1.0000 -0.2026128347
N   N44       1.0  0.85660  0.51270  0.51170  1.0000 -0.2026128347
N   N45       1.0  0.48730  0.99900  0.34390  1.0000 -0.2026128347
N   N46       1.0  0.65510  0.14340  0.65610  1.0000 -0.2026128347
N   N47       1.0  0.99900  0.65510  0.51170  1.0000 -0.2026128347
N   N48       1.0  0.14340  0.48730  0.48830  1.0000 -0.2026128347
N   N49       1.0  0.37093  0.09220  0.72813  1.0000 -0.1429907035
N   N50       1.0  0.36407  0.64280  0.27187  1.0000 -0.1429907035
N   N51       1.0  0.09220  0.36407  0.72127  1.0000 -0.1429907035
N   N52       1.0  0.64280  0.37093  0.27873  1.0000 -0.1429907035
N   N53       1.0  0.62907  0.90780  0.27187  1.0000 -0.1429907035
N   N54       1.0  0.63593  0.35720  0.72813  1.0000 -0.1429907035
N   N55       1.0  0.90780  0.63593  0.27873  1.0000 -0.1429907035
N   N56       1.0  0.35720  0.62907  0.72127  1.0000 -0.1429907035
N   N57       1.0  0.29363  0.04224  0.87339  1.0000 0.1303476638
N   N58       1.0  0.16885  0.42024  0.12661  1.0000 0.1303476638
N   N59       1.0  0.04224  0.16885  0.74861  1.0000 0.1303476638
N   N60       1.0  0.42024  0.29363  0.25139  1.0000 0.1303476638
N   N61       1.0  0.70637  0.95776  0.12661  1.0000 0.1303476638
N   N62       1.0  0.83115  0.57976  0.87339  1.0000 0.1303476638
N   N63       1.0  0.95776  0.83115  0.25139  1.0000 0.1303476638
N   N64       1.0  0.57976  0.70637  0.74861  1.0000 0.1303476638
N   N65       1.0  0.33803  0.05753  0.90850  1.0000 -0.0992708521
N   N66       1.0  0.14903  0.42953  0.09150  1.0000 -0.0992708521
N   N67       1.0  0.05753  0.14903  0.71950  1.0000 -0.0992708521
N   N68       1.0  0.42953  0.33803  0.28050  1.0000 -0.0992708521
N   N69       1.0  0.66197  0.94247  0.09150  1.0000 -0.0992708521
N   N70       1.0  0.85097  0.57047  0.90850  1.0000 -0.0992708521
N   N71       1.0  0.94247  0.85097  0.28050  1.0000 -0.0992708521
N   N72       1.0  0.57047  0.66197  0.71950  1.0000 -0.0992708521
N   N73       1.0  0.35798  0.06418  0.89040  1.0000 -0.1906181832
N   N74       1.0  0.17378  0.46758  0.10960  1.0000 -0.1906181832
N   N75       1.0  0.06418  0.17378  0.70620  1.0000 -0.1906181832
N   N76       1.0  0.46758  0.35798  0.29380  1.0000 -0.1906181832
N   N77       1.0  0.64202  0.93582  0.10960  1.0000 -0.1906181832
N   N78       1.0  0.82622  0.53242  0.89040  1.0000 -0.1906181832
N   N79       1.0  0.93582  0.82622  0.29380  1.0000 -0.1906181832
N   N80       1.0  0.53242  0.64202  0.70620  1.0000 -0.1906181832
O   O1        1.0  0.24325  0.09560  0.39405  1.0000 -0.5214677963
O   O2        1.0  0.70155  0.84920  0.60595  1.0000 -0.5214677963
O   O3        1.0  0.09560  0.70155  0.85235  1.0000 -0.5214677963
O   O4        1.0  0.84920  0.24325  0.14765  1.0000 -0.5214677963
O   O5        1.0  0.75675  0.90440  0.60595  1.0000 -0.5214677963
O   O6        1.0  0.29845  0.15080  0.39405  1.0000 -0.5214677963
O   O7        1.0  0.90440  0.29845  0.14765  1.0000 -0.5214677963
O   O8        1.0  0.15080  0.75675  0.85235  1.0000 -0.5214677963
O   O9        1.0  0.18103  0.07784  0.31379  1.0000 -0.5022500847
O   O10       1.0  0.76405  0.86724  0.68621  1.0000 -0.5022500847
O   O11       1.0  0.07784  0.76405  0.89681  1.0000 -0.5022500847
O   O12       1.0  0.86724  0.18103  0.10319  1.0000 -0.5022500847
O   O13       1.0  0.81897  0.92216  0.68621  1.0000 -0.5022500847
O   O14       1.0  0.23595  0.13276  0.31379  1.0000 -0.5022500847
O   O15       1.0  0.92216  0.23595  0.10319  1.0000 -0.5022500847
O   O16       1.0  0.13276  0.81897  0.89681  1.0000 -0.5022500847
O   O17       1.0  0.02631  0.06067  0.27760  1.0000 -0.5098804623
O   O18       1.0  0.78307  0.74871  0.72240  1.0000 -0.5098804623
O   O19       1.0  0.06067  0.78307  0.03436  1.0000 -0.5098804623
O   O20       1.0  0.74871  0.02631  0.96564  1.0000 -0.5098804623
O   O21       1.0  0.97369  0.93933  0.72240  1.0000 -0.5098804623
O   O22       1.0  0.21693  0.25129  0.27760  1.0000 -0.5098804623
O   O23       1.0  0.93933  0.21693  0.96564  1.0000 -0.5098804623
O   O24       1.0  0.25129  0.97369  0.03436  1.0000 -0.5098804623
O   O25       1.0  0.01751  0.06363  0.33822  1.0000 -0.5214677963
O   O26       1.0  0.72541  0.67929  0.66178  1.0000 -0.5214677963
O   O27       1.0  0.06363  0.72541  0.04612  1.0000 -0.5214677963
O   O28       1.0  0.67929  0.01751  0.95388  1.0000 -0.5214677963
O   O29       1.0  0.98249  0.93637  0.66178  1.0000 -0.5214677963
O   O30       1.0  0.27459  0.32071  0.33822  1.0000 -0.5214677963
O   O31       1.0  0.93637  0.27459  0.95388  1.0000 -0.5214677963
O   O32       1.0  0.32071  0.98249  0.04612  1.0000 -0.5214677963
O   O33       1.0  0.67436  0.92483  0.65275  1.0000 -0.5098804623
O   O34       1.0  0.27208  0.02161  0.34725  1.0000 -0.5098804623
O   O35       1.0  0.92483  0.27208  0.25047  1.0000 -0.5098804623
O   O36       1.0  0.02161  0.67436  0.74953  1.0000 -0.5098804623
O   O37       1.0  0.32564  0.07517  0.34725  1.0000 -0.5098804623
O   O38       1.0  0.72792  0.97839  0.65275  1.0000 -0.5098804623
O   O39       1.0  0.07517  0.72792  0.74953  1.0000 -0.5098804623
O   O40       1.0  0.97839  0.32564  0.25047  1.0000 -0.5098804623
O   O41       1.0  0.73651  0.94116  0.73247  1.0000 -0.5098804623
O   O42       1.0  0.20869  0.00404  0.26753  1.0000 -0.5098804623
O   O43       1.0  0.94116  0.20869  0.20465  1.0000 -0.5098804623
O   O44       1.0  0.00404  0.73651  0.79535  1.0000 -0.5098804623
O   O45       1.0  0.26349  0.05884  0.26753  1.0000 -0.5098804623
O   O46       1.0  0.79131  0.99596  0.73247  1.0000 -0.5098804623
O   O47       1.0  0.05884  0.79131  0.79535  1.0000 -0.5098804623
O   O48       1.0  0.99596  0.26349  0.20465  1.0000 -0.5098804623
O   O49       1.0  0.71277  0.95377  0.86128  1.0000 -0.5022500847
O   O50       1.0  0.09249  0.85149  0.13872  1.0000 -0.5022500847
O   O51       1.0  0.95377  0.09249  0.24100  1.0000 -0.5022500847
O   O52       1.0  0.85149  0.71277  0.75900  1.0000 -0.5022500847
O   O53       1.0  0.28723  0.04623  0.13872  1.0000 -0.5022500847
O   O54       1.0  0.90751  0.14851  0.86128  1.0000 -0.5022500847
O   O55       1.0  0.04623  0.90751  0.75900  1.0000 -0.5022500847
O   O56       1.0  0.14851  0.28723  0.24100  1.0000 -0.5022500847
O   O57       1.0  0.64266  0.95186  0.84604  1.0000 -0.5214677963
O   O58       1.0  0.10582  0.79662  0.15396  1.0000 -0.5214677963
O   O59       1.0  0.95186  0.10582  0.30920  1.0000 -0.5214677963
O   O60       1.0  0.79662  0.64266  0.69080  1.0000 -0.5214677963
O   O61       1.0  0.35734  0.04814  0.15396  1.0000 -0.5214677963
O   O62       1.0  0.89418  0.20338  0.84604  1.0000 -0.5214677963
O   O63       1.0  0.04814  0.89418  0.69080  1.0000 -0.5214677963
O   O64       1.0  0.20338  0.35734  0.30920  1.0000 -0.5214677963
O   O65       1.0  0.31262  0.05104  0.02928  1.0000 -0.5214677963
O   O66       1.0  0.02176  0.28334  0.97072  1.0000 -0.5214677963
O   O67       1.0  0.05104  0.02176  0.73842  1.0000 -0.5214677963
O   O68       1.0  0.28334  0.31262  0.26158  1.0000 -0.5214677963
O   O69       1.0  0.68738  0.94896  0.97072  1.0000 -0.5214677963
O   O70       1.0  0.97824  0.71666  0.02928  1.0000 -0.5214677963
O   O71       1.0  0.94896  0.97824  0.26158  1.0000 -0.5214677963
O   O72       1.0  0.71666  0.68738  0.73842  1.0000 -0.5214677963
O   O73       1.0  0.23924  0.03344  0.00456  1.0000 -0.5022500847
O   O74       1.0  0.02888  0.23468  0.99544  1.0000 -0.5022500847
O   O75       1.0  0.03344  0.02888  0.79420  1.0000 -0.5022500847
O   O76       1.0  0.23468  0.23924  0.20580  1.0000 -0.5022500847
O   O77       1.0  0.76076  0.96656  0.99544  1.0000 -0.5022500847
O   O78       1.0  0.97112  0.76532  0.00456  1.0000 -0.5022500847
O   O79       1.0  0.96656  0.97112  0.20580  1.0000 -0.5022500847
O   O80       1.0  0.76532  0.76076  0.79420  1.0000 -0.5022500847
O   O81       1.0  0.10756  0.99685  0.83251  1.0000 -0.5098804623
O   O82       1.0  0.16434  0.27505  0.16749  1.0000 -0.5098804623
O   O83       1.0  0.99685  0.16434  0.88929  1.0000 -0.5098804623
O   O84       1.0  0.27505  0.10756  0.11071  1.0000 -0.5098804623
O   O85       1.0  0.89244  0.00315  0.16749  1.0000 -0.5098804623
O   O86       1.0  0.83566  0.72495  0.83251  1.0000 -0.5098804623
O   O87       1.0  0.00315  0.83566  0.11071  1.0000 -0.5098804623
O   O88       1.0  0.72495  0.89244  0.88929  1.0000 -0.5098804623
O   O89       1.0  0.11765  0.98063  0.76772  1.0000 -0.5098804623
O   O90       1.0  0.21291  0.34993  0.23228  1.0000 -0.5098804623
O   O91       1.0  0.98063  0.21291  0.86298  1.0000 -0.5098804623
O   O92       1.0  0.34993  0.11765  0.13702  1.0000 -0.5098804623
O   O93       1.0  0.88235  0.01937  0.23228  1.0000 -0.5098804623
O   O94       1.0  0.78709  0.65007  0.76772  1.0000 -0.5098804623
O   O95       1.0  0.01937  0.78709  0.13702  1.0000 -0.5098804623
O   O96       1.0  0.65007  0.88235  0.86298  1.0000 -0.5098804623
