# DDEC6 charges by PACMAN v1.1 (https://github.com/mtap-research/PACMAN-charge/)
data_2014[Eu][nan]3[ASR]5
_chemical_formula_sum              "Eu12 H180 C292 N24 O64"
_cell_length_a       14.6534
_cell_length_b       17.7687
_cell_length_c       35.0786
_cell_angle_alpha    90
_cell_angle_beta     114.399
_cell_angle_gamma    90

_symmetry_space_group_name_H-M    "P 1"
_symmetry_Int_Tables_number       1

loop_
  _symmetry_equiv_pos_as_xyz
  'x, y, z'

loop_
  _atom_site_type_symbol
  _atom_site_label
  _atom_site_symmetry_multiplicity
  _atom_site_fract_x
  _atom_site_fract_y
  _atom_site_fract_z
  _atom_site_occupancy
  _atom_site_charge
Eu  Eu1       1.0  0.21623  0.93813  0.06939  1.0000 2.0681803152
Eu  Eu2       1.0  0.78377  0.43813  0.43061  1.0000 2.0681803152
Eu  Eu3       1.0  0.78377  0.06187  0.93061  1.0000 2.0681803152
Eu  Eu4       1.0  0.21623  0.56187  0.56939  1.0000 2.0681803152
Eu  Eu5       1.0  0.91815  0.92457  0.01238  1.0000 2.2235736772
Eu  Eu6       1.0  0.08185  0.42457  0.48762  1.0000 2.2235736772
Eu  Eu7       1.0  0.08185  0.07543  0.98762  1.0000 2.2235736772
Eu  Eu8       1.0  0.91815  0.57543  0.51238  1.0000 2.2235736772
Eu  Eu9       1.0  0.35955  0.99742  0.00142  1.0000 2.1126624271
Eu  Eu10      1.0  0.64045  0.49742  0.49858  1.0000 2.1126624271
Eu  Eu11      1.0  0.64045  0.00258  0.99858  1.0000 2.1126624271
Eu  Eu12      1.0  0.35955  0.50258  0.50142  1.0000 2.1126624271
H   H1        1.0  0.50440  0.64400  0.93980  1.0000 0.1196507493
H   H2        1.0  0.49560  0.14400  0.56020  1.0000 0.1196507493
H   H3        1.0  0.49560  0.35600  0.06020  1.0000 0.1196507493
H   H4        1.0  0.50440  0.85600  0.43980  1.0000 0.1196507493
H   H5        1.0  0.50950  0.42160  0.91680  1.0000 0.1196507493
H   H6        1.0  0.49050  0.92160  0.58320  1.0000 0.1196507493
H   H7        1.0  0.49050  0.57840  0.08320  1.0000 0.1196507493
H   H8        1.0  0.50950  0.07840  0.41680  1.0000 0.1196507493
H   H9        1.0  0.48040  0.31360  0.93990  1.0000 0.1102803403
H   H10       1.0  0.51960  0.81360  0.56010  1.0000 0.1102803403
H   H11       1.0  0.51960  0.68640  0.06010  1.0000 0.1102803403
H   H12       1.0  0.48040  0.18640  0.43990  1.0000 0.1102803403
H   H13       1.0  0.41830  0.19720  0.94920  1.0000 0.1287884414
H   H14       1.0  0.58170  0.69720  0.55080  1.0000 0.1287884414
H   H15       1.0  0.58170  0.80280  0.05080  1.0000 0.1287884414
H   H16       1.0  0.41830  0.30280  0.44920  1.0000 0.1287884414
H   H17       1.0  0.19080  0.30200  0.96380  1.0000 0.1196507493
H   H18       1.0  0.80920  0.80200  0.53620  1.0000 0.1196507493
H   H19       1.0  0.80920  0.69800  0.03620  1.0000 0.1196507493
H   H20       1.0  0.19080  0.19800  0.46380  1.0000 0.1196507493
H   H21       1.0  0.25220  0.41800  0.95410  1.0000 0.1102803403
H   H22       1.0  0.74780  0.91800  0.54590  1.0000 0.1102803403
H   H23       1.0  0.74780  0.58200  0.04590  1.0000 0.1102803403
H   H24       1.0  0.25220  0.08200  0.45410  1.0000 0.1102803403
H   H25       1.0  0.66350  0.44400  0.92110  1.0000 0.1196507493
H   H26       1.0  0.33650  0.94400  0.57890  1.0000 0.1196507493
H   H27       1.0  0.33650  0.55600  0.07890  1.0000 0.1196507493
H   H28       1.0  0.66350  0.05600  0.42110  1.0000 0.1196507493
H   H29       1.0  0.78080  0.46800  0.89510  1.0000 0.1016843121
H   H30       1.0  0.21920  0.96800  0.60490  1.0000 0.1016843121
H   H31       1.0  0.21920  0.53200  0.10490  1.0000 0.1016843121
H   H32       1.0  0.78080  0.03200  0.39510  1.0000 0.1016843121
H   H33       1.0  0.68850  0.67620  0.86840  1.0000 0.1016843121
H   H34       1.0  0.31150  0.17620  0.63160  1.0000 0.1016843121
H   H35       1.0  0.31150  0.32380  0.13160  1.0000 0.1016843121
H   H36       1.0  0.68850  0.82380  0.36840  1.0000 0.1016843121
H   H37       1.0  0.56930  0.65890  0.89430  1.0000 0.1196507493
H   H38       1.0  0.43070  0.15890  0.60570  1.0000 0.1196507493
H   H39       1.0  0.43070  0.34110  0.10570  1.0000 0.1196507493
H   H40       1.0  0.56930  0.84110  0.39430  1.0000 0.1196507493
H   H41       1.0  0.92480  0.87630  0.10400  1.0000 0.1196507493
H   H42       1.0  0.07520  0.37630  0.39600  1.0000 0.1196507493
H   H43       1.0  0.07520  0.12370  0.89600  1.0000 0.1196507493
H   H44       1.0  0.92480  0.62370  0.60400  1.0000 0.1196507493
H   H45       1.0  0.83960  0.81370  0.13780  1.0000 0.1102803403
H   H46       1.0  0.16040  0.31370  0.36220  1.0000 0.1102803403
H   H47       1.0  0.16040  0.18630  0.86220  1.0000 0.1102803403
H   H48       1.0  0.83960  0.68630  0.63780  1.0000 0.1102803403
H   H49       1.0  0.09260  0.70060  0.20840  1.0000 0.1196507493
H   H50       1.0  0.90740  0.20060  0.29160  1.0000 0.1196507493
H   H51       1.0  0.90740  0.29940  0.79160  1.0000 0.1196507493
H   H52       1.0  0.09260  0.79940  0.70840  1.0000 0.1196507493
H   H53       1.0  0.17760  0.76330  0.17460  1.0000 0.1287884414
H   H54       1.0  0.82240  0.26330  0.32540  1.0000 0.1287884414
H   H55       1.0  0.82240  0.23670  0.82540  1.0000 0.1287884414
H   H56       1.0  0.17760  0.73670  0.67460  1.0000 0.1287884414
H   H57       1.0  0.76020  0.72440  0.15150  1.0000 0.1196507493
H   H58       1.0  0.23980  0.22440  0.34850  1.0000 0.1196507493
H   H59       1.0  0.23980  0.27560  0.84850  1.0000 0.1196507493
H   H60       1.0  0.76020  0.77560  0.65150  1.0000 0.1196507493
H   H61       1.0  0.77400  0.60740  0.25250  1.0000 0.1196507493
H   H62       1.0  0.22600  0.10740  0.24750  1.0000 0.1196507493
H   H63       1.0  0.22600  0.39260  0.74750  1.0000 0.1196507493
H   H64       1.0  0.77400  0.89260  0.75250  1.0000 0.1196507493
H   H65       1.0  0.86880  0.54620  0.30500  1.0000 0.1102803403
H   H66       1.0  0.13120  0.04620  0.19500  1.0000 0.1102803403
H   H67       1.0  0.13120  0.45380  0.69500  1.0000 0.1102803403
H   H68       1.0  0.86880  0.95380  0.80500  1.0000 0.1102803403
H   H69       1.0  0.97250  0.50290  0.37170  1.0000 0.1196507493
H   H70       1.0  0.02750  0.00290  0.12830  1.0000 0.1196507493
H   H71       1.0  0.02750  0.49710  0.62830  1.0000 0.1196507493
H   H72       1.0  0.97250  0.99710  0.87170  1.0000 0.1196507493
H   H73       1.0  0.20620  0.61500  0.36600  1.0000 0.1196507493
H   H74       1.0  0.79380  0.11500  0.13400  1.0000 0.1196507493
H   H75       1.0  0.79380  0.38500  0.63400  1.0000 0.1196507493
H   H76       1.0  0.20620  0.88500  0.86600  1.0000 0.1196507493
H   H77       1.0  0.10340  0.65960  0.30030  1.0000 0.1102803403
H   H78       1.0  0.89660  0.15960  0.19970  1.0000 0.1102803403
H   H79       1.0  0.89660  0.34040  0.69970  1.0000 0.1102803403
H   H80       1.0  0.10340  0.84040  0.80030  1.0000 0.1102803403
H   H81       1.0  0.61980  0.57250  0.21190  1.0000 0.1196507493
H   H82       1.0  0.38020  0.07250  0.28810  1.0000 0.1196507493
H   H83       1.0  0.38020  0.42750  0.78810  1.0000 0.1196507493
H   H84       1.0  0.61980  0.92750  0.71190  1.0000 0.1196507493
H   H85       1.0  0.44690  0.57750  0.18590  1.0000 0.1016843121
H   H86       1.0  0.55310  0.07750  0.31410  1.0000 0.1016843121
H   H87       1.0  0.55310  0.42250  0.81410  1.0000 0.1016843121
H   H88       1.0  0.44690  0.92250  0.68590  1.0000 0.1016843121
H   H89       1.0  0.43750  0.75660  0.12070  1.0000 0.1102803403
H   H90       1.0  0.56250  0.25660  0.37930  1.0000 0.1102803403
H   H91       1.0  0.56250  0.24340  0.87930  1.0000 0.1102803403
H   H92       1.0  0.43750  0.74340  0.62070  1.0000 0.1102803403
H   H93       1.0  0.61060  0.75930  0.14630  1.0000 0.1196507493
H   H94       1.0  0.38940  0.25930  0.35370  1.0000 0.1196507493
H   H95       1.0  0.38940  0.24070  0.85370  1.0000 0.1196507493
H   H96       1.0  0.61060  0.74070  0.64630  1.0000 0.1196507493
H   H97       1.0  0.65740  0.95060  0.10800  1.0000 0.1287884414
H   H98       1.0  0.34260  0.45060  0.39200  1.0000 0.1287884414
H   H99       1.0  0.34260  0.04940  0.89200  1.0000 0.1287884414
H   H100      1.0  0.65740  0.54940  0.60800  1.0000 0.1287884414
H   H101      1.0  0.80740  0.93380  0.16690  1.0000 0.1102803403
H   H102      1.0  0.19260  0.43380  0.33310  1.0000 0.1102803403
H   H103      1.0  0.19260  0.06620  0.83310  1.0000 0.1102803403
H   H104      1.0  0.80740  0.56620  0.66690  1.0000 0.1102803403
H   H105      1.0  0.65140  0.88150  0.23520  1.0000 0.1196507493
H   H106      1.0  0.34860  0.38150  0.26480  1.0000 0.1196507493
H   H107      1.0  0.34860  0.11850  0.76480  1.0000 0.1196507493
H   H108      1.0  0.65140  0.61850  0.73520  1.0000 0.1196507493
H   H109      1.0  0.50330  0.90290  0.17700  1.0000 0.1287884414
H   H110      1.0  0.49670  0.40290  0.32300  1.0000 0.1287884414
H   H111      1.0  0.49670  0.09710  0.82300  1.0000 0.1287884414
H   H112      1.0  0.50330  0.59710  0.67700  1.0000 0.1287884414
H   H113      1.0  0.94100  0.93690  0.22800  1.0000 0.1196507493
H   H114      1.0  0.05900  0.43690  0.27200  1.0000 0.1196507493
H   H115      1.0  0.05900  0.06310  0.77200  1.0000 0.1196507493
H   H116      1.0  0.94100  0.56310  0.72800  1.0000 0.1196507493
H   H117      1.0  0.05710  0.81540  0.33480  1.0000 0.1196507493
H   H118      1.0  0.94290  0.31540  0.16520  1.0000 0.1196507493
H   H119      1.0  0.94290  0.18460  0.66520  1.0000 0.1196507493
H   H120      1.0  0.05710  0.68460  0.83480  1.0000 0.1196507493
H   H121      1.0  0.01440  0.77090  0.38470  1.0000 0.1102803403
H   H122      1.0  0.98560  0.27090  0.11530  1.0000 0.1102803403
H   H123      1.0  0.98560  0.22910  0.61530  1.0000 0.1102803403
H   H124      1.0  0.01440  0.72910  0.88470  1.0000 0.1102803403
H   H125      1.0  0.98220  0.67620  0.42330  1.0000 0.1196507493
H   H126      1.0  0.01780  0.17620  0.07670  1.0000 0.1196507493
H   H127      1.0  0.01780  0.32380  0.57670  1.0000 0.1196507493
H   H128      1.0  0.98220  0.82380  0.92330  1.0000 0.1196507493
H   H129      1.0  0.70830  0.64330  0.32930  1.0000 0.1196507493
H   H130      1.0  0.29170  0.14330  0.17070  1.0000 0.1196507493
H   H131      1.0  0.29170  0.35670  0.67070  1.0000 0.1196507493
H   H132      1.0  0.70830  0.85670  0.82930  1.0000 0.1196507493
H   H133      1.0  0.73770  0.74030  0.29200  1.0000 0.1102803403
H   H134      1.0  0.26230  0.24030  0.20800  1.0000 0.1102803403
H   H135      1.0  0.26230  0.25970  0.70800  1.0000 0.1102803403
H   H136      1.0  0.73770  0.75970  0.79200  1.0000 0.1102803403
H   H137      1.0  0.08920  0.89820  0.22520  1.0000 0.1196507493
H   H138      1.0  0.91080  0.39820  0.27480  1.0000 0.1196507493
H   H139      1.0  0.91080  0.10180  0.77480  1.0000 0.1196507493
H   H140      1.0  0.08920  0.60180  0.72520  1.0000 0.1196507493
H   H141      1.0  0.24940  0.92340  0.23310  1.0000 0.1102803403
H   H142      1.0  0.75060  0.42340  0.26690  1.0000 0.1102803403
H   H143      1.0  0.75060  0.07660  0.76690  1.0000 0.1102803403
H   H144      1.0  0.24940  0.57660  0.73310  1.0000 0.1102803403
H   H145      1.0  0.34300  0.93710  0.35310  1.0000 0.0917357924
H   H146      1.0  0.65700  0.43710  0.14690  1.0000 0.0917357924
H   H147      1.0  0.65700  0.06290  0.64690  1.0000 0.0917357924
H   H148      1.0  0.34300  0.56290  0.85310  1.0000 0.0917357924
H   H149      1.0  0.18570  0.90810  0.35070  1.0000 0.1287884414
H   H150      1.0  0.81430  0.40810  0.14930  1.0000 0.1287884414
H   H151      1.0  0.81430  0.09190  0.64930  1.0000 0.1287884414
H   H152      1.0  0.18570  0.59190  0.85070  1.0000 0.1287884414
H   H153      1.0  0.57380  0.13260  0.06750  1.0000 0.1016843121
H   H154      1.0  0.42620  0.63260  0.43250  1.0000 0.0917357924
H   H155      1.0  0.42620  0.86740  0.93250  1.0000 0.0917357924
H   H156      1.0  0.57380  0.36740  0.56750  1.0000 0.0917357924
H   H157      1.0  0.27740  0.06100  0.05640  1.0000 0.3954288288
H   H158      1.0  0.72260  0.56100  0.44360  1.0000 0.3949191793
H   H159      1.0  0.72260  0.93900  0.94360  1.0000 0.3949191793
H   H160      1.0  0.27740  0.43900  0.55640  1.0000 0.3954288288
H   H161      1.0  0.07100  0.91800  0.98600  1.0000 0.3954288288
H   H162      1.0  0.92900  0.41800  0.51400  1.0000 0.3949191793
H   H163      1.0  0.92900  0.08200  0.01400  1.0000 0.3949191793
H   H164      1.0  0.07100  0.58200  0.48600  1.0000 0.3954288288
H   H165      1.0  0.32190  0.82340  0.96170  1.0000 0.1102803403
H   H166      1.0  0.67810  0.32340  0.53830  1.0000 0.1102803403
H   H167      1.0  0.67810  0.17660  0.03830  1.0000 0.1102803403
H   H168      1.0  0.32190  0.67660  0.46170  1.0000 0.1102803403
H   H169      1.0  0.38160  0.72690  0.93330  1.0000 0.1102803403
H   H170      1.0  0.61840  0.22690  0.56670  1.0000 0.1102803403
H   H171      1.0  0.61840  0.27310  0.06670  1.0000 0.1102803403
H   H172      1.0  0.38160  0.77310  0.43330  1.0000 0.1102803403
H   H173      1.0  0.30990  0.57590  0.00210  1.0000 0.1102803403
H   H174      1.0  0.69010  0.07590  0.49790  1.0000 0.1102803403
H   H175      1.0  0.69010  0.42410  0.99790  1.0000 0.1102803403
H   H176      1.0  0.30990  0.92410  0.50210  1.0000 0.1102803403
H   H177      1.0  0.25770  0.67330  0.03320  1.0000 0.1196507493
H   H178      1.0  0.74230  0.17330  0.46680  1.0000 0.1196507493
H   H179      1.0  0.74230  0.32670  0.96680  1.0000 0.1196507493
H   H180      1.0  0.25770  0.82670  0.53320  1.0000 0.1196507493
C   C1        1.0  0.40451  0.58080  0.95251  1.0000 0.2110824584
C   C2        1.0  0.59549  0.08080  0.54749  1.0000 0.2110824584
C   C3        1.0  0.59549  0.41920  0.04749  1.0000 0.2110824584
C   C4        1.0  0.40451  0.91920  0.45251  1.0000 0.2110824584
C   C5        1.0  0.48045  0.59420  0.93935  1.0000 -0.2400512715
C   C6        1.0  0.51955  0.09420  0.56065  1.0000 -0.2400512715
C   C7        1.0  0.51955  0.40580  0.06065  1.0000 -0.2400512715
C   C8        1.0  0.48045  0.90580  0.43935  1.0000 -0.2400512715
C   C9        1.0  0.52128  0.53570  0.92568  1.0000 0.1016843121
C   C10       1.0  0.47872  0.03570  0.57432  1.0000 0.1016843121
C   C11       1.0  0.47872  0.46430  0.07432  1.0000 0.1016843121
C   C12       1.0  0.52128  0.96430  0.42568  1.0000 0.1016843121
C   C13       1.0  0.48484  0.46340  0.92654  1.0000 -0.2400512715
C   C14       1.0  0.51516  0.96340  0.57346  1.0000 -0.2400512715
C   C15       1.0  0.51516  0.53660  0.07346  1.0000 -0.2400512715
C   C16       1.0  0.48484  0.03660  0.42654  1.0000 -0.2400512715
C   C17       1.0  0.41140  0.45330  0.94200  1.0000 0.2110824584
C   C18       1.0  0.58860  0.95330  0.55800  1.0000 0.2110824584
C   C19       1.0  0.58860  0.54670  0.05800  1.0000 0.2110824584
C   C20       1.0  0.41140  0.04670  0.44200  1.0000 0.2110824584
C   C21       1.0  0.37254  0.37820  0.94584  1.0000 0.0423639379
C   C22       1.0  0.62746  0.87820  0.55416  1.0000 0.0423639379
C   C23       1.0  0.62746  0.62180  0.05416  1.0000 0.0423639379
C   C24       1.0  0.37254  0.12180  0.44584  1.0000 0.0423639379
C   C25       1.0  0.42112  0.31170  0.94462  1.0000 -0.1507163259
C   C26       1.0  0.57888  0.81170  0.55538  1.0000 -0.1507163259
C   C27       1.0  0.57888  0.68830  0.05538  1.0000 -0.1507163259
C   C28       1.0  0.42112  0.18830  0.44462  1.0000 -0.1507163259
C   C29       1.0  0.38416  0.24220  0.95016  1.0000 -0.1007175103
C   C30       1.0  0.61584  0.74220  0.54984  1.0000 -0.1007175103
C   C31       1.0  0.61584  0.75780  0.04984  1.0000 -0.1007175103
C   C32       1.0  0.38416  0.25780  0.45016  1.0000 -0.1007175103
C   C33       1.0  0.29818  0.23860  0.95708  1.0000 -0.0295562799
C   C34       1.0  0.70182  0.73860  0.54292  1.0000 -0.0295562799
C   C35       1.0  0.70182  0.76140  0.04292  1.0000 -0.0295562799
C   C36       1.0  0.29818  0.26140  0.45708  1.0000 -0.0295562799
C   C37       1.0  0.24960  0.30410  0.95870  1.0000 -0.0898777955
C   C38       1.0  0.75040  0.80410  0.54130  1.0000 -0.0898777955
C   C39       1.0  0.75040  0.69590  0.04130  1.0000 -0.0898777955
C   C40       1.0  0.24960  0.19590  0.45870  1.0000 -0.0898777955
C   C41       1.0  0.28660  0.37320  0.95300  1.0000 -0.1407880051
C   C42       1.0  0.71340  0.87320  0.54700  1.0000 -0.1407880051
C   C43       1.0  0.71340  0.62680  0.04700  1.0000 -0.1407880051
C   C44       1.0  0.28660  0.12680  0.45300  1.0000 -0.1407880051
C   C45       1.0  0.25966  0.16430  0.96426  1.0000 0.6398578808
C   C46       1.0  0.74034  0.66430  0.53574  1.0000 0.6398578808
C   C47       1.0  0.74034  0.83570  0.03574  1.0000 0.6398578808
C   C48       1.0  0.25966  0.33570  0.46426  1.0000 0.6398578808
C   C49       1.0  0.60030  0.54880  0.91010  1.0000 0.1102803403
C   C50       1.0  0.39970  0.04880  0.58990  1.0000 0.1102803403
C   C51       1.0  0.39970  0.45120  0.08990  1.0000 0.1102803403
C   C52       1.0  0.60030  0.95120  0.41010  1.0000 0.1102803403
C   C53       1.0  0.66667  0.49250  0.91030  1.0000 -0.2087948881
C   C54       1.0  0.33333  0.99250  0.58970  1.0000 -0.2087948881
C   C55       1.0  0.33333  0.50750  0.08970  1.0000 -0.2087948881
C   C56       1.0  0.66667  0.00750  0.41030  1.0000 -0.2087948881
C   C57       1.0  0.73670  0.50750  0.89460  1.0000 0.0810239426
C   C58       1.0  0.26330  0.00750  0.60540  1.0000 0.0810239426
C   C59       1.0  0.26330  0.49250  0.10540  1.0000 0.0810239426
C   C60       1.0  0.73670  0.99250  0.39460  1.0000 0.0810239426
C   C61       1.0  0.68330  0.62820  0.87920  1.0000 0.0619423463
C   C62       1.0  0.31670  0.12820  0.62080  1.0000 0.0619423463
C   C63       1.0  0.31670  0.37180  0.12080  1.0000 0.0619423463
C   C64       1.0  0.68330  0.87180  0.37920  1.0000 0.0619423463
C   C65       1.0  0.61150  0.61820  0.89450  1.0000 -0.2009312977
C   C66       1.0  0.38850  0.11820  0.60550  1.0000 -0.2009312977
C   C67       1.0  0.38850  0.38180  0.10550  1.0000 -0.2009312977
C   C68       1.0  0.61150  0.88180  0.39450  1.0000 -0.2009312977
C   C69       1.0  0.11277  0.86570  0.11367  1.0000 0.6088998541
C   C70       1.0  0.88723  0.36570  0.38633  1.0000 0.6088998541
C   C71       1.0  0.88723  0.13430  0.88633  1.0000 0.6088998541
C   C72       1.0  0.11277  0.63430  0.61367  1.0000 0.6088998541
C   C73       1.0  0.05931  0.82520  0.13611  1.0000 -0.0217539585
C   C74       1.0  0.94069  0.32520  0.36389  1.0000 -0.0217539585
C   C75       1.0  0.94069  0.17480  0.86389  1.0000 -0.0217539585
C   C76       1.0  0.05931  0.67480  0.63611  1.0000 -0.0217539585
C   C77       1.0  0.95885  0.84030  0.12515  1.0000 -0.1007175103
C   C78       1.0  0.04115  0.34030  0.37485  1.0000 -0.1007175103
C   C79       1.0  0.04115  0.15970  0.87485  1.0000 -0.1007175103
C   C80       1.0  0.95885  0.65970  0.62515  1.0000 -0.1007175103
C   C81       1.0  0.90816  0.80260  0.14516  1.0000 -0.1507163259
C   C82       1.0  0.09184  0.30260  0.35484  1.0000 -0.1507163259
C   C83       1.0  0.09184  0.19740  0.85484  1.0000 -0.1507163259
C   C84       1.0  0.90816  0.69740  0.64516  1.0000 -0.1507163259
C   C85       1.0  0.95580  0.74910  0.17570  1.0000 0.0485246265
C   C86       1.0  0.04420  0.24910  0.32430  1.0000 0.0485246265
C   C87       1.0  0.04420  0.25090  0.82430  1.0000 0.0485246265
C   C88       1.0  0.95580  0.75090  0.67570  1.0000 0.0485246265
C   C89       1.0  0.05780  0.73580  0.18690  1.0000 -0.1320570583
C   C90       1.0  0.94220  0.23580  0.31310  1.0000 -0.1320570583
C   C91       1.0  0.94220  0.26420  0.81310  1.0000 -0.1320570583
C   C92       1.0  0.05780  0.76420  0.68690  1.0000 -0.1320570583
C   C93       1.0  0.10854  0.77330  0.16694  1.0000 -0.1007175103
C   C94       1.0  0.89146  0.27330  0.33306  1.0000 -0.1007175103
C   C95       1.0  0.89146  0.22670  0.83306  1.0000 -0.1007175103
C   C96       1.0  0.10854  0.72670  0.66694  1.0000 -0.1007175103
C   C97       1.0  0.90043  0.70790  0.19663  1.0000 0.2110824584
C   C98       1.0  0.09957  0.20790  0.30337  1.0000 0.2110824584
C   C99       1.0  0.09957  0.29210  0.80337  1.0000 0.2110824584
C   C100      1.0  0.90043  0.79210  0.69663  1.0000 0.2110824584
C   C101      1.0  0.79713  0.70300  0.17833  1.0000 -0.2245319337
C   C102      1.0  0.20287  0.20300  0.32167  1.0000 -0.2245319337
C   C103      1.0  0.20287  0.29700  0.82167  1.0000 -0.2245319337
C   C104      1.0  0.79713  0.79700  0.67833  1.0000 -0.2245319337
C   C105      1.0  0.74739  0.66680  0.19939  1.0000 0.1196507493
C   C106      1.0  0.25261  0.16680  0.30061  1.0000 0.1196507493
C   C107      1.0  0.25261  0.33320  0.80061  1.0000 0.1196507493
C   C108      1.0  0.74739  0.83320  0.69939  1.0000 0.1196507493
C   C109      1.0  0.80508  0.63370  0.23748  1.0000 -0.2245319337
C   C110      1.0  0.19492  0.13370  0.26252  1.0000 -0.2245319337
C   C111      1.0  0.19492  0.36630  0.76252  1.0000 -0.2245319337
C   C112      1.0  0.80508  0.86630  0.73748  1.0000 -0.2245319337
C   C113      1.0  0.90915  0.63910  0.25365  1.0000 0.2110824584
C   C114      1.0  0.09085  0.13910  0.24635  1.0000 0.2110824584
C   C115      1.0  0.09085  0.36090  0.74635  1.0000 0.2110824584
C   C116      1.0  0.90915  0.86090  0.75365  1.0000 0.2110824584
C   C117      1.0  0.97540  0.60740  0.29550  1.0000 0.0485246265
C   C118      1.0  0.02460  0.10740  0.20450  1.0000 0.0485246265
C   C119      1.0  0.02460  0.39260  0.70450  1.0000 0.0485246265
C   C120      1.0  0.97540  0.89260  0.79550  1.0000 0.0485246265
C   C121      1.0  0.93724  0.56070  0.31734  1.0000 -0.1507163259
C   C122      1.0  0.06276  0.06070  0.18266  1.0000 -0.1507163259
C   C123      1.0  0.06276  0.43930  0.68266  1.0000 -0.1507163259
C   C124      1.0  0.93724  0.93930  0.81734  1.0000 -0.1507163259
C   C125      1.0  0.99931  0.53520  0.35731  1.0000 -0.1007175103
C   C126      1.0  0.00069  0.03520  0.14269  1.0000 -0.1007175103
C   C127      1.0  0.00069  0.46480  0.64269  1.0000 -0.1007175103
C   C128      1.0  0.99931  0.96480  0.85731  1.0000 -0.1007175103
C   C129      1.0  0.09850  0.55600  0.37620  1.0000 -0.041276386
C   C130      1.0  0.90150  0.05600  0.12380  1.0000 -0.041276386
C   C131      1.0  0.90150  0.44400  0.62380  1.0000 -0.041276386
C   C132      1.0  0.09850  0.94400  0.87620  1.0000 -0.041276386
C   C133      1.0  0.13731  0.60170  0.35391  1.0000 -0.1007175103
C   C134      1.0  0.86269  0.10170  0.14609  1.0000 -0.1007175103
C   C135      1.0  0.86269  0.39830  0.64609  1.0000 -0.1007175103
C   C136      1.0  0.13731  0.89830  0.85391  1.0000 -0.1007175103
C   C137      1.0  0.07629  0.62750  0.31469  1.0000 -0.1320570583
C   C138      1.0  0.92371  0.12750  0.18531  1.0000 -0.1320570583
C   C139      1.0  0.92371  0.37250  0.68531  1.0000 -0.1320570583
C   C140      1.0  0.07629  0.87250  0.81469  1.0000 -0.1320570583
C   C141      1.0  0.16426  0.53160  0.41936  1.0000 0.6340501233
C   C142      1.0  0.83574  0.03160  0.08064  1.0000 0.6340501233
C   C143      1.0  0.83574  0.46840  0.58064  1.0000 0.6340501233
C   C144      1.0  0.16426  0.96840  0.91936  1.0000 0.6340501233
C   C145      1.0  0.63637  0.66650  0.18207  1.0000 0.1102803403
C   C146      1.0  0.36363  0.16650  0.31793  1.0000 0.1102803403
C   C147      1.0  0.36363  0.33350  0.81793  1.0000 0.1102803403
C   C148      1.0  0.63637  0.83350  0.68207  1.0000 0.1102803403
C   C149      1.0  0.58450  0.61190  0.19340  1.0000 -0.2009312977
C   C150      1.0  0.41550  0.11190  0.30660  1.0000 -0.2009312977
C   C151      1.0  0.41550  0.38810  0.80660  1.0000 -0.2009312977
C   C152      1.0  0.58450  0.88810  0.69340  1.0000 -0.2009312977
C   C153      1.0  0.48090  0.61510  0.17750  1.0000 0.0659209713
C   C154      1.0  0.51910  0.11510  0.32250  1.0000 0.0659209713
C   C155      1.0  0.51910  0.38490  0.82250  1.0000 0.0659209713
C   C156      1.0  0.48090  0.88490  0.67750  1.0000 0.0659209713
C   C157      1.0  0.47500  0.71880  0.14000  1.0000 0.0917357924
C   C158      1.0  0.52500  0.21880  0.36000  1.0000 0.0917357924
C   C159      1.0  0.52500  0.28120  0.86000  1.0000 0.0917357924
C   C160      1.0  0.47500  0.78120  0.64000  1.0000 0.0917357924
C   C161      1.0  0.57909  0.72030  0.15499  1.0000 -0.2009312977
C   C162      1.0  0.42091  0.22030  0.34501  1.0000 -0.2009312977
C   C163      1.0  0.42091  0.27970  0.84501  1.0000 -0.2009312977
C   C164      1.0  0.57909  0.77970  0.65499  1.0000 -0.2009312977
C   C165      1.0  0.46784  0.93380  0.09884  1.0000 0.6398578808
C   C166      1.0  0.53216  0.43380  0.40116  1.0000 0.6398578808
C   C167      1.0  0.53216  0.06620  0.90116  1.0000 0.6398578808
C   C168      1.0  0.46784  0.56620  0.59884  1.0000 0.6398578808
C   C169      1.0  0.56559  0.92630  0.13679  1.0000 -0.0295562799
C   C170      1.0  0.43441  0.42630  0.36321  1.0000 -0.0295562799
C   C171      1.0  0.43441  0.07370  0.86321  1.0000 -0.0295562799
C   C172      1.0  0.56559  0.57370  0.63679  1.0000 -0.0295562799
C   C173      1.0  0.65630  0.93650  0.13390  1.0000 -0.1007175103
C   C174      1.0  0.34370  0.43650  0.36610  1.0000 -0.1007175103
C   C175      1.0  0.34370  0.06350  0.86610  1.0000 -0.1007175103
C   C176      1.0  0.65630  0.56350  0.63390  1.0000 -0.1007175103
C   C177      1.0  0.74538  0.92600  0.16888  1.0000 -0.1507163259
C   C178      1.0  0.25462  0.42600  0.33112  1.0000 -0.1507163259
C   C179      1.0  0.25462  0.07400  0.83112  1.0000 -0.1507163259
C   C180      1.0  0.74538  0.57400  0.66888  1.0000 -0.1507163259
C   C181      1.0  0.74488  0.90410  0.20698  1.0000 0.0423639379
C   C182      1.0  0.25512  0.40410  0.29302  1.0000 0.0423639379
C   C183      1.0  0.25512  0.09590  0.79302  1.0000 0.0423639379
C   C184      1.0  0.74488  0.59590  0.70698  1.0000 0.0423639379
C   C185      1.0  0.65338  0.89560  0.20948  1.0000 -0.1320570583
C   C186      1.0  0.34662  0.39560  0.29052  1.0000 -0.1320570583
C   C187      1.0  0.34662  0.10440  0.79052  1.0000 -0.1320570583
C   C188      1.0  0.65338  0.60440  0.70948  1.0000 -0.1320570583
C   C189      1.0  0.56553  0.90760  0.17473  1.0000 -0.1007175103
C   C190      1.0  0.43447  0.40760  0.32527  1.0000 -0.1007175103
C   C191      1.0  0.43447  0.09240  0.82527  1.0000 -0.1007175103
C   C192      1.0  0.56553  0.59240  0.67473  1.0000 -0.1007175103
C   C193      1.0  0.83880  0.88380  0.24380  1.0000 0.2110824584
C   C194      1.0  0.16120  0.38380  0.25620  1.0000 0.2110824584
C   C195      1.0  0.16120  0.11620  0.75620  1.0000 0.2110824584
C   C196      1.0  0.83880  0.61620  0.74380  1.0000 0.2110824584
C   C197      1.0  0.93295  0.90520  0.24825  1.0000 -0.2295122315
C   C198      1.0  0.06705  0.40520  0.25175  1.0000 -0.2295122315
C   C199      1.0  0.06705  0.09480  0.75175  1.0000 -0.2295122315
C   C200      1.0  0.93295  0.59480  0.74825  1.0000 -0.2295122315
C   C201      1.0  0.01631  0.87990  0.28271  1.0000 0.1196507493
C   C202      1.0  0.98369  0.37990  0.21729  1.0000 0.1196507493
C   C203      1.0  0.98369  0.12010  0.71729  1.0000 0.1196507493
C   C204      1.0  0.01631  0.62010  0.78271  1.0000 0.1196507493
C   C205      1.0  0.00140  0.83390  0.31120  1.0000 -0.2295122315
C   C206      1.0  0.99860  0.33390  0.18880  1.0000 -0.2295122315
C   C207      1.0  0.99860  0.16610  0.68880  1.0000 -0.2295122315
C   C208      1.0  0.00140  0.66610  0.81120  1.0000 -0.2295122315
C   C209      1.0  0.90405  0.81460  0.30515  1.0000 0.2110824584
C   C210      1.0  0.09595  0.31460  0.19485  1.0000 0.2110824584
C   C211      1.0  0.09595  0.18540  0.69485  1.0000 0.2110824584
C   C212      1.0  0.90405  0.68540  0.80515  1.0000 0.2110824584
C   C213      1.0  0.88211  0.76250  0.33351  1.0000 0.0485246265
C   C214      1.0  0.11789  0.26250  0.16649  1.0000 0.0485246265
C   C215      1.0  0.11789  0.23750  0.66649  1.0000 0.0485246265
C   C216      1.0  0.88211  0.73750  0.83351  1.0000 0.0485246265
C   C217      1.0  0.95256  0.74440  0.37316  1.0000 -0.1507163259
C   C218      1.0  0.04744  0.24440  0.12684  1.0000 -0.1507163259
C   C219      1.0  0.04744  0.25560  0.62684  1.0000 -0.1507163259
C   C220      1.0  0.95256  0.75560  0.87316  1.0000 -0.1507163259
C   C221      1.0  0.93347  0.68800  0.39607  1.0000 -0.0898777955
C   C222      1.0  0.06653  0.18800  0.10393  1.0000 -0.0898777955
C   C223      1.0  0.06653  0.31200  0.60393  1.0000 -0.0898777955
C   C224      1.0  0.93347  0.81200  0.89607  1.0000 -0.0898777955
C   C225      1.0  0.84399  0.64860  0.37969  1.0000 -0.041276386
C   C226      1.0  0.15601  0.14860  0.12031  1.0000 -0.041276386
C   C227      1.0  0.15601  0.35140  0.62031  1.0000 -0.041276386
C   C228      1.0  0.84399  0.85140  0.87969  1.0000 -0.041276386
C   C229      1.0  0.77079  0.66890  0.34049  1.0000 -0.1007175103
C   C230      1.0  0.22921  0.16890  0.15951  1.0000 -0.1007175103
C   C231      1.0  0.22921  0.33110  0.65951  1.0000 -0.1007175103
C   C232      1.0  0.77079  0.83110  0.84049  1.0000 -0.1007175103
C   C233      1.0  0.78862  0.72560  0.31812  1.0000 -0.1407880051
C   C234      1.0  0.21138  0.22560  0.18188  1.0000 -0.1407880051
C   C235      1.0  0.21138  0.27440  0.68188  1.0000 -0.1407880051
C   C236      1.0  0.78862  0.77440  0.81812  1.0000 -0.1407880051
C   C237      1.0  0.82767  0.58100  0.40067  1.0000 0.6039131209
C   C238      1.0  0.17233  0.08100  0.09933  1.0000 0.6039131209
C   C239      1.0  0.17233  0.41900  0.59933  1.0000 0.6039131209
C   C240      1.0  0.82767  0.91900  0.90067  1.0000 0.6039131209
C   C241      1.0  0.11830  0.89850  0.28700  1.0000 0.1102803403
C   C242      1.0  0.88170  0.39850  0.21300  1.0000 0.1102803403
C   C243      1.0  0.88170  0.10150  0.71300  1.0000 0.1102803403
C   C244      1.0  0.11830  0.60150  0.78700  1.0000 0.1102803403
C   C245      1.0  0.14050  0.90500  0.25250  1.0000 -0.2009312977
C   C246      1.0  0.85950  0.40500  0.24750  1.0000 -0.2009312977
C   C247      1.0  0.85950  0.09500  0.74750  1.0000 -0.2009312977
C   C248      1.0  0.14050  0.59500  0.75250  1.0000 -0.2009312977
C   C249      1.0  0.23650  0.92120  0.25750  1.0000 0.0659209713
C   C250      1.0  0.76350  0.42120  0.24250  1.0000 0.0659209713
C   C251      1.0  0.76350  0.07880  0.74250  1.0000 0.0659209713
C   C252      1.0  0.23650  0.57880  0.75750  1.0000 0.0659209713
C   C253      1.0  0.29010  0.92850  0.32640  1.0000 0.0810239426
C   C254      1.0  0.70990  0.42850  0.17360  1.0000 0.0810239426
C   C255      1.0  0.70990  0.07150  0.67360  1.0000 0.0810239426
C   C256      1.0  0.29010  0.57150  0.82640  1.0000 0.0810239426
C   C257      1.0  0.19580  0.91110  0.32570  1.0000 -0.2087948881
C   C258      1.0  0.80420  0.41110  0.17430  1.0000 -0.2087948881
C   C259      1.0  0.80420  0.08890  0.67430  1.0000 -0.2087948881
C   C260      1.0  0.19580  0.58890  0.82570  1.0000 -0.2087948881
C   C261      1.0  0.51792  0.10420  0.04912  1.0000 0.500214912
C   C262      1.0  0.48208  0.60420  0.45088  1.0000 0.500214912
C   C263      1.0  0.48208  0.89580  0.95088  1.0000 0.500214912
C   C264      1.0  0.51792  0.39580  0.54912  1.0000 0.500214912
C   C265      1.0  0.26009  0.82100  0.02239  1.0000 0.6088998541
C   C266      1.0  0.73991  0.32100  0.47761  1.0000 0.6088998541
C   C267      1.0  0.73991  0.17900  0.97761  1.0000 0.6088998541
C   C268      1.0  0.26009  0.67900  0.52239  1.0000 0.6088998541
C   C269      1.0  0.28822  0.75840  0.00142  1.0000 -0.0217539585
C   C270      1.0  0.71178  0.25840  0.49858  1.0000 -0.0217539585
C   C271      1.0  0.71178  0.24160  0.99858  1.0000 -0.0217539585
C   C272      1.0  0.28822  0.74160  0.50142  1.0000 -0.0217539585
C   C273      1.0  0.32250  0.77320  0.97110  1.0000 -0.1007175103
C   C274      1.0  0.67750  0.27320  0.52890  1.0000 -0.1007175103
C   C275      1.0  0.67750  0.22680  0.02890  1.0000 -0.1007175103
C   C276      1.0  0.32250  0.72680  0.47110  1.0000 -0.1007175103
C   C277      1.0  0.35800  0.71570  0.95410  1.0000 -0.1507163259
C   C278      1.0  0.64200  0.21570  0.54590  1.0000 -0.1507163259
C   C279      1.0  0.64200  0.28430  0.04590  1.0000 -0.1507163259
C   C280      1.0  0.35800  0.78430  0.45410  1.0000 -0.1507163259
C   C281      1.0  0.35945  0.64220  0.96725  1.0000 0.0485246265
C   C282      1.0  0.64055  0.14220  0.53275  1.0000 0.0485246265
C   C283      1.0  0.64055  0.35780  0.03275  1.0000 0.0485246265
C   C284      1.0  0.35945  0.85780  0.46725  1.0000 0.0485246265
C   C285      1.0  0.31650  0.62670  0.99510  1.0000 -0.1407880051
C   C286      1.0  0.68350  0.12670  0.50490  1.0000 -0.1407880051
C   C287      1.0  0.68350  0.37330  0.00490  1.0000 -0.1407880051
C   C288      1.0  0.31650  0.87330  0.49510  1.0000 -0.1407880051
C   C289      1.0  0.28340  0.68450  0.01300  1.0000 -0.1007175103
C   C290      1.0  0.71660  0.18450  0.48700  1.0000 -0.1007175103
C   C291      1.0  0.71660  0.31550  0.98700  1.0000 -0.1007175103
C   C292      1.0  0.28340  0.81550  0.51300  1.0000 -0.1007175103
N   N1        1.0  0.74720  0.57330  0.87890  1.0000 -0.2693055645
N   N2        1.0  0.25280  0.07330  0.62110  1.0000 -0.2693055645
N   N3        1.0  0.25280  0.42670  0.12110  1.0000 -0.2693055645
N   N4        1.0  0.74720  0.92670  0.37890  1.0000 -0.2693055645
N   N5        1.0  0.37165  0.51160  0.95425  1.0000 -0.3123135642
N   N6        1.0  0.62835  0.01160  0.54575  1.0000 -0.3123135642
N   N7        1.0  0.62835  0.48840  0.04575  1.0000 -0.3123135642
N   N8        1.0  0.37165  0.98840  0.45425  1.0000 -0.3123135642
N   N9        1.0  0.42670  0.66830  0.15110  1.0000 -0.2579617277
N   N10       1.0  0.57330  0.16830  0.34890  1.0000 -0.2579617277
N   N11       1.0  0.57330  0.33170  0.84890  1.0000 -0.2579617277
N   N12       1.0  0.42670  0.83170  0.65110  1.0000 -0.2579617277
N   N13       1.0  0.95694  0.67580  0.23374  1.0000 -0.330231689
N   N14       1.0  0.04306  0.17580  0.26626  1.0000 -0.330231689
N   N15       1.0  0.04306  0.32420  0.76626  1.0000 -0.330231689
N   N16       1.0  0.95694  0.82420  0.73374  1.0000 -0.330231689
N   N17       1.0  0.31230  0.93390  0.29420  1.0000 -0.2693055645
N   N18       1.0  0.68770  0.43390  0.20580  1.0000 -0.2693055645
N   N19       1.0  0.68770  0.06610  0.70580  1.0000 -0.2693055645
N   N20       1.0  0.31230  0.56610  0.79420  1.0000 -0.2693055645
N   N21       1.0  0.82426  0.83950  0.27186  1.0000 -0.330231689
N   N22       1.0  0.17574  0.33950  0.22814  1.0000 -0.330231689
N   N23       1.0  0.17574  0.16050  0.72814  1.0000 -0.330231689
N   N24       1.0  0.82426  0.66050  0.77186  1.0000 -0.330231689
O   O1        1.0  0.30658  0.10669  0.96238  1.0000 -0.6529935077
O   O2        1.0  0.69342  0.60669  0.53762  1.0000 -0.6529935077
O   O3        1.0  0.69342  0.89331  0.03762  1.0000 -0.6529935077
O   O4        1.0  0.30658  0.39331  0.46238  1.0000 -0.6529935077
O   O5        1.0  0.18307  0.16432  0.97187  1.0000 -0.681108065
O   O6        1.0  0.81693  0.66432  0.52813  1.0000 -0.681108065
O   O7        1.0  0.81693  0.83568  0.02813  1.0000 -0.681108065
O   O8        1.0  0.18307  0.33568  0.47187  1.0000 -0.681108065
O   O9        1.0  0.06115  0.89907  0.07915  1.0000 -0.7478827909
O   O10       1.0  0.93885  0.39907  0.42085  1.0000 -0.7478827909
O   O11       1.0  0.93885  0.10093  0.92085  1.0000 -0.7478827909
O   O12       1.0  0.06115  0.60093  0.57915  1.0000 -0.7478827909
O   O13       1.0  0.20657  0.86650  0.12837  1.0000 -0.5828042105
O   O14       1.0  0.79343  0.36650  0.37163  1.0000 -0.5828042105
O   O15       1.0  0.79343  0.13350  0.87163  1.0000 -0.5828042105
O   O16       1.0  0.20657  0.63350  0.62837  1.0000 -0.5828042105
O   O17       1.0  0.25654  0.54672  0.43344  1.0000 -0.6599113122
O   O18       1.0  0.74346  0.04672  0.06656  1.0000 -0.6599113122
O   O19       1.0  0.74346  0.45328  0.56656  1.0000 -0.6599113122
O   O20       1.0  0.25654  0.95328  0.93344  1.0000 -0.6599113122
O   O21       1.0  0.12475  0.49743  0.44055  1.0000 -0.6983529404
O   O22       1.0  0.87525  0.99743  0.05945  1.0000 -0.6983529404
O   O23       1.0  0.87525  0.50257  0.55945  1.0000 -0.6983529404
O   O24       1.0  0.12475  0.00257  0.94055  1.0000 -0.6983529404
O   O25       1.0  0.47243  0.94440  0.06423  1.0000 -0.668698676
O   O26       1.0  0.52757  0.44440  0.43577  1.0000 -0.668698676
O   O27       1.0  0.52757  0.05560  0.93577  1.0000 -0.668698676
O   O28       1.0  0.47243  0.55560  0.56423  1.0000 -0.668698676
O   O29       1.0  0.38883  0.92720  0.10423  1.0000 -0.6599113122
O   O30       1.0  0.61117  0.42720  0.39577  1.0000 -0.6599113122
O   O31       1.0  0.61117  0.07280  0.89577  1.0000 -0.6599113122
O   O32       1.0  0.38883  0.57280  0.60423  1.0000 -0.6599113122
O   O33       1.0  0.75600  0.53770  0.38100  1.0000 -0.5983895735
O   O34       1.0  0.24400  0.03770  0.11900  1.0000 -0.5983895735
O   O35       1.0  0.24400  0.46230  0.61900  1.0000 -0.5983895735
O   O36       1.0  0.75600  0.96230  0.88100  1.0000 -0.5983895735
O   O37       1.0  0.88970  0.56562  0.43810  1.0000 -0.7341055647
O   O38       1.0  0.11030  0.06562  0.06190  1.0000 -0.7341055647
O   O39       1.0  0.11030  0.43438  0.56190  1.0000 -0.7341055647
O   O40       1.0  0.88970  0.93438  0.93810  1.0000 -0.7341055647
O   O41       1.0  0.52677  0.06646  0.02047  1.0000 -0.681108065
O   O42       1.0  0.47323  0.56646  0.47953  1.0000 -0.681108065
O   O43       1.0  0.47323  0.93354  0.97953  1.0000 -0.681108065
O   O44       1.0  0.52677  0.43354  0.52047  1.0000 -0.681108065
O   O45       1.0  0.44001  0.10580  0.05431  1.0000 -0.5236786679
O   O46       1.0  0.55999  0.60580  0.44569  1.0000 -0.5236786679
O   O47       1.0  0.55999  0.89420  0.94569  1.0000 -0.5236786679
O   O48       1.0  0.44001  0.39420  0.55431  1.0000 -0.5236786679
O   O49       1.0  0.25250  0.03735  0.03220  1.0000 -1.2065138296
O   O50       1.0  0.74750  0.53735  0.46780  1.0000 -1.2065138296
O   O51       1.0  0.74750  0.96265  0.96780  1.0000 -1.2065138296
O   O52       1.0  0.25250  0.46265  0.53220  1.0000 -1.2065138296
O   O53       1.0  0.07420  0.94659  0.00600  1.0000 -1.1750086621
O   O54       1.0  0.92580  0.44659  0.49400  1.0000 -1.1750086621
O   O55       1.0  0.92580  0.05341  0.99400  1.0000 -1.1746729687
O   O56       1.0  0.07420  0.55341  0.50600  1.0000 -1.1750086621
O   O57       1.0  0.27073  0.88857  0.01343  1.0000 -0.7050985769
O   O58       1.0  0.72927  0.38857  0.48657  1.0000 -0.7050985769
O   O59       1.0  0.72927  0.11143  0.98657  1.0000 -0.7050985769
O   O60       1.0  0.27073  0.61143  0.51343  1.0000 -0.7050985769
O   O61       1.0  0.22577  0.80730  0.04957  1.0000 -0.6075126902
O   O62       1.0  0.77423  0.30730  0.45043  1.0000 -0.6075126902
O   O63       1.0  0.77423  0.19270  0.95043  1.0000 -0.6075126902
O   O64       1.0  0.22577  0.69270  0.54957  1.0000 -0.6075126902
