# DDEC6 charges by PACMAN v1.1 (https://github.com/mtap-research/PACMAN-charge/)
data_2014[ZnMo][pcu]3[ASR]1
_chemical_formula_sum              "Zn1 Mo1 H18 C14 N4 O2"
_cell_length_a       9.41884
_cell_length_b       9.41884
_cell_length_c       7.07
_cell_angle_alpha    89.1595
_cell_angle_beta     90.8405
_cell_angle_gamma    95.1118

_symmetry_space_group_name_H-M    "P 1"
_symmetry_Int_Tables_number       1

loop_
  _symmetry_equiv_pos_as_xyz
  'x, y, z'

loop_
  _atom_site_type_symbol
  _atom_site_label
  _atom_site_symmetry_multiplicity
  _atom_site_fract_x
  _atom_site_fract_y
  _atom_site_fract_z
  _atom_site_occupancy
  _atom_site_charge
Zn  Zn1       1.0  0.91875  0.91875  0.50000  1.0000 0.7449034011
Mo  Mo1       1.0  0.99928  0.99928  0.00000  1.0000 0.325826869
H   H1        1.0  0.20560  0.83400  0.70330  1.0000 0.1107437244
H   H2        1.0  0.83400  0.20560  0.29670  1.0000 0.1197360268
H   H3        1.0  0.19880  0.74840  0.51490  1.0000 0.1197360268
H   H4        1.0  0.74840  0.19880  0.48510  1.0000 0.1197360268
H   H5        1.0  0.20680  0.09940  0.67140  1.0000 0.0981137013
H   H6        1.0  0.09940  0.20680  0.32860  1.0000 0.0981137013
H   H7        1.0  0.29150  0.12210  0.48230  1.0000 0.1107437244
H   H8        1.0  0.12210  0.29150  0.51770  1.0000 0.1107437244
H   H9        1.0  0.39740  0.86060  0.27500  1.0000 0.1310991203
H   H10       1.0  0.86060  0.39740  0.72500  1.0000 0.1310991203
H   H11       1.0  0.43750  0.85390  0.82840  1.0000 0.1351924097
H   H12       1.0  0.85390  0.43750  0.17160  1.0000 0.1351924097
H   H13       1.0  0.68020  0.90880  0.79890  1.0000 0.1107437244
H   H14       1.0  0.90880  0.68020  0.20110  1.0000 0.1107437244
H   H15       1.0  0.64620  0.90940  0.25530  1.0000 0.1107437244
H   H16       1.0  0.90940  0.64620  0.74470  1.0000 0.1107437244
H   H17       1.0  0.17100  0.94300  0.35490  1.0000 0.2160189008
H   H18       1.0  0.94300  0.17100  0.64510  1.0000 0.2160189008
C   C1        1.0  0.22990  0.83970  0.57050  1.0000 -0.1542266452
C   C2        1.0  0.83970  0.22990  0.42950  1.0000 -0.1542266452
C   C3        1.0  0.39100  0.86400  0.55520  1.0000 0.1197360268
C   C4        1.0  0.86400  0.39100  0.44480  1.0000 0.1197360268
C   C5        1.0  0.19830  0.09470  0.53470  1.0000 -0.1091992775
C   C6        1.0  0.09470  0.19830  0.46530  1.0000 -0.1091992775
C   C7        1.0  0.45280  0.87160  0.38470  1.0000 -0.2253573084
C   C8        1.0  0.87160  0.45280  0.61530  1.0000 -0.2220589314
C   C9        1.0  0.47640  0.86860  0.70880  1.0000 -0.2220589314
C   C10       1.0  0.86860  0.47640  0.29120  1.0000 -0.2220589314
C   C11       1.0  0.62450  0.89550  0.68970  1.0000 0.0781000877
C   C12       1.0  0.89550  0.62450  0.31030  1.0000 0.0781000877
C   C13       1.0  0.60470  0.89690  0.37370  1.0000 0.0781000877
C   C14       1.0  0.89690  0.60470  0.62630  1.0000 0.0781000877
N   N1        1.0  0.15210  0.94770  0.48040  1.0000 -0.2998815322
N   N2        1.0  0.94770  0.15210  0.51960  1.0000 -0.2998815322
N   N3        1.0  0.68830  0.90310  0.52650  1.0000 -0.2094754124
N   N4        1.0  0.90310  0.68830  0.47350  1.0000 -0.2094754124
O   O1        1.0  0.94150  0.89890  0.79850  1.0000 -0.7403826261
O   O2        1.0  0.89890  0.94150  0.20150  1.0000 -0.7403826261
