# DDEC6 charges by PACMAN v1.1 (https://github.com/mtap-research/PACMAN-charge/)
data_2014[Ni][dia]3[ASR]1
_chemical_formula_sum              "Ni4 H48 C56 N8 O20"
_cell_length_a       9.9916
_cell_length_b       16.3601
_cell_length_c       16.5344
_cell_angle_alpha    90
_cell_angle_beta     90
_cell_angle_gamma    90

_symmetry_space_group_name_H-M    "P 1"
_symmetry_Int_Tables_number       1

loop_
  _symmetry_equiv_pos_as_xyz
  'x, y, z'

loop_
  _atom_site_type_symbol
  _atom_site_label
  _atom_site_symmetry_multiplicity
  _atom_site_fract_x
  _atom_site_fract_y
  _atom_site_fract_z
  _atom_site_occupancy
  _atom_site_charge
Ni  Ni1       1.0  0.31089  0.21375  0.54656  1.0000 0.752225154
Ni  Ni2       1.0  0.18911  0.78625  0.04656  1.0000 0.752225154
Ni  Ni3       1.0  0.68911  0.71375  0.95344  1.0000 0.752225154
Ni  Ni4       1.0  0.81089  0.28625  0.45344  1.0000 0.752225154
H   H1        1.0  0.43090  0.26110  0.30330  1.0000 0.1482316861
H   H2        1.0  0.06910  0.73890  0.80330  1.0000 0.1482316861
H   H3        1.0  0.56910  0.76110  0.19670  1.0000 0.1482316861
H   H4        1.0  0.93090  0.23890  0.69670  1.0000 0.1482316861
H   H5        1.0  0.39830  0.34470  0.34960  1.0000 0.140464236
H   H6        1.0  0.10170  0.65530  0.84960  1.0000 0.140464236
H   H7        1.0  0.60170  0.84470  0.15040  1.0000 0.140464236
H   H8        1.0  0.89830  0.15530  0.65040  1.0000 0.140464236
H   H9        1.0  0.20170  0.26500  0.34080  1.0000 0.0897033047
H   H10       1.0  0.29830  0.73500  0.84080  1.0000 0.0897033047
H   H11       1.0  0.79830  0.76500  0.15920  1.0000 0.0897033047
H   H12       1.0  0.70170  0.23500  0.65920  1.0000 0.0897033047
H   H13       1.0  0.13500  0.29550  0.46500  1.0000 0.3398730689
H   H14       1.0  0.36500  0.70450  0.96500  1.0000 0.3398730689
H   H15       1.0  0.86500  0.79550  0.03500  1.0000 0.3398730689
H   H16       1.0  0.63500  0.20450  0.53500  1.0000 0.3398730689
H   H17       1.0  0.76720  0.62070  0.80050  1.0000 0.1172753372
H   H18       1.0  0.73280  0.37930  0.30050  1.0000 0.1172753372
H   H19       1.0  0.23280  0.12070  0.69950  1.0000 0.1172753372
H   H20       1.0  0.26720  0.87930  0.19950  1.0000 0.1172753372
H   H21       1.0  0.67570  0.52910  0.70920  1.0000 0.140464236
H   H22       1.0  0.82430  0.47090  0.20920  1.0000 0.140464236
H   H23       1.0  0.32430  0.02910  0.79080  1.0000 0.140464236
H   H24       1.0  0.17570  0.97090  0.29080  1.0000 0.140464236
H   H25       1.0  0.36810  0.49300  0.86600  1.0000 0.1294881338
H   H26       1.0  0.13190  0.50700  0.36600  1.0000 0.1294881338
H   H27       1.0  0.63190  0.99300  0.63400  1.0000 0.1294881338
H   H28       1.0  0.86810  0.00700  0.13400  1.0000 0.1294881338
H   H29       1.0  0.45830  0.59330  0.94680  1.0000 0.1172753372
H   H30       1.0  0.04170  0.40670  0.44680  1.0000 0.1172753372
H   H31       1.0  0.54170  0.09330  0.55320  1.0000 0.1172753372
H   H32       1.0  0.95830  0.90670  0.05320  1.0000 0.1172753372
H   H33       1.0  0.36230  0.36840  0.80520  1.0000 0.1294881338
H   H34       1.0  0.13770  0.63160  0.30520  1.0000 0.1294881338
H   H35       1.0  0.63770  0.86840  0.69480  1.0000 0.1294881338
H   H36       1.0  0.86230  0.13160  0.19480  1.0000 0.1294881338
H   H37       1.0  0.28170  0.27210  0.72170  1.0000 0.1082944786
H   H38       1.0  0.21830  0.72790  0.22170  1.0000 0.1082944786
H   H39       1.0  0.71830  0.77210  0.77830  1.0000 0.1082944786
H   H40       1.0  0.78170  0.22790  0.27830  1.0000 0.1082944786
H   H41       1.0  0.43170  0.38180  0.53590  1.0000 0.1172753372
H   H42       1.0  0.06830  0.61820  0.03590  1.0000 0.1172753372
H   H43       1.0  0.56830  0.88180  0.96410  1.0000 0.1172753372
H   H44       1.0  0.93170  0.11820  0.46410  1.0000 0.1172753372
H   H45       1.0  0.51640  0.48860  0.61700  1.0000 0.140464236
H   H46       1.0  0.98360  0.51140  0.11700  1.0000 0.140464236
H   H47       1.0  0.48360  0.98860  0.88300  1.0000 0.140464236
H   H48       1.0  0.01640  0.01140  0.38300  1.0000 0.140464236
C   C1        1.0  0.51680  0.26620  0.41740  1.0000 0.6551414662
C   C2        1.0  0.98320  0.73380  0.91740  1.0000 0.6551414662
C   C3        1.0  0.48320  0.76620  0.08260  1.0000 0.6551414662
C   C4        1.0  0.01680  0.23380  0.58260  1.0000 0.6551414662
C   C5        1.0  0.40610  0.28470  0.35630  1.0000 -0.3788495055
C   C6        1.0  0.09390  0.71530  0.85630  1.0000 -0.3788495055
C   C7        1.0  0.59390  0.78470  0.14370  1.0000 -0.3788495055
C   C8        1.0  0.90610  0.21530  0.64370  1.0000 -0.3788495055
C   C9        1.0  0.26970  0.25000  0.38260  1.0000 0.048049123
C   C10       1.0  0.23030  0.75000  0.88260  1.0000 0.048049123
C   C11       1.0  0.73030  0.75000  0.11740  1.0000 0.048049123
C   C12       1.0  0.76970  0.25000  0.61740  1.0000 0.048049123
C   C13       1.0  0.27120  0.15980  0.39090  1.0000 0.5228717261
C   C14       1.0  0.22880  0.84020  0.89090  1.0000 0.5228717261
C   C15       1.0  0.72880  0.65980  0.10910  1.0000 0.5228717261
C   C16       1.0  0.77120  0.34020  0.60910  1.0000 0.5228717261
C   C17       1.0  0.68080  0.59880  0.81080  1.0000 0.0720356488
C   C18       1.0  0.81920  0.40120  0.31080  1.0000 0.0720356488
C   C19       1.0  0.31920  0.09880  0.68920  1.0000 0.0720356488
C   C20       1.0  0.18080  0.90120  0.18920  1.0000 0.0720356488
C   C21       1.0  0.62970  0.54150  0.75800  1.0000 -0.1771092481
C   C22       1.0  0.87030  0.45850  0.25800  1.0000 -0.1771092481
C   C23       1.0  0.37030  0.04150  0.74200  1.0000 -0.1771092481
C   C24       1.0  0.12970  0.95850  0.24200  1.0000 -0.1771092481
C   C25       1.0  0.50600  0.50050  0.77720  1.0000 0.1172753372
C   C26       1.0  0.99400  0.49950  0.27720  1.0000 0.1172753372
C   C27       1.0  0.49400  0.00050  0.72280  1.0000 0.1172753372
C   C28       1.0  0.00600  0.99950  0.22280  1.0000 0.1172753372
C   C29       1.0  0.44680  0.52070  0.84900  1.0000 -0.1960790335
C   C30       1.0  0.05320  0.47930  0.34900  1.0000 -0.1960790335
C   C31       1.0  0.55320  0.02070  0.65100  1.0000 -0.1960790335
C   C32       1.0  0.94680  0.97930  0.15100  1.0000 -0.1960790335
C   C33       1.0  0.50140  0.58150  0.89690  1.0000 0.0897033047
C   C34       1.0  0.99860  0.41850  0.39690  1.0000 0.0897033047
C   C35       1.0  0.49860  0.08150  0.60310  1.0000 0.0897033047
C   C36       1.0  0.00140  0.91850  0.10310  1.0000 0.0897033047
C   C37       1.0  0.45160  0.43630  0.72240  1.0000 0.1082944786
C   C38       1.0  0.04840  0.56370  0.22240  1.0000 0.1082944786
C   C39       1.0  0.54840  0.93630  0.77760  1.0000 0.1082944786
C   C40       1.0  0.95160  0.06370  0.27760  1.0000 0.1082944786
C   C41       1.0  0.38100  0.37250  0.74900  1.0000 -0.1895279242
C   C42       1.0  0.11900  0.62750  0.24900  1.0000 -0.1895279242
C   C43       1.0  0.61900  0.87250  0.75100  1.0000 -0.1895279242
C   C44       1.0  0.88100  0.12750  0.25100  1.0000 -0.1895279242
C   C45       1.0  0.33580  0.31420  0.69940  1.0000 0.0807816246
C   C46       1.0  0.16420  0.68580  0.19940  1.0000 0.0807816246
C   C47       1.0  0.66420  0.81420  0.80060  1.0000 0.0807816246
C   C48       1.0  0.83580  0.18580  0.30060  1.0000 0.0807816246
C   C49       1.0  0.42160  0.37790  0.59290  1.0000 0.0976459914
C   C50       1.0  0.07840  0.62210  0.09290  1.0000 0.0976459914
C   C51       1.0  0.57840  0.87790  0.90710  1.0000 0.0976459914
C   C52       1.0  0.92160  0.12210  0.40710  1.0000 0.0976459914
C   C53       1.0  0.47170  0.44310  0.64030  1.0000 -0.1740209675
C   C54       1.0  0.02830  0.55690  0.14030  1.0000 -0.1740209675
C   C55       1.0  0.52830  0.94310  0.85970  1.0000 -0.1740209675
C   C56       1.0  0.97170  0.05690  0.35970  1.0000 -0.1740209675
N   N1        1.0  0.61200  0.62550  0.87770  1.0000 -0.2369983113
N   N2        1.0  0.88800  0.37450  0.37770  1.0000 -0.2369983113
N   N3        1.0  0.38800  0.12550  0.62230  1.0000 -0.2369983113
N   N4        1.0  0.11200  0.87450  0.12230  1.0000 -0.2369983113
N   N5        1.0  0.36160  0.31190  0.62190  1.0000 -0.2214350319
N   N6        1.0  0.13840  0.68810  0.12190  1.0000 -0.2214350319
N   N7        1.0  0.63840  0.81190  0.87810  1.0000 -0.2214350319
N   N8        1.0  0.86160  0.18810  0.37810  1.0000 -0.2214350319
O   O1        1.0  0.49250  0.23130  0.48410  1.0000 -0.5627145535
O   O2        1.0  0.00750  0.76870  0.98410  1.0000 -0.5627145535
O   O3        1.0  0.50750  0.73130  0.01590  1.0000 -0.5627145535
O   O4        1.0  0.99250  0.26870  0.51590  1.0000 -0.5627145535
O   O5        1.0  0.62930  0.29200  0.39440  1.0000 -0.5697235233
O   O6        1.0  0.87070  0.70800  0.89440  1.0000 -0.5697235233
O   O7        1.0  0.37070  0.79200  0.10560  1.0000 -0.5697235233
O   O8        1.0  0.12930  0.20800  0.60560  1.0000 -0.5697235233
O   O9        1.0  0.23480  0.29150  0.45830  1.0000 -0.5033011502
O   O10       1.0  0.26520  0.70850  0.95830  1.0000 -0.5033011502
O   O11       1.0  0.76520  0.79150  0.04170  1.0000 -0.5033011502
O   O12       1.0  0.73480  0.20850  0.54170  1.0000 -0.5033011502
O   O13       1.0  0.28590  0.11820  0.32950  1.0000 -0.5262810653
O   O14       1.0  0.21410  0.88180  0.82950  1.0000 -0.5262810653
O   O15       1.0  0.71410  0.61820  0.17050  1.0000 -0.5262810653
O   O16       1.0  0.78590  0.38180  0.67050  1.0000 -0.5262810653
O   O17       1.0  0.26180  0.12970  0.46120  1.0000 -0.5262810653
O   O18       1.0  0.23820  0.87030  0.96120  1.0000 -0.5262810653
O   O19       1.0  0.73820  0.62970  0.03880  1.0000 -0.5262810653
O   O20       1.0  0.76180  0.37030  0.53880  1.0000 -0.5262810653
