# DDEC6 charges by PACMAN v1.1 (https://github.com/mtap-research/PACMAN-charge/)
data_2014[Cu][nan]3[ASR]28
_chemical_formula_sum              "Cu12 H120 C216 O48"
_cell_length_a       23.3177
_cell_length_b       23.3177
_cell_length_c       23.3177
_cell_angle_alpha    109.471
_cell_angle_beta     109.471
_cell_angle_gamma    109.471

_symmetry_space_group_name_H-M    "P 1"
_symmetry_Int_Tables_number       1

loop_
  _symmetry_equiv_pos_as_xyz
  'x, y, z'

loop_
  _atom_site_type_symbol
  _atom_site_label
  _atom_site_symmetry_multiplicity
  _atom_site_fract_x
  _atom_site_fract_y
  _atom_site_fract_z
  _atom_site_occupancy
  _atom_site_charge
Cu  Cu1       1.0  0.14413  0.64413  0.50000  1.0000 0.8333250247
Cu  Cu2       1.0  0.50000  0.14413  0.64413  1.0000 0.8333250247
Cu  Cu3       1.0  0.64413  0.50000  0.14413  1.0000 0.8333250247
Cu  Cu4       1.0  0.35587  0.50000  0.85587  1.0000 0.8333250247
Cu  Cu5       1.0  0.50000  0.85587  0.35587  1.0000 0.8333250247
Cu  Cu6       1.0  0.85587  0.35587  0.50000  1.0000 0.8333250247
Cu  Cu7       1.0  0.24070  0.74070  0.50000  1.0000 0.8672749363
Cu  Cu8       1.0  0.50000  0.24070  0.74070  1.0000 0.8672749363
Cu  Cu9       1.0  0.74070  0.50000  0.24070  1.0000 0.8672749363
Cu  Cu10      1.0  0.25930  0.50000  0.75930  1.0000 0.8672749363
Cu  Cu11      1.0  0.50000  0.75930  0.25930  1.0000 0.8672749363
Cu  Cu12      1.0  0.75930  0.25930  0.50000  1.0000 0.8672749363
H   H1        1.0  0.21650  0.49210  0.47160  1.0000 0.1262876802
H   H2        1.0  0.47160  0.21650  0.49210  1.0000 0.1262876802
H   H3        1.0  0.49210  0.47160  0.21650  1.0000 0.1262876802
H   H4        1.0  0.25510  0.27560  0.78350  1.0000 0.1262876802
H   H5        1.0  0.52840  0.02050  0.74490  1.0000 0.1262876802
H   H6        1.0  0.74490  0.52840  0.02050  1.0000 0.1262876802
H   H7        1.0  0.72440  0.97950  0.50790  1.0000 0.1262876802
H   H8        1.0  0.27560  0.78350  0.25510  1.0000 0.1262876802
H   H9        1.0  0.50790  0.72440  0.97950  1.0000 0.1262876802
H   H10       1.0  0.02050  0.74490  0.52840  1.0000 0.1262876802
H   H11       1.0  0.78350  0.25510  0.27560  1.0000 0.1262876802
H   H12       1.0  0.97950  0.50790  0.72440  1.0000 0.1262876802
H   H13       1.0  0.78350  0.50790  0.52840  1.0000 0.1262876802
H   H14       1.0  0.52840  0.78350  0.50790  1.0000 0.1262876802
H   H15       1.0  0.50790  0.52840  0.78350  1.0000 0.1262876802
H   H16       1.0  0.74490  0.72440  0.21650  1.0000 0.1262876802
H   H17       1.0  0.47160  0.97950  0.25510  1.0000 0.1262876802
H   H18       1.0  0.25510  0.47160  0.97950  1.0000 0.1262876802
H   H19       1.0  0.27560  0.02050  0.49210  1.0000 0.1262876802
H   H20       1.0  0.72440  0.21650  0.74490  1.0000 0.1262876802
H   H21       1.0  0.49210  0.27560  0.02050  1.0000 0.1262876802
H   H22       1.0  0.97950  0.25510  0.47160  1.0000 0.1262876802
H   H23       1.0  0.21650  0.74490  0.72440  1.0000 0.1262876802
H   H24       1.0  0.02050  0.49210  0.27560  1.0000 0.1262876802
H   H25       1.0  0.40790  0.57780  0.44190  1.0000 0.1128007845
H   H26       1.0  0.44190  0.40790  0.57780  1.0000 0.1128007845
H   H27       1.0  0.57780  0.44190  0.40790  1.0000 0.1128007845
H   H28       1.0  0.03400  0.16990  0.59210  1.0000 0.1128007845
H   H29       1.0  0.55810  0.13590  0.96600  1.0000 0.1128007845
H   H30       1.0  0.96600  0.55810  0.13590  1.0000 0.1128007845
H   H31       1.0  0.83010  0.86410  0.42220  1.0000 0.1128007845
H   H32       1.0  0.16990  0.59210  0.03400  1.0000 0.1128007845
H   H33       1.0  0.42220  0.83010  0.86410  1.0000 0.1128007845
H   H34       1.0  0.13590  0.96600  0.55810  1.0000 0.1128007845
H   H35       1.0  0.59210  0.03400  0.16990  1.0000 0.1128007845
H   H36       1.0  0.86410  0.42220  0.83010  1.0000 0.1128007845
H   H37       1.0  0.59210  0.42220  0.55810  1.0000 0.1128007845
H   H38       1.0  0.55810  0.59210  0.42220  1.0000 0.1128007845
H   H39       1.0  0.42220  0.55810  0.59210  1.0000 0.1128007845
H   H40       1.0  0.96600  0.83010  0.40790  1.0000 0.1128007845
H   H41       1.0  0.44190  0.86410  0.03400  1.0000 0.1128007845
H   H42       1.0  0.03400  0.44190  0.86410  1.0000 0.1128007845
H   H43       1.0  0.16990  0.13590  0.57780  1.0000 0.1128007845
H   H44       1.0  0.83010  0.40790  0.96600  1.0000 0.1128007845
H   H45       1.0  0.57780  0.16990  0.13590  1.0000 0.1128007845
H   H46       1.0  0.86410  0.03400  0.44190  1.0000 0.1128007845
H   H47       1.0  0.40790  0.96600  0.83010  1.0000 0.1128007845
H   H48       1.0  0.13590  0.57780  0.16990  1.0000 0.1128007845
H   H49       1.0  0.26580  0.42140  0.44380  1.0000 0.1185296002
H   H50       1.0  0.44380  0.26580  0.42140  1.0000 0.1185296002
H   H51       1.0  0.42140  0.44380  0.26580  1.0000 0.1185296002
H   H52       1.0  0.17800  0.15560  0.73420  1.0000 0.1185296002
H   H53       1.0  0.55620  0.97760  0.82200  1.0000 0.1185296002
H   H54       1.0  0.82200  0.55620  0.97760  1.0000 0.1185296002
H   H55       1.0  0.84440  0.02240  0.57860  1.0000 0.1185296002
H   H56       1.0  0.15560  0.73420  0.17800  1.0000 0.1185296002
H   H57       1.0  0.57860  0.84440  0.02240  1.0000 0.1185296002
H   H58       1.0  0.97760  0.82200  0.55620  1.0000 0.1185296002
H   H59       1.0  0.73420  0.17800  0.15560  1.0000 0.1185296002
H   H60       1.0  0.02240  0.57860  0.84440  1.0000 0.1185296002
H   H61       1.0  0.73420  0.57860  0.55620  1.0000 0.1185296002
H   H62       1.0  0.55620  0.73420  0.57860  1.0000 0.1185296002
H   H63       1.0  0.57860  0.55620  0.73420  1.0000 0.1185296002
H   H64       1.0  0.82200  0.84440  0.26580  1.0000 0.1185296002
H   H65       1.0  0.44380  0.02240  0.17800  1.0000 0.1185296002
H   H66       1.0  0.17800  0.44380  0.02240  1.0000 0.1185296002
H   H67       1.0  0.15560  0.97760  0.42140  1.0000 0.1185296002
H   H68       1.0  0.84440  0.26580  0.82200  1.0000 0.1185296002
H   H69       1.0  0.42140  0.15560  0.97760  1.0000 0.1185296002
H   H70       1.0  0.02240  0.17800  0.44380  1.0000 0.1185296002
H   H71       1.0  0.26580  0.82200  0.84440  1.0000 0.1185296002
H   H72       1.0  0.97760  0.42140  0.15560  1.0000 0.1185296002
H   H73       1.0  0.36110  0.64670  0.47500  1.0000 0.1262876802
H   H74       1.0  0.47500  0.36110  0.64670  1.0000 0.1262876802
H   H75       1.0  0.64670  0.47500  0.36110  1.0000 0.1262876802
H   H76       1.0  0.11390  0.28560  0.63890  1.0000 0.1262876802
H   H77       1.0  0.52500  0.17170  0.88610  1.0000 0.1262876802
H   H78       1.0  0.88610  0.52500  0.17170  1.0000 0.1262876802
H   H79       1.0  0.71440  0.82830  0.35330  1.0000 0.1262876802
H   H80       1.0  0.28560  0.63890  0.11390  1.0000 0.1262876802
H   H81       1.0  0.35330  0.71440  0.82830  1.0000 0.1262876802
H   H82       1.0  0.17170  0.88610  0.52500  1.0000 0.1262876802
H   H83       1.0  0.63890  0.11390  0.28560  1.0000 0.1262876802
H   H84       1.0  0.82830  0.35330  0.71440  1.0000 0.1262876802
H   H85       1.0  0.63890  0.35330  0.52500  1.0000 0.1262876802
H   H86       1.0  0.52500  0.63890  0.35330  1.0000 0.1262876802
H   H87       1.0  0.35330  0.52500  0.63890  1.0000 0.1262876802
H   H88       1.0  0.88610  0.71440  0.36110  1.0000 0.1262876802
H   H89       1.0  0.47500  0.82830  0.11390  1.0000 0.1262876802
H   H90       1.0  0.11390  0.47500  0.82830  1.0000 0.1262876802
H   H91       1.0  0.28560  0.17170  0.64670  1.0000 0.1262876802
H   H92       1.0  0.71440  0.36110  0.88610  1.0000 0.1262876802
H   H93       1.0  0.64670  0.28560  0.17170  1.0000 0.1262876802
H   H94       1.0  0.82830  0.11390  0.47500  1.0000 0.1262876802
H   H95       1.0  0.36110  0.88610  0.71440  1.0000 0.1262876802
H   H96       1.0  0.17170  0.64670  0.28560  1.0000 0.1262876802
H   H97       1.0  0.40510  0.48360  0.36370  1.0000 0.1128007845
H   H98       1.0  0.36370  0.40510  0.48360  1.0000 0.1128007845
H   H99       1.0  0.48360  0.36370  0.40510  1.0000 0.1128007845
H   H100      1.0  0.95860  0.07850  0.59490  1.0000 0.1128007845
H   H101      1.0  0.63630  0.11990  0.04140  1.0000 0.1128007845
H   H102      1.0  0.04140  0.63630  0.11990  1.0000 0.1128007845
H   H103      1.0  0.92150  0.88010  0.51640  1.0000 0.1128007845
H   H104      1.0  0.07850  0.59490  0.95860  1.0000 0.1128007845
H   H105      1.0  0.51640  0.92150  0.88010  1.0000 0.1128007845
H   H106      1.0  0.11990  0.04140  0.63630  1.0000 0.1128007845
H   H107      1.0  0.59490  0.95860  0.07850  1.0000 0.1128007845
H   H108      1.0  0.88010  0.51640  0.92150  1.0000 0.1128007845
H   H109      1.0  0.59490  0.51640  0.63630  1.0000 0.1128007845
H   H110      1.0  0.63630  0.59490  0.51640  1.0000 0.1128007845
H   H111      1.0  0.51640  0.63630  0.59490  1.0000 0.1128007845
H   H112      1.0  0.04140  0.92150  0.40510  1.0000 0.1128007845
H   H113      1.0  0.36370  0.88010  0.95860  1.0000 0.1128007845
H   H114      1.0  0.95860  0.36370  0.88010  1.0000 0.1128007845
H   H115      1.0  0.07850  0.11990  0.48360  1.0000 0.1128007845
H   H116      1.0  0.92150  0.40510  0.04140  1.0000 0.1128007845
H   H117      1.0  0.48360  0.07850  0.11990  1.0000 0.1128007845
H   H118      1.0  0.88010  0.95860  0.36370  1.0000 0.1128007845
H   H119      1.0  0.40510  0.04140  0.92150  1.0000 0.1128007845
H   H120      1.0  0.11990  0.48360  0.07850  1.0000 0.1128007845
C   C1        1.0  0.34170  0.49100  0.43870  1.0000 0.0786174955
C   C2        1.0  0.43870  0.34170  0.49100  1.0000 0.0786174955
C   C3        1.0  0.49100  0.43870  0.34170  1.0000 0.0786174955
C   C4        1.0  0.09700  0.14930  0.65830  1.0000 0.0786174955
C   C5        1.0  0.56130  0.05230  0.90300  1.0000 0.0786174955
C   C6        1.0  0.90300  0.56130  0.05230  1.0000 0.0786174955
C   C7        1.0  0.85070  0.94770  0.50900  1.0000 0.0786174955
C   C8        1.0  0.14930  0.65830  0.09700  1.0000 0.0786174955
C   C9        1.0  0.50900  0.85070  0.94770  1.0000 0.0786174955
C   C10       1.0  0.05230  0.90300  0.56130  1.0000 0.0786174955
C   C11       1.0  0.65830  0.09700  0.14930  1.0000 0.0786174955
C   C12       1.0  0.94770  0.50900  0.85070  1.0000 0.0786174955
C   C13       1.0  0.65830  0.50900  0.56130  1.0000 0.0786174955
C   C14       1.0  0.56130  0.65830  0.50900  1.0000 0.0786174955
C   C15       1.0  0.50900  0.56130  0.65830  1.0000 0.0786174955
C   C16       1.0  0.90300  0.85070  0.34170  1.0000 0.0786174955
C   C17       1.0  0.43870  0.94770  0.09700  1.0000 0.0786174955
C   C18       1.0  0.09700  0.43870  0.94770  1.0000 0.0786174955
C   C19       1.0  0.14930  0.05230  0.49100  1.0000 0.0786174955
C   C20       1.0  0.85070  0.34170  0.90300  1.0000 0.0786174955
C   C21       1.0  0.49100  0.14930  0.05230  1.0000 0.0786174955
C   C22       1.0  0.94770  0.09700  0.43870  1.0000 0.0786174955
C   C23       1.0  0.34170  0.90300  0.85070  1.0000 0.0786174955
C   C24       1.0  0.05230  0.49100  0.14930  1.0000 0.0786174955
C   C25       1.0  0.25200  0.62060  0.49260  1.0000 0.5843701561
C   C26       1.0  0.49260  0.25200  0.62060  1.0000 0.5857165836
C   C27       1.0  0.62060  0.49260  0.25200  1.0000 0.5843701561
C   C28       1.0  0.24060  0.36860  0.74800  1.0000 0.5843701561
C   C29       1.0  0.50740  0.12800  0.75940  1.0000 0.5857165836
C   C30       1.0  0.75940  0.50740  0.12800  1.0000 0.5843701561
C   C31       1.0  0.63140  0.87200  0.37940  1.0000 0.5843701561
C   C32       1.0  0.36860  0.74800  0.24060  1.0000 0.5843701561
C   C33       1.0  0.37940  0.63140  0.87200  1.0000 0.5843701561
C   C34       1.0  0.12800  0.75940  0.50740  1.0000 0.5843701561
C   C35       1.0  0.74800  0.24060  0.36860  1.0000 0.5857165836
C   C36       1.0  0.87200  0.37940  0.63140  1.0000 0.5857165836
C   C37       1.0  0.74800  0.37940  0.50740  1.0000 0.5843701561
C   C38       1.0  0.50740  0.74800  0.37940  1.0000 0.5843701561
C   C39       1.0  0.37940  0.50740  0.74800  1.0000 0.5843701561
C   C40       1.0  0.75940  0.63140  0.25200  1.0000 0.5843701561
C   C41       1.0  0.49260  0.87200  0.24060  1.0000 0.5843701561
C   C42       1.0  0.24060  0.49260  0.87200  1.0000 0.5857165836
C   C43       1.0  0.36860  0.12800  0.62060  1.0000 0.5843701561
C   C44       1.0  0.63140  0.25200  0.75940  1.0000 0.5843701561
C   C45       1.0  0.62060  0.36860  0.12800  1.0000 0.5843701561
C   C46       1.0  0.87200  0.24060  0.49260  1.0000 0.5843701561
C   C47       1.0  0.25200  0.75940  0.63140  1.0000 0.5843701561
C   C48       1.0  0.12800  0.62060  0.36860  1.0000 0.5843701561
C   C49       1.0  0.25550  0.50910  0.46640  1.0000 -0.0873902626
C   C50       1.0  0.46640  0.25550  0.50910  1.0000 -0.0873902626
C   C51       1.0  0.50910  0.46640  0.25550  1.0000 -0.0873902626
C   C52       1.0  0.21090  0.25360  0.74450  1.0000 -0.0873902626
C   C53       1.0  0.53360  0.04270  0.78910  1.0000 -0.0873902626
C   C54       1.0  0.78910  0.53360  0.04270  1.0000 -0.0873902626
C   C55       1.0  0.74640  0.95730  0.49090  1.0000 -0.0873902626
C   C56       1.0  0.25360  0.74450  0.21090  1.0000 -0.0873902626
C   C57       1.0  0.49090  0.74640  0.95730  1.0000 -0.0873902626
C   C58       1.0  0.04270  0.78910  0.53360  1.0000 -0.0873902626
C   C59       1.0  0.74450  0.21090  0.25360  1.0000 -0.0873902626
C   C60       1.0  0.95730  0.49090  0.74640  1.0000 -0.0873902626
C   C61       1.0  0.74450  0.49090  0.53360  1.0000 -0.0873902626
C   C62       1.0  0.53360  0.74450  0.49090  1.0000 -0.0873902626
C   C63       1.0  0.49090  0.53360  0.74450  1.0000 -0.0873902626
C   C64       1.0  0.78910  0.74640  0.25550  1.0000 -0.0873902626
C   C65       1.0  0.46640  0.95730  0.21090  1.0000 -0.0873902626
C   C66       1.0  0.21090  0.46640  0.95730  1.0000 -0.0873902626
C   C67       1.0  0.25360  0.04270  0.50910  1.0000 -0.0873902626
C   C68       1.0  0.74640  0.25550  0.78910  1.0000 -0.0873902626
C   C69       1.0  0.50910  0.25360  0.04270  1.0000 -0.0873902626
C   C70       1.0  0.95730  0.21090  0.46640  1.0000 -0.0873902626
C   C71       1.0  0.25550  0.78910  0.74640  1.0000 -0.0873902626
C   C72       1.0  0.04270  0.50910  0.25360  1.0000 -0.0873902626
C   C73       1.0  0.37000  0.56030  0.44850  1.0000 -0.1622355934
C   C74       1.0  0.44850  0.37000  0.56030  1.0000 -0.1622355934
C   C75       1.0  0.56030  0.44850  0.37000  1.0000 -0.1622355934
C   C76       1.0  0.07850  0.19030  0.63000  1.0000 -0.1622355934
C   C77       1.0  0.55150  0.11180  0.92150  1.0000 -0.1622355934
C   C78       1.0  0.92150  0.55150  0.11180  1.0000 -0.1622355934
C   C79       1.0  0.80970  0.88820  0.43970  1.0000 -0.1622355934
C   C80       1.0  0.19030  0.63000  0.07850  1.0000 -0.1622355934
C   C81       1.0  0.43970  0.80970  0.88820  1.0000 -0.1622355934
C   C82       1.0  0.11180  0.92150  0.55150  1.0000 -0.1622355934
C   C83       1.0  0.63000  0.07850  0.19030  1.0000 -0.1622355934
C   C84       1.0  0.88820  0.43970  0.80970  1.0000 -0.1622355934
C   C85       1.0  0.63000  0.43970  0.55150  1.0000 -0.1622355934
C   C86       1.0  0.55150  0.63000  0.43970  1.0000 -0.1622355934
C   C87       1.0  0.43970  0.55150  0.63000  1.0000 -0.1622355934
C   C88       1.0  0.92150  0.80970  0.37000  1.0000 -0.1622355934
C   C89       1.0  0.44850  0.88820  0.07850  1.0000 -0.1622355934
C   C90       1.0  0.07850  0.44850  0.88820  1.0000 -0.1622355934
C   C91       1.0  0.19030  0.11180  0.56030  1.0000 -0.1622355934
C   C92       1.0  0.80970  0.37000  0.92150  1.0000 -0.1622355934
C   C93       1.0  0.56030  0.19030  0.11180  1.0000 -0.1622355934
C   C94       1.0  0.88820  0.07850  0.44850  1.0000 -0.1622355934
C   C95       1.0  0.37000  0.92150  0.80970  1.0000 -0.1622355934
C   C96       1.0  0.11180  0.56030  0.19030  1.0000 -0.1622355934
C   C97       1.0  0.28460  0.46590  0.44870  1.0000 -0.1691716971
C   C98       1.0  0.44870  0.28460  0.46590  1.0000 -0.1691716971
C   C99       1.0  0.46590  0.44870  0.28460  1.0000 -0.1691716971
C   C100      1.0  0.16410  0.18130  0.71540  1.0000 -0.1691716971
C   C101      1.0  0.55130  0.01720  0.83590  1.0000 -0.1691716971
C   C102      1.0  0.83590  0.55130  0.01720  1.0000 -0.1691716971
C   C103      1.0  0.81870  0.98280  0.53410  1.0000 -0.1691716971
C   C104      1.0  0.18130  0.71540  0.16410  1.0000 -0.1691716971
C   C105      1.0  0.53410  0.81870  0.98280  1.0000 -0.1691716971
C   C106      1.0  0.01720  0.83590  0.55130  1.0000 -0.1691716971
C   C107      1.0  0.71540  0.16410  0.18130  1.0000 -0.1691716971
C   C108      1.0  0.98280  0.53410  0.81870  1.0000 -0.1691716971
C   C109      1.0  0.71540  0.53410  0.55130  1.0000 -0.1691716971
C   C110      1.0  0.55130  0.71540  0.53410  1.0000 -0.1691716971
C   C111      1.0  0.53410  0.55130  0.71540  1.0000 -0.1691716971
C   C112      1.0  0.83590  0.81870  0.28460  1.0000 -0.1691716971
C   C113      1.0  0.44870  0.98280  0.16410  1.0000 -0.1691716971
C   C114      1.0  0.16410  0.44870  0.98280  1.0000 -0.1691716971
C   C115      1.0  0.18130  0.01720  0.46590  1.0000 -0.1691716971
C   C116      1.0  0.81870  0.28460  0.83590  1.0000 -0.1691716971
C   C117      1.0  0.46590  0.18130  0.01720  1.0000 -0.1691716971
C   C118      1.0  0.98280  0.16410  0.44870  1.0000 -0.1691716971
C   C119      1.0  0.28460  0.83590  0.81870  1.0000 -0.1691716971
C   C120      1.0  0.01720  0.46590  0.18130  1.0000 -0.1691716971
C   C121      1.0  0.34140  0.60120  0.46760  1.0000 -0.0873902626
C   C122      1.0  0.46760  0.34140  0.60120  1.0000 -0.0873902626
C   C123      1.0  0.60120  0.46760  0.34140  1.0000 -0.0873902626
C   C124      1.0  0.12620  0.25980  0.65860  1.0000 -0.0873902626
C   C125      1.0  0.53240  0.13360  0.87380  1.0000 -0.0873902626
C   C126      1.0  0.87380  0.53240  0.13360  1.0000 -0.0873902626
C   C127      1.0  0.74020  0.86640  0.39880  1.0000 -0.0873902626
C   C128      1.0  0.25980  0.65860  0.12620  1.0000 -0.0873902626
C   C129      1.0  0.39880  0.74020  0.86640  1.0000 -0.0873902626
C   C130      1.0  0.13360  0.87380  0.53240  1.0000 -0.0873902626
C   C131      1.0  0.65860  0.12620  0.25980  1.0000 -0.0873902626
C   C132      1.0  0.86640  0.39880  0.74020  1.0000 -0.0873902626
C   C133      1.0  0.65860  0.39880  0.53240  1.0000 -0.0873902626
C   C134      1.0  0.53240  0.65860  0.39880  1.0000 -0.0873902626
C   C135      1.0  0.39880  0.53240  0.65860  1.0000 -0.0873902626
C   C136      1.0  0.87380  0.74020  0.34140  1.0000 -0.0873902626
C   C137      1.0  0.46760  0.86640  0.12620  1.0000 -0.0873902626
C   C138      1.0  0.12620  0.46760  0.86640  1.0000 -0.0873902626
C   C139      1.0  0.25980  0.13360  0.60120  1.0000 -0.0873902626
C   C140      1.0  0.74020  0.34140  0.87380  1.0000 -0.0873902626
C   C141      1.0  0.60120  0.25980  0.13360  1.0000 -0.0873902626
C   C142      1.0  0.86640  0.12620  0.46760  1.0000 -0.0873902626
C   C143      1.0  0.34140  0.87380  0.74020  1.0000 -0.0873902626
C   C144      1.0  0.13360  0.60120  0.25980  1.0000 -0.0873902626
C   C145      1.0  0.41060  0.45760  0.38580  1.0000 -0.1951823271
C   C146      1.0  0.38580  0.41060  0.45760  1.0000 -0.1951823271
C   C147      1.0  0.45760  0.38580  0.41060  1.0000 -0.1951823271
C   C148      1.0  0.97520  0.04700  0.58940  1.0000 -0.1944003825
C   C149      1.0  0.61420  0.07180  0.02480  1.0000 -0.1944003825
C   C150      1.0  0.02480  0.61420  0.07180  1.0000 -0.1951823271
C   C151      1.0  0.95300  0.92820  0.54240  1.0000 -0.1944003825
C   C152      1.0  0.04700  0.58940  0.97520  1.0000 -0.1951823271
C   C153      1.0  0.54240  0.95300  0.92820  1.0000 -0.1944003825
C   C154      1.0  0.07180  0.02480  0.61420  1.0000 -0.1944003825
C   C155      1.0  0.58940  0.97520  0.04700  1.0000 -0.1944003825
C   C156      1.0  0.92820  0.54240  0.95300  1.0000 -0.1944003825
C   C157      1.0  0.58940  0.54240  0.61420  1.0000 -0.1944003825
C   C158      1.0  0.61420  0.58940  0.54240  1.0000 -0.1951823271
C   C159      1.0  0.54240  0.61420  0.58940  1.0000 -0.1951823271
C   C160      1.0  0.02480  0.95300  0.41060  1.0000 -0.1951823271
C   C161      1.0  0.38580  0.92820  0.97520  1.0000 -0.1944003825
C   C162      1.0  0.97520  0.38580  0.92820  1.0000 -0.1944003825
C   C163      1.0  0.04700  0.07180  0.45760  1.0000 -0.1951823271
C   C164      1.0  0.95300  0.41060  0.02480  1.0000 -0.1944003825
C   C165      1.0  0.45760  0.04700  0.07180  1.0000 -0.1951823271
C   C166      1.0  0.92820  0.97520  0.38580  1.0000 -0.1944003825
C   C167      1.0  0.41060  0.02480  0.95300  1.0000 -0.1951823271
C   C168      1.0  0.07180  0.45760  0.04700  1.0000 -0.1951823271
C   C169      1.0  0.28410  0.57610  0.47600  1.0000 -0.0399783421
C   C170      1.0  0.47600  0.28410  0.57610  1.0000 -0.0399783421
C   C171      1.0  0.57610  0.47600  0.28410  1.0000 -0.0399783421
C   C172      1.0  0.19190  0.29200  0.71590  1.0000 -0.0399783421
C   C173      1.0  0.52400  0.10010  0.80810  1.0000 -0.0399783421
C   C174      1.0  0.80810  0.52400  0.10010  1.0000 -0.0399783421
C   C175      1.0  0.70800  0.89990  0.42390  1.0000 -0.0399783421
C   C176      1.0  0.29200  0.71590  0.19190  1.0000 -0.0399783421
C   C177      1.0  0.42390  0.70800  0.89990  1.0000 -0.0399783421
C   C178      1.0  0.10010  0.80810  0.52400  1.0000 -0.0399783421
C   C179      1.0  0.71590  0.19190  0.29200  1.0000 -0.0399783421
C   C180      1.0  0.89990  0.42390  0.70800  1.0000 -0.0399783421
C   C181      1.0  0.71590  0.42390  0.52400  1.0000 -0.0399783421
C   C182      1.0  0.52400  0.71590  0.42390  1.0000 -0.0399783421
C   C183      1.0  0.42390  0.52400  0.71590  1.0000 -0.0399783421
C   C184      1.0  0.80810  0.70800  0.28410  1.0000 -0.0399783421
C   C185      1.0  0.47600  0.89990  0.19190  1.0000 -0.0399783421
C   C186      1.0  0.19190  0.47600  0.89990  1.0000 -0.0399783421
C   C187      1.0  0.29200  0.10010  0.57610  1.0000 -0.0399783421
C   C188      1.0  0.70800  0.28410  0.80810  1.0000 -0.0399783421
C   C189      1.0  0.57610  0.29200  0.10010  1.0000 -0.0399783421
C   C190      1.0  0.89990  0.19190  0.47600  1.0000 -0.0399783421
C   C191      1.0  0.28410  0.80810  0.70800  1.0000 -0.0399783421
C   C192      1.0  0.10010  0.57610  0.29200  1.0000 -0.0399783421
C   C193      1.0  0.37860  0.45100  0.42580  1.0000 0.0786174955
C   C194      1.0  0.42580  0.37860  0.45100  1.0000 0.0786174955
C   C195      1.0  0.45100  0.42580  0.37860  1.0000 0.0786174955
C   C196      1.0  0.04720  0.07240  0.62140  1.0000 0.0786174955
C   C197      1.0  0.57420  0.02520  0.95280  1.0000 0.0786174955
C   C198      1.0  0.95280  0.57420  0.02520  1.0000 0.0786174955
C   C199      1.0  0.92760  0.97480  0.54900  1.0000 0.0786174955
C   C200      1.0  0.07240  0.62140  0.04720  1.0000 0.0786174955
C   C201      1.0  0.54900  0.92760  0.97480  1.0000 0.0786174955
C   C202      1.0  0.02520  0.95280  0.57420  1.0000 0.0786174955
C   C203      1.0  0.62140  0.04720  0.07240  1.0000 0.0786174955
C   C204      1.0  0.97480  0.54900  0.92760  1.0000 0.0786174955
C   C205      1.0  0.62140  0.54900  0.57420  1.0000 0.0786174955
C   C206      1.0  0.57420  0.62140  0.54900  1.0000 0.0786174955
C   C207      1.0  0.54900  0.57420  0.62140  1.0000 0.0786174955
C   C208      1.0  0.95280  0.92760  0.37860  1.0000 0.0786174955
C   C209      1.0  0.42580  0.97480  0.04720  1.0000 0.0786174955
C   C210      1.0  0.04720  0.42580  0.97480  1.0000 0.0786174955
C   C211      1.0  0.07240  0.02520  0.45100  1.0000 0.0786174955
C   C212      1.0  0.92760  0.37860  0.95280  1.0000 0.0786174955
C   C213      1.0  0.45100  0.07240  0.02520  1.0000 0.0786174955
C   C214      1.0  0.97480  0.04720  0.42580  1.0000 0.0786174955
C   C215      1.0  0.37860  0.95280  0.92760  1.0000 0.0786174955
C   C216      1.0  0.02520  0.45100  0.07240  1.0000 0.0786174955
O   O1        1.0  0.19915  0.59626  0.49781  1.0000 -0.4938636484
O   O2        1.0  0.49781  0.19915  0.59626  1.0000 -0.4938636484
O   O3        1.0  0.59626  0.49781  0.19915  1.0000 -0.4938636484
O   O4        1.0  0.29866  0.39711  0.80085  1.0000 -0.4938636484
O   O5        1.0  0.50219  0.09845  0.70134  1.0000 -0.4938636484
O   O6        1.0  0.70134  0.50219  0.09845  1.0000 -0.4938636484
O   O7        1.0  0.60289  0.90155  0.40374  1.0000 -0.4938636484
O   O8        1.0  0.39711  0.80085  0.29866  1.0000 -0.4938636484
O   O9        1.0  0.40374  0.60289  0.90155  1.0000 -0.4938636484
O   O10       1.0  0.09845  0.70134  0.50219  1.0000 -0.4938636484
O   O11       1.0  0.80085  0.29866  0.39711  1.0000 -0.4938636484
O   O12       1.0  0.90155  0.40374  0.60289  1.0000 -0.4938636484
O   O13       1.0  0.80085  0.40374  0.50219  1.0000 -0.4938636484
O   O14       1.0  0.50219  0.80085  0.40374  1.0000 -0.4938636484
O   O15       1.0  0.40374  0.50219  0.80085  1.0000 -0.4938636484
O   O16       1.0  0.70134  0.60289  0.19915  1.0000 -0.4938636484
O   O17       1.0  0.49781  0.90155  0.29866  1.0000 -0.4938636484
O   O18       1.0  0.29866  0.49781  0.90155  1.0000 -0.4938636484
O   O19       1.0  0.39711  0.09845  0.59626  1.0000 -0.4938636484
O   O20       1.0  0.60289  0.19915  0.70134  1.0000 -0.4938636484
O   O21       1.0  0.59626  0.39711  0.09845  1.0000 -0.4938636484
O   O22       1.0  0.90155  0.29866  0.49781  1.0000 -0.4938636484
O   O23       1.0  0.19915  0.70134  0.60289  1.0000 -0.4938636484
O   O24       1.0  0.09845  0.59626  0.39711  1.0000 -0.4938636484
O   O25       1.0  0.27990  0.67970  0.49740  1.0000 -0.5289210118
O   O26       1.0  0.49740  0.27990  0.67970  1.0000 -0.5289210118
O   O27       1.0  0.67970  0.49740  0.27990  1.0000 -0.5289210118
O   O28       1.0  0.21750  0.39980  0.72010  1.0000 -0.5289210118
O   O29       1.0  0.50260  0.18230  0.78250  1.0000 -0.5289210118
O   O30       1.0  0.78250  0.50260  0.18230  1.0000 -0.5289210118
O   O31       1.0  0.60020  0.81770  0.32030  1.0000 -0.5289210118
O   O32       1.0  0.39980  0.72010  0.21750  1.0000 -0.5289210118
O   O33       1.0  0.32030  0.60020  0.81770  1.0000 -0.5289210118
O   O34       1.0  0.18230  0.78250  0.50260  1.0000 -0.5289210118
O   O35       1.0  0.72010  0.21750  0.39980  1.0000 -0.5289210118
O   O36       1.0  0.81770  0.32030  0.60020  1.0000 -0.5289210118
O   O37       1.0  0.72010  0.32030  0.50260  1.0000 -0.5289210118
O   O38       1.0  0.50260  0.72010  0.32030  1.0000 -0.5289210118
O   O39       1.0  0.32030  0.50260  0.72010  1.0000 -0.5289210118
O   O40       1.0  0.78250  0.60020  0.27990  1.0000 -0.5289210118
O   O41       1.0  0.49740  0.81770  0.21750  1.0000 -0.5289210118
O   O42       1.0  0.21750  0.49740  0.81770  1.0000 -0.5289210118
O   O43       1.0  0.39980  0.18230  0.67970  1.0000 -0.5289210118
O   O44       1.0  0.60020  0.27990  0.78250  1.0000 -0.5289210118
O   O45       1.0  0.67970  0.39980  0.18230  1.0000 -0.5289210118
O   O46       1.0  0.81770  0.21750  0.49740  1.0000 -0.5289210118
O   O47       1.0  0.27990  0.78250  0.60020  1.0000 -0.5289210118
O   O48       1.0  0.18230  0.67970  0.39980  1.0000 -0.5289210118
