# DDEC6 charges by PACMAN v1.1 (https://github.com/mtap-research/PACMAN-charge/)
data_2014[Zn][sra]3[ASR]3
_chemical_formula_sum              "Zn4 H12 C36 O24"
_cell_length_a       9.2987
_cell_length_b       16.67
_cell_length_c       12.2287
_cell_angle_alpha    90
_cell_angle_beta     117.672
_cell_angle_gamma    90

_symmetry_space_group_name_H-M    "P 1"
_symmetry_Int_Tables_number       1

loop_
  _symmetry_equiv_pos_as_xyz
  'x, y, z'

loop_
  _atom_site_type_symbol
  _atom_site_label
  _atom_site_symmetry_multiplicity
  _atom_site_fract_x
  _atom_site_fract_y
  _atom_site_fract_z
  _atom_site_occupancy
  _atom_site_charge
Zn  Zn1       1.0  0.66142  0.09336  0.04015  1.0000 0.9565357938
Zn  Zn2       1.0  0.33858  0.59336  0.45985  1.0000 0.9565357938
Zn  Zn3       1.0  0.33858  0.90664  0.95985  1.0000 0.9565357938
Zn  Zn4       1.0  0.66142  0.40664  0.54015  1.0000 0.9565357938
H   H1        1.0  0.84470  0.94620  0.86700  1.0000 0.1382355317
H   H2        1.0  0.15530  0.44620  0.63300  1.0000 0.1382355317
H   H3        1.0  0.15530  0.05380  0.13300  1.0000 0.1382355317
H   H4        1.0  0.84470  0.55380  0.36700  1.0000 0.1382355317
H   H5        1.0  0.42080  0.82910  0.71390  1.0000 0.1382355317
H   H6        1.0  0.57920  0.32910  0.78610  1.0000 0.1382355317
H   H7        1.0  0.57920  0.17090  0.28610  1.0000 0.1382355317
H   H8        1.0  0.42080  0.67090  0.21390  1.0000 0.1382355317
H   H9        1.0  0.78040  0.75880  0.64380  1.0000 0.1277408078
H   H10       1.0  0.21960  0.25880  0.85620  1.0000 0.1277408078
H   H11       1.0  0.21960  0.24120  0.35620  1.0000 0.1277408078
H   H12       1.0  0.78040  0.74120  0.14380  1.0000 0.1277408078
C   C1        1.0  0.77970  0.90540  0.81640  1.0000 -0.0977956439
C   C2        1.0  0.22030  0.40540  0.68360  1.0000 -0.0977956439
C   C3        1.0  0.22030  0.09460  0.18360  1.0000 -0.0977956439
C   C4        1.0  0.77970  0.59460  0.31640  1.0000 -0.0977956439
C   C5        1.0  0.62190  0.89710  0.79960  1.0000 -0.0170589654
C   C6        1.0  0.37810  0.39710  0.70040  1.0000 -0.0170589654
C   C7        1.0  0.37810  0.10290  0.20040  1.0000 -0.0170589654
C   C8        1.0  0.62190  0.60290  0.29960  1.0000 -0.0170589654
C   C9        1.0  0.55970  0.95400  0.86310  1.0000 0.5917231962
C   C10       1.0  0.44030  0.45400  0.63690  1.0000 0.5917231962
C   C11       1.0  0.44030  0.04600  0.13690  1.0000 0.5917231962
C   C12       1.0  0.55970  0.54600  0.36310  1.0000 0.5917231962
C   C13       1.0  0.58640  0.78330  0.66830  1.0000 0.0030640473
C   C14       1.0  0.41360  0.28330  0.83170  1.0000 0.0030640473
C   C15       1.0  0.41360  0.21670  0.33170  1.0000 0.0030640473
C   C16       1.0  0.58640  0.71670  0.16830  1.0000 0.0030640473
C   C17       1.0  0.01470  0.86450  0.78110  1.0000 0.5427331254
C   C18       1.0  0.98530  0.36450  0.71890  1.0000 0.5427331254
C   C19       1.0  0.98530  0.13550  0.21890  1.0000 0.5427331254
C   C20       1.0  0.01470  0.63550  0.28110  1.0000 0.5427331254
C   C21       1.0  0.52630  0.83550  0.72550  1.0000 -0.0939032995
C   C22       1.0  0.47370  0.33550  0.77450  1.0000 -0.0939032995
C   C23       1.0  0.47370  0.16450  0.27450  1.0000 -0.0939032995
C   C24       1.0  0.52630  0.66450  0.22550  1.0000 -0.0939032995
C   C25       1.0  0.74130  0.79310  0.68380  1.0000 -0.0977956439
C   C26       1.0  0.25870  0.29310  0.81620  1.0000 -0.0977956439
C   C27       1.0  0.25870  0.20690  0.31620  1.0000 -0.0977956439
C   C28       1.0  0.74130  0.70690  0.18380  1.0000 -0.0977956439
C   C29       1.0  0.84190  0.85500  0.76010  1.0000 -0.0084454717
C   C30       1.0  0.15810  0.35500  0.73990  1.0000 -0.0084454717
C   C31       1.0  0.15810  0.14500  0.23990  1.0000 -0.0084454717
C   C32       1.0  0.84190  0.64500  0.26010  1.0000 -0.0084454717
C   C33       1.0  0.48160  0.71450  0.58930  1.0000 0.5177119895
C   C34       1.0  0.51840  0.21450  0.91070  1.0000 0.5177119895
C   C35       1.0  0.51840  0.28550  0.41070  1.0000 0.5177119895
C   C36       1.0  0.48160  0.78550  0.08930  1.0000 0.5177119895
O   O1        1.0  0.10310  0.90850  0.87160  1.0000 -0.4800559272
O   O2        1.0  0.89690  0.40850  0.62840  1.0000 -0.4740987793
O   O3        1.0  0.89690  0.09150  0.12840  1.0000 -0.4800559272
O   O4        1.0  0.10310  0.59150  0.37160  1.0000 -0.4800559272
O   O5        1.0  0.65840  0.00500  0.93160  1.0000 -0.4800559272
O   O6        1.0  0.34160  0.50500  0.56840  1.0000 -0.4800559272
O   O7        1.0  0.34160  0.99500  0.06840  1.0000 -0.4800559272
O   O8        1.0  0.65840  0.49500  0.43160  1.0000 -0.4800559272
O   O9        1.0  0.41520  0.94680  0.84310  1.0000 -0.5034103469
O   O10       1.0  0.58480  0.44680  0.65690  1.0000 -0.5034103469
O   O11       1.0  0.58480  0.05320  0.15690  1.0000 -0.5034103469
O   O12       1.0  0.41520  0.55320  0.34310  1.0000 -0.5034103469
O   O13       1.0  0.54450  0.66440  0.55250  1.0000 -0.4426123277
O   O14       1.0  0.45550  0.16440  0.94750  1.0000 -0.4426123277
O   O15       1.0  0.45550  0.33560  0.44750  1.0000 -0.4426123277
O   O16       1.0  0.54450  0.83560  0.05250  1.0000 -0.4426123277
O   O17       1.0  0.33830  0.71100  0.56480  1.0000 -0.4092302546
O   O18       1.0  0.66170  0.21100  0.93520  1.0000 -0.4092302546
O   O19       1.0  0.66170  0.28900  0.43520  1.0000 -0.4092302546
O   O20       1.0  0.33830  0.78900  0.06480  1.0000 -0.4092302546
O   O21       1.0  0.06030  0.82840  0.71530  1.0000 -0.3878867701
O   O22       1.0  0.93970  0.32840  0.78470  1.0000 -0.3878867701
O   O23       1.0  0.93970  0.17160  0.28470  1.0000 -0.3847616986
O   O24       1.0  0.06030  0.67160  0.21530  1.0000 -0.3878867701
