# DDEC6 charges by PACMAN v1.1 (https://github.com/mtap-research/PACMAN-charge/)
data_2014[U][nan]3[ASR]1
_chemical_formula_sum              "U4 P8 H16 C24 O32 F4"
_cell_length_a       15.052
_cell_length_b       8.147
_cell_length_c       19.4853
_cell_angle_alpha    90
_cell_angle_beta     126.021
_cell_angle_gamma    90

_symmetry_space_group_name_H-M    "P 1"
_symmetry_Int_Tables_number       1

loop_
  _symmetry_equiv_pos_as_xyz
  'x, y, z'

loop_
  _atom_site_type_symbol
  _atom_site_label
  _atom_site_symmetry_multiplicity
  _atom_site_fract_x
  _atom_site_fract_y
  _atom_site_fract_z
  _atom_site_occupancy
  _atom_site_charge
U   U1        1.0  0.94591  0.13198  0.74193  1.0000 2.4483227467
U   U2        1.0  0.05409  0.63198  0.75807  1.0000 2.4437234139
U   U3        1.0  0.05409  0.86802  0.25807  1.0000 2.4437234139
U   U4        1.0  0.94591  0.36802  0.24193  1.0000 2.4483227467
P   P1        1.0  0.68487  0.98500  0.70074  1.0000 1.3093068039
P   P2        1.0  0.31513  0.48500  0.79926  1.0000 1.3093068039
P   P3        1.0  0.31513  0.01500  0.29926  1.0000 1.3093068039
P   P4        1.0  0.68487  0.51500  0.20074  1.0000 1.3093068039
P   P5        1.0  0.14403  0.99560  0.70256  1.0000 1.3509587084
P   P6        1.0  0.85597  0.49560  0.79744  1.0000 1.3509587084
P   P7        1.0  0.85597  0.00440  0.29744  1.0000 1.3509587084
P   P8        1.0  0.14403  0.50440  0.20256  1.0000 1.3509587084
H   H1        1.0  0.51780  0.79310  0.64430  1.0000 0.3656582569
H   H2        1.0  0.48220  0.29310  0.85570  1.0000 0.3656582569
H   H3        1.0  0.48220  0.20690  0.35570  1.0000 0.3656582569
H   H4        1.0  0.51780  0.70690  0.14430  1.0000 0.3637155627
H   H5        1.0  0.05670  0.28490  0.63220  1.0000 0.354066584
H   H6        1.0  0.94330  0.78490  0.86780  1.0000 0.354066584
H   H7        1.0  0.94330  0.71510  0.36780  1.0000 0.354066584
H   H8        1.0  0.05670  0.21510  0.13220  1.0000 0.354066584
H   H9        1.0  0.66100  0.14940  0.56260  1.0000 0.1158314978
H   H10       1.0  0.33900  0.64940  0.93740  1.0000 0.1158314978
H   H11       1.0  0.33900  0.85060  0.43740  1.0000 0.1158314978
H   H12       1.0  0.66100  0.35060  0.06260  1.0000 0.1158314978
H   H13       1.0  0.06470  0.75300  0.57370  1.0000 0.152923498
H   H14       1.0  0.93530  0.25300  0.92630  1.0000 0.152923498
H   H15       1.0  0.93530  0.24700  0.42630  1.0000 0.152923498
H   H16       1.0  0.06470  0.74700  0.07370  1.0000 0.152923498
C   C1        1.0  0.57940  0.99350  0.58850  1.0000 -0.2580865065
C   C2        1.0  0.42060  0.49350  0.91150  1.0000 -0.2580865065
C   C3        1.0  0.42060  0.00650  0.41150  1.0000 -0.2580865065
C   C4        1.0  0.57940  0.50650  0.08850  1.0000 -0.2580865065
C   C5        1.0  0.48250  0.90330  0.54890  1.0000 0.2526725268
C   C6        1.0  0.51750  0.40330  0.95110  1.0000 0.2526725268
C   C7        1.0  0.51750  0.09670  0.45110  1.0000 0.2526725268
C   C8        1.0  0.48250  0.59670  0.04890  1.0000 0.2526725268
C   C9        1.0  0.59490  0.08840  0.53730  1.0000 -0.1069283879
C   C10       1.0  0.40510  0.58840  0.96270  1.0000 -0.1069283879
C   C11       1.0  0.40510  0.91160  0.46270  1.0000 -0.1069283879
C   C12       1.0  0.59490  0.41160  0.03730  1.0000 -0.1069283879
C   C13       1.0  0.05860  0.00000  0.58760  1.0000 -0.273901176
C   C14       1.0  0.94140  0.50000  0.91240  1.0000 -0.273901176
C   C15       1.0  0.94140  0.00000  0.41240  1.0000 -0.273901176
C   C16       1.0  0.05860  0.50000  0.08760  1.0000 -0.273901176
C   C17       1.0  0.02070  0.14600  0.54510  1.0000 0.2781025057
C   C18       1.0  0.97930  0.64600  0.95490  1.0000 0.2781025057
C   C19       1.0  0.97930  0.85400  0.45490  1.0000 0.2781025057
C   C20       1.0  0.02070  0.35400  0.04510  1.0000 0.2781025057
C   C21       1.0  0.03830  0.85360  0.54350  1.0000 -0.1371086466
C   C22       1.0  0.96170  0.35360  0.95650  1.0000 -0.1371086466
C   C23       1.0  0.96170  0.14640  0.45650  1.0000 -0.1371086466
C   C24       1.0  0.03830  0.64640  0.04350  1.0000 -0.1371086466
O   O1        1.0  0.79510  0.98740  0.71510  1.0000 -0.8394855971
O   O2        1.0  0.20490  0.48740  0.78490  1.0000 -0.8394855971
O   O3        1.0  0.20490  0.01260  0.28490  1.0000 -0.8394855971
O   O4        1.0  0.79510  0.51260  0.21510  1.0000 -0.8394855971
O   O5        1.0  0.67260  0.14590  0.73980  1.0000 -0.5937043394
O   O6        1.0  0.32740  0.64590  0.76020  1.0000 -0.5937043394
O   O7        1.0  0.32740  0.85410  0.26020  1.0000 -0.5937043394
O   O8        1.0  0.67260  0.35410  0.23980  1.0000 -0.5937043394
O   O9        1.0  0.66150  0.83910  0.73520  1.0000 -0.6039670671
O   O10       1.0  0.33850  0.33910  0.76480  1.0000 -0.6039670671
O   O11       1.0  0.33850  0.16090  0.26480  1.0000 -0.6039670671
O   O12       1.0  0.66150  0.66090  0.23520  1.0000 -0.6039670671
O   O13       1.0  0.46150  0.80030  0.59400  1.0000 -0.4188397641
O   O14       1.0  0.53850  0.30030  0.90600  1.0000 -0.4188397641
O   O15       1.0  0.53850  0.19970  0.40600  1.0000 -0.4188397641
O   O16       1.0  0.46150  0.69970  0.09400  1.0000 -0.4188397641
O   O17       1.0  0.09820  0.11670  0.73330  1.0000 -0.8754554654
O   O18       1.0  0.90180  0.61670  0.76670  1.0000 -0.8754554654
O   O19       1.0  0.90180  0.88330  0.26670  1.0000 -0.8754554654
O   O20       1.0  0.09820  0.38330  0.23330  1.0000 -0.8754554654
O   O21       1.0  0.26180  0.04950  0.73300  1.0000 -0.5351813699
O   O22       1.0  0.73820  0.54950  0.76700  1.0000 -0.5351813699
O   O23       1.0  0.73820  0.95050  0.26700  1.0000 -0.5319525863
O   O24       1.0  0.26180  0.45050  0.23300  1.0000 -0.5351813699
O   O25       1.0  0.15550  0.82000  0.73130  1.0000 -0.8122635747
O   O26       1.0  0.84450  0.32000  0.76870  1.0000 -0.8122635747
O   O27       1.0  0.84450  0.18000  0.26870  1.0000 -0.8122635747
O   O28       1.0  0.15550  0.68000  0.23130  1.0000 -0.8122635747
O   O29       1.0  0.03600  0.29730  0.58200  1.0000 -0.4399288858
O   O30       1.0  0.96400  0.79730  0.91800  1.0000 -0.4399288858
O   O31       1.0  0.96400  0.70270  0.41800  1.0000 -0.4399288858
O   O32       1.0  0.03600  0.20270  0.08200  1.0000 -0.4399288858
F   F1        1.0  0.95460  0.87070  0.70120  1.0000 -0.7354359294
F   F2        1.0  0.04540  0.37070  0.79880  1.0000 -0.7295402949
F   F3        1.0  0.04540  0.12930  0.29880  1.0000 -0.7295402949
F   F4        1.0  0.95460  0.62930  0.20120  1.0000 -0.7295402949
