# DDEC6 charges by PACMAN v1.1 (https://github.com/mtap-research/PACMAN-charge/)
data_2014[La][nan]3[ASR]4
_chemical_formula_sum              "La16 H144 C288 O96"
_cell_length_a       23.193
_cell_length_b       23.193
_cell_length_c       23.193
_cell_angle_alpha    96.9218
_cell_angle_beta     96.9218
_cell_angle_gamma    139.374

_symmetry_space_group_name_H-M    "P 1"
_symmetry_Int_Tables_number       1

loop_
  _symmetry_equiv_pos_as_xyz
  'x, y, z'

loop_
  _atom_site_type_symbol
  _atom_site_label
  _atom_site_symmetry_multiplicity
  _atom_site_fract_x
  _atom_site_fract_y
  _atom_site_fract_z
  _atom_site_occupancy
  _atom_site_charge
La  La1       1.0  0.90657  0.60953  0.75730  1.0000 1.8093181051
La  La2       1.0  0.85223  0.14927  0.24270  1.0000 1.8093181051
La  La3       1.0  0.39927  0.65657  0.79704  1.0000 1.8093181051
La  La4       1.0  0.85953  0.60223  0.20296  1.0000 1.8093181051
La  La5       1.0  0.35223  0.10953  0.70296  1.0000 1.8093181051
La  La6       1.0  0.40657  0.64927  0.29704  1.0000 1.8093181051
La  La7       1.0  0.35953  0.15657  0.25730  1.0000 1.8093181051
La  La8       1.0  0.89927  0.10223  0.74270  1.0000 1.8093181051
La  La9       1.0  0.60495  0.36513  0.71162  1.0000 1.8318479605
La  La10      1.0  0.65351  0.89333  0.28838  1.0000 1.8318479605
La  La11      1.0  0.14333  0.35495  0.73982  1.0000 1.8318479605
La  La12      1.0  0.61513  0.40351  0.26018  1.0000 1.8318479605
La  La13      1.0  0.15351  0.86513  0.76018  1.0000 1.8318479605
La  La14      1.0  0.10495  0.39333  0.23982  1.0000 1.8318479605
La  La15      1.0  0.11513  0.85495  0.21162  1.0000 1.8318479605
La  La16      1.0  0.64333  0.90351  0.78838  1.0000 1.8318479605
H   H1        1.0  0.83280  0.34820  0.71000  1.0000 0.1228306837
H   H2        1.0  0.63820  0.12280  0.29000  1.0000 0.1228306837
H   H3        1.0  0.37280  0.58280  0.98460  1.0000 0.1228306837
H   H4        1.0  0.59820  0.38820  0.01540  1.0000 0.1228306837
H   H5        1.0  0.13820  0.84820  0.51540  1.0000 0.1228306837
H   H6        1.0  0.33280  0.62280  0.48460  1.0000 0.1228306837
H   H7        1.0  0.09820  0.08280  0.21000  1.0000 0.1228306837
H   H8        1.0  0.87280  0.88820  0.79000  1.0000 0.1228306837
H   H9        1.0  0.83790  0.25240  0.70590  1.0000 0.1281549174
H   H10       1.0  0.54650  0.13200  0.29410  1.0000 0.1281549174
H   H11       1.0  0.38200  0.58790  0.08550  1.0000 0.1281549174
H   H12       1.0  0.50240  0.29650  0.91450  1.0000 0.1281549174
H   H13       1.0  0.04650  0.75240  0.41450  1.0000 0.1281549174
H   H14       1.0  0.33790  0.63200  0.58550  1.0000 0.1281549174
H   H15       1.0  0.00240  0.08790  0.20590  1.0000 0.1281549174
H   H16       1.0  0.88200  0.79650  0.79410  1.0000 0.1281549174
H   H17       1.0  0.07210  0.39790  0.88140  1.0000 0.1281549174
H   H18       1.0  0.51650  0.19070  0.11860  1.0000 0.1281549174
H   H19       1.0  0.44070  0.82210  0.17420  1.0000 0.1281549174
H   H20       1.0  0.64790  0.26650  0.82580  1.0000 0.1281549174
H   H21       1.0  0.01650  0.89790  0.32580  1.0000 0.1281549174
H   H22       1.0  0.57210  0.69070  0.67420  1.0000 0.1281549174
H   H23       1.0  0.14790  0.32210  0.38140  1.0000 0.1281549174
H   H24       1.0  0.94070  0.76650  0.61860  1.0000 0.1281549174
H   H25       1.0  0.17380  0.53420  0.96280  1.0000 0.1096830239
H   H26       1.0  0.57140  0.21100  0.03720  1.0000 0.1096830239
H   H27       1.0  0.46100  0.92380  0.13960  1.0000 0.1096830239
H   H28       1.0  0.78420  0.32140  0.86040  1.0000 0.1096830239
H   H29       1.0  0.07140  0.03420  0.36040  1.0000 0.1096830239
H   H30       1.0  0.67380  0.71100  0.63960  1.0000 0.1096830239
H   H31       1.0  0.28420  0.42380  0.46280  1.0000 0.1096830239
H   H32       1.0  0.96100  0.82140  0.53720  1.0000 0.1096830239
H   H33       1.0  0.17800  0.63780  0.96620  1.0000 0.1096830239
H   H34       1.0  0.67160  0.21180  0.03380  1.0000 0.1096830239
H   H35       1.0  0.46180  0.92800  0.04020  1.0000 0.1096830239
H   H36       1.0  0.88780  0.42160  0.95980  1.0000 0.1096830239
H   H37       1.0  0.17160  0.13780  0.45980  1.0000 0.1096830239
H   H38       1.0  0.67800  0.71180  0.54020  1.0000 0.1096830239
H   H39       1.0  0.38780  0.42800  0.46620  1.0000 0.1096830239
H   H40       1.0  0.96180  0.92160  0.53380  1.0000 0.1096830239
H   H41       1.0  0.06300  0.59320  0.89180  1.0000 0.1281549174
H   H42       1.0  0.70140  0.17120  0.10820  1.0000 0.1281549174
H   H43       1.0  0.42120  0.81300  0.96980  1.0000 0.1281549174
H   H44       1.0  0.84320  0.45140  0.03020  1.0000 0.1281549174
H   H45       1.0  0.20140  0.09320  0.53020  1.0000 0.1281549174
H   H46       1.0  0.56300  0.67120  0.46980  1.0000 0.1281549174
H   H47       1.0  0.34320  0.31300  0.39180  1.0000 0.1281549174
H   H48       1.0  0.92120  0.95140  0.60820  1.0000 0.1281549174
H   H49       1.0  0.40410  0.22280  0.49750  1.0000 0.1228306837
H   H50       1.0  0.72530  0.90660  0.50250  1.0000 0.1228306837
H   H51       1.0  0.15660  0.15410  0.68130  1.0000 0.1228306837
H   H52       1.0  0.47280  0.47530  0.31870  1.0000 0.1228306837
H   H53       1.0  0.22530  0.72280  0.81870  1.0000 0.1228306837
H   H54       1.0  0.90410  0.40660  0.18130  1.0000 0.1228306837
H   H55       1.0  0.97280  0.65410  0.99750  1.0000 0.1228306837
H   H56       1.0  0.65660  0.97530  0.00250  1.0000 0.1228306837
H   H57       1.0  0.31540  0.12640  0.39620  1.0000 0.1228306837
H   H58       1.0  0.73020  0.91920  0.60380  1.0000 0.1228306837
H   H59       1.0  0.16920  0.06540  0.68900  1.0000 0.1228306837
H   H60       1.0  0.37640  0.48020  0.31100  1.0000 0.1228306837
H   H61       1.0  0.23020  0.62640  0.81100  1.0000 0.1228306837
H   H62       1.0  0.81540  0.41920  0.18900  1.0000 0.1228306837
H   H63       1.0  0.87640  0.56540  0.89620  1.0000 0.1228306837
H   H64       1.0  0.66920  0.98020  0.10380  1.0000 0.1228306837
H   H65       1.0  0.25050  0.87810  0.38900  1.0000 0.1281549174
H   H66       1.0  0.48910  0.86150  0.61100  1.0000 0.1281549174
H   H67       1.0  0.11150  0.00050  0.87240  1.0000 0.1281549174
H   H68       1.0  0.12810  0.23910  0.12760  1.0000 0.1281549174
H   H69       1.0  0.98910  0.37810  0.62760  1.0000 0.1281549174
H   H70       1.0  0.75050  0.36150  0.37240  1.0000 0.1281549174
H   H71       1.0  0.62810  0.50050  0.88900  1.0000 0.1281549174
H   H72       1.0  0.61150  0.73910  0.11100  1.0000 0.1281549174
H   H73       1.0  0.28990  0.84250  0.45700  1.0000 0.1096830239
H   H74       1.0  0.38550  0.83290  0.54300  1.0000 0.1096830239
H   H75       1.0  0.08290  0.03990  0.94740  1.0000 0.1096830239
H   H76       1.0  0.09250  0.13550  0.05260  1.0000 0.1096830239
H   H77       1.0  0.88550  0.34250  0.55260  1.0000 0.1096830239
H   H78       1.0  0.78990  0.33290  0.44740  1.0000 0.1096830239
H   H79       1.0  0.59250  0.53990  0.95700  1.0000 0.1096830239
H   H80       1.0  0.58290  0.63550  0.04300  1.0000 0.1096830239
H   H81       1.0  0.38240  0.94140  0.55960  1.0000 0.1096830239
H   H82       1.0  0.38180  0.82280  0.44040  1.0000 0.1096830239
H   H83       1.0  0.07280  0.13240  0.94100  1.0000 0.1096830239
H   H84       1.0  0.19140  0.13180  0.05900  1.0000 0.1096830239
H   H85       1.0  0.88180  0.44140  0.55900  1.0000 0.1096830239
H   H86       1.0  0.88240  0.32280  0.44100  1.0000 0.1096830239
H   H87       1.0  0.69140  0.63240  0.05960  1.0000 0.1096830239
H   H88       1.0  0.57280  0.63180  0.94040  1.0000 0.1096830239
H   H89       1.0  0.43790  0.07860  0.59070  1.0000 0.1281549174
H   H90       1.0  0.48790  0.84720  0.40930  1.0000 0.1281549174
H   H91       1.0  0.09720  0.18790  0.85930  1.0000 0.1281549174
H   H92       1.0  0.32860  0.23790  0.14070  1.0000 0.1281549174
H   H93       1.0  0.98790  0.57860  0.64070  1.0000 0.1281549174
H   H94       1.0  0.93790  0.34720  0.35930  1.0000 0.1281549174
H   H95       1.0  0.82860  0.68790  0.09070  1.0000 0.1281549174
H   H96       1.0  0.59720  0.73790  0.90930  1.0000 0.1281549174
H   H97       1.0  0.73540  0.53230  0.54530  1.0000 0.1281549174
H   H98       1.0  0.98700  0.19010  0.45470  1.0000 0.1281549174
H   H99       1.0  0.44010  0.48540  0.70310  1.0000 0.1281549174
H   H100      1.0  0.78230  0.73700  0.29690  1.0000 0.1281549174
H   H101      1.0  0.48700  0.03230  0.79690  1.0000 0.1281549174
H   H102      1.0  0.23540  0.69010  0.20310  1.0000 0.1281549174
H   H103      1.0  0.28230  0.98540  0.04530  1.0000 0.1281549174
H   H104      1.0  0.94010  0.23700  0.95470  1.0000 0.1281549174
H   H105      1.0  0.64200  0.45050  0.44170  1.0000 0.1281549174
H   H106      1.0  0.00880  0.20030  0.55830  1.0000 0.1281549174
H   H107      1.0  0.45030  0.39200  0.69150  1.0000 0.1281549174
H   H108      1.0  0.70050  0.75880  0.30850  1.0000 0.1281549174
H   H109      1.0  0.50880  0.95050  0.80850  1.0000 0.1281549174
H   H110      1.0  0.14200  0.70030  0.19150  1.0000 0.1281549174
H   H111      1.0  0.20050  0.89200  0.94170  1.0000 0.1281549174
H   H112      1.0  0.95030  0.25880  0.05830  1.0000 0.1281549174
H   H113      1.0  0.52640  0.16910  0.40150  1.0000 0.1281549174
H   H114      1.0  0.76760  0.12490  0.59850  1.0000 0.1281549174
H   H115      1.0  0.37490  0.27640  0.85730  1.0000 0.1281549174
H   H116      1.0  0.41910  0.51760  0.14270  1.0000 0.1281549174
H   H117      1.0  0.26760  0.66910  0.64270  1.0000 0.1281549174
H   H118      1.0  0.02640  0.62490  0.35730  1.0000 0.1281549174
H   H119      1.0  0.91910  0.77640  0.90150  1.0000 0.1281549174
H   H120      1.0  0.87490  0.01760  0.09850  1.0000 0.1281549174
H   H121      1.0  0.55240  0.11420  0.45760  1.0000 0.1096830239
H   H122      1.0  0.65660  0.09480  0.54240  1.0000 0.1096830239
H   H123      1.0  0.34480  0.30240  0.93820  1.0000 0.1096830239
H   H124      1.0  0.36420  0.40660  0.06180  1.0000 0.1096830239
H   H125      1.0  0.15660  0.61420  0.56180  1.0000 0.1096830239
H   H126      1.0  0.05240  0.59480  0.43820  1.0000 0.1096830239
H   H127      1.0  0.86420  0.80240  0.95760  1.0000 0.1096830239
H   H128      1.0  0.84480  0.90660  0.04240  1.0000 0.1096830239
H   H129      1.0  0.64340  0.19310  0.56070  1.0000 0.1096830239
H   H130      1.0  0.63240  0.08270  0.43930  1.0000 0.1096830239
H   H131      1.0  0.33270  0.39340  0.95030  1.0000 0.1096830239
H   H132      1.0  0.44310  0.38240  0.04970  1.0000 0.1096830239
H   H133      1.0  0.13240  0.69310  0.54970  1.0000 0.1096830239
H   H134      1.0  0.14340  0.58270  0.45030  1.0000 0.1096830239
H   H135      1.0  0.94310  0.89340  0.06070  1.0000 0.1096830239
H   H136      1.0  0.83270  0.88240  0.93930  1.0000 0.1096830239
H   H137      1.0  0.71640  0.33720  0.60540  1.0000 0.1281549174
H   H138      1.0  0.73180  0.11100  0.39460  1.0000 0.1281549174
H   H139      1.0  0.36100  0.46640  0.87920  1.0000 0.1281549174
H   H140      1.0  0.58720  0.48180  0.12080  1.0000 0.1281549174
H   H141      1.0  0.23180  0.83720  0.62080  1.0000 0.1281549174
H   H142      1.0  0.21640  0.61100  0.37920  1.0000 0.1281549174
H   H143      1.0  0.08720  0.96640  0.10540  1.0000 0.1281549174
H   H144      1.0  0.86100  0.98180  0.89460  1.0000 0.1281549174
C   C1        1.0  0.92220  0.50060  0.78580  1.0000 0.5669774211
C   C2        1.0  0.71480  0.13640  0.21420  1.0000 0.5669774211
C   C3        1.0  0.38640  0.67220  0.92160  1.0000 0.5669774211
C   C4        1.0  0.75060  0.46480  0.07840  1.0000 0.5669774211
C   C5        1.0  0.21480  0.00060  0.57840  1.0000 0.5669774211
C   C6        1.0  0.42220  0.63640  0.42160  1.0000 0.5669774211
C   C7        1.0  0.25060  0.17220  0.28580  1.0000 0.5669774211
C   C8        1.0  0.88640  0.96480  0.71420  1.0000 0.5669774211
C   C9        1.0  0.93300  0.44490  0.79090  1.0000 -0.0694537886
C   C10       1.0  0.65400  0.14210  0.20910  1.0000 -0.0694537886
C   C11       1.0  0.39210  0.68300  0.98810  1.0000 -0.0694537886
C   C12       1.0  0.69490  0.40400  0.01190  1.0000 -0.0694537886
C   C13       1.0  0.15400  0.94490  0.51190  1.0000 -0.0694537886
C   C14       1.0  0.43300  0.64210  0.48810  1.0000 -0.0694537886
C   C15       1.0  0.19490  0.18300  0.29090  1.0000 -0.0694537886
C   C16       1.0  0.89210  0.90400  0.70910  1.0000 -0.0694537886
C   C17       1.0  0.87550  0.36460  0.74230  1.0000 -0.109497942
C   C18       1.0  0.62230  0.13320  0.25770  1.0000 -0.109497942
C   C19       1.0  0.38320  0.62550  0.01090  1.0000 -0.109497942
C   C20       1.0  0.61460  0.37230  0.98910  1.0000 -0.109497942
C   C21       1.0  0.12230  0.86460  0.48910  1.0000 -0.109497942
C   C22       1.0  0.37550  0.63320  0.51090  1.0000 -0.109497942
C   C23       1.0  0.11460  0.12550  0.24230  1.0000 -0.109497942
C   C24       1.0  0.88320  0.87230  0.75770  1.0000 -0.109497942
C   C25       1.0  0.87870  0.30670  0.73940  1.0000 -0.1176969611
C   C26       1.0  0.56730  0.13930  0.26060  1.0000 -0.1176969611
C   C27       1.0  0.38930  0.62870  0.07200  1.0000 -0.1176969611
C   C28       1.0  0.55670  0.31730  0.92800  1.0000 -0.1176969611
C   C29       1.0  0.06730  0.80670  0.42800  1.0000 -0.1176969611
C   C30       1.0  0.37870  0.63930  0.57200  1.0000 -0.1176969611
C   C31       1.0  0.05670  0.12870  0.23940  1.0000 -0.1176969611
C   C32       1.0  0.88930  0.81730  0.76060  1.0000 -0.1176969611
C   C33       1.0  0.94180  0.32950  0.78590  1.0000 -0.0583023305
C   C34       1.0  0.54360  0.15590  0.21410  1.0000 -0.0583023305
C   C35       1.0  0.40590  0.69180  0.11230  1.0000 -0.0583023305
C   C36       1.0  0.57950  0.29360  0.88770  1.0000 -0.0583023305
C   C37       1.0  0.04360  0.82950  0.38770  1.0000 -0.0583023305
C   C38       1.0  0.44180  0.65590  0.61230  1.0000 -0.0583023305
C   C39       1.0  0.07950  0.19180  0.28590  1.0000 -0.0583023305
C   C40       1.0  0.90590  0.79360  0.71410  1.0000 -0.0583023305
C   C41       1.0  0.93750  0.26120  0.78050  1.0000 0.6064129121
C   C42       1.0  0.48070  0.15700  0.21950  1.0000 0.6064129121
C   C43       1.0  0.40700  0.68750  0.17630  1.0000 0.6064129121
C   C44       1.0  0.51120  0.23070  0.82370  1.0000 0.6064129121
C   C45       1.0  0.98070  0.76120  0.32370  1.0000 0.6064129121
C   C46       1.0  0.43750  0.65700  0.67630  1.0000 0.6064129121
C   C47       1.0  0.01120  0.18750  0.28050  1.0000 0.6064129121
C   C48       1.0  0.90700  0.73070  0.71950  1.0000 0.6064129121
C   C49       1.0  0.00660  0.41410  0.83550  1.0000 0.0509972876
C   C50       1.0  0.57860  0.17110  0.16450  1.0000 0.0509972876
C   C51       1.0  0.42110  0.75660  0.09250  1.0000 0.0509972876
C   C52       1.0  0.66410  0.32860  0.90750  1.0000 0.0509972876
C   C53       1.0  0.07860  0.91410  0.40750  1.0000 0.0509972876
C   C54       1.0  0.50660  0.67110  0.59250  1.0000 0.0509972876
C   C55       1.0  0.16410  0.25660  0.33550  1.0000 0.0509972876
C   C56       1.0  0.92110  0.82860  0.66450  1.0000 0.0509972876
C   C57       1.0  0.07070  0.43700  0.88270  1.0000 -0.1463041992
C   C58       1.0  0.55430  0.18800  0.11730  1.0000 -0.1463041992
C   C59       1.0  0.43800  0.82070  0.13370  1.0000 -0.1463041992
C   C60       1.0  0.68700  0.30430  0.86630  1.0000 -0.1463041992
C   C61       1.0  0.05430  0.93700  0.36630  1.0000 -0.1463041992
C   C62       1.0  0.57070  0.68800  0.63370  1.0000 -0.1463041992
C   C63       1.0  0.18700  0.32070  0.38270  1.0000 -0.1463041992
C   C64       1.0  0.93800  0.80430  0.61730  1.0000 -0.1463041992
C   C65       1.0  0.13170  0.51910  0.93100  1.0000 -0.0885731538
C   C66       1.0  0.58810  0.20070  0.06900  1.0000 -0.0885731538
C   C67       1.0  0.45070  0.88170  0.11260  1.0000 -0.0885731538
C   C68       1.0  0.76910  0.33810  0.88740  1.0000 -0.0885731538
C   C69       1.0  0.08810  0.01910  0.38740  1.0000 -0.0885731538
C   C70       1.0  0.63170  0.70070  0.61260  1.0000 -0.0885731538
C   C71       1.0  0.26910  0.38170  0.43100  1.0000 -0.0885731538
C   C72       1.0  0.95070  0.83810  0.56900  1.0000 -0.0885731538
C   C73       1.0  0.13300  0.58070  0.93450  1.0000 -0.109497942
C   C74       1.0  0.64620  0.19850  0.06550  1.0000 -0.109497942
C   C75       1.0  0.44850  0.88300  0.05230  1.0000 -0.109497942
C   C76       1.0  0.83070  0.39620  0.94770  1.0000 -0.109497942
C   C77       1.0  0.14620  0.08070  0.44770  1.0000 -0.109497942
C   C78       1.0  0.63300  0.69850  0.55230  1.0000 -0.109497942
C   C79       1.0  0.33070  0.38300  0.43450  1.0000 -0.109497942
C   C80       1.0  0.94850  0.89620  0.56550  1.0000 -0.109497942
C   C81       1.0  0.06480  0.55420  0.88900  1.0000 -0.1301928358
C   C82       1.0  0.66520  0.17580  0.11100  1.0000 -0.1301928358
C   C83       1.0  0.42580  0.81480  0.01060  1.0000 -0.1301928358
C   C84       1.0  0.80420  0.41520  0.98940  1.0000 -0.1301928358
C   C85       1.0  0.16520  0.05420  0.48940  1.0000 -0.1301928358
C   C86       1.0  0.56480  0.67580  0.51060  1.0000 -0.1301928358
C   C87       1.0  0.30420  0.31480  0.38900  1.0000 -0.1301928358
C   C88       1.0  0.92580  0.91520  0.61100  1.0000 -0.1301928358
C   C89       1.0  0.99910  0.47030  0.83920  1.0000 0.0509972876
C   C90       1.0  0.63110  0.15990  0.16080  1.0000 0.0509972876
C   C91       1.0  0.40990  0.74910  0.02880  1.0000 0.0509972876
C   C92       1.0  0.72030  0.38110  0.97120  1.0000 0.0509972876
C   C93       1.0  0.13110  0.97030  0.47120  1.0000 0.0509972876
C   C94       1.0  0.49910  0.65990  0.52880  1.0000 0.0509972876
C   C95       1.0  0.22030  0.24910  0.33920  1.0000 0.0509972876
C   C96       1.0  0.90990  0.88110  0.66080  1.0000 0.0509972876
C   C97       1.0  0.46490  0.21510  0.59060  1.0000 0.5898295402
C   C98       1.0  0.62450  0.87430  0.40940  1.0000 0.5898295402
C   C99       1.0  0.12430  0.21490  0.74980  1.0000 0.5898295402
C   C100      1.0  0.46510  0.37450  0.25020  1.0000 0.5898295402
C   C101      1.0  0.12450  0.71510  0.75020  1.0000 0.5898295402
C   C102      1.0  0.96490  0.37430  0.24980  1.0000 0.5898295402
C   C103      1.0  0.96510  0.71490  0.09060  1.0000 0.5898295402
C   C104      1.0  0.62430  0.87450  0.90940  1.0000 0.5898295402
C   C105      1.0  0.40750  0.14710  0.52760  1.0000 -0.0694537886
C   C106      1.0  0.61950  0.87990  0.47240  1.0000 -0.0694537886
C   C107      1.0  0.12990  0.15750  0.76040  1.0000 -0.0694537886
C   C108      1.0  0.39710  0.36950  0.23960  1.0000 -0.0694537886
C   C109      1.0  0.11950  0.64710  0.73960  1.0000 -0.0694537886
C   C110      1.0  0.90750  0.37990  0.26040  1.0000 -0.0694537886
C   C111      1.0  0.89710  0.65750  0.02760  1.0000 -0.0694537886
C   C112      1.0  0.62990  0.86950  0.97240  1.0000 -0.0694537886
C   C113      1.0  0.38440  0.16900  0.48500  1.0000 -0.1014642042
C   C114      1.0  0.68400  0.89940  0.51500  1.0000 -0.1014642042
C   C115      1.0  0.14940  0.13440  0.71540  1.0000 -0.1014642042
C   C116      1.0  0.41900  0.43400  0.28460  1.0000 -0.1014642042
C   C117      1.0  0.18400  0.66900  0.78460  1.0000 -0.1014642042
C   C118      1.0  0.88440  0.39940  0.21540  1.0000 -0.1014642042
C   C119      1.0  0.91900  0.63440  0.98500  1.0000 -0.1014642042
C   C120      1.0  0.64940  0.93400  0.01500  1.0000 -0.1014642042
C   C121      1.0  0.33190  0.11140  0.42350  1.0000 -0.1014642042
C   C122      1.0  0.68790  0.90840  0.57650  1.0000 -0.1014642042
C   C123      1.0  0.15840  0.08190  0.72050  1.0000 -0.1014642042
C   C124      1.0  0.36140  0.43790  0.27950  1.0000 -0.1014642042
C   C125      1.0  0.18790  0.61140  0.77950  1.0000 -0.1014642042
C   C126      1.0  0.83190  0.40840  0.22050  1.0000 -0.1014642042
C   C127      1.0  0.86140  0.58190  0.92350  1.0000 -0.1014642042
C   C128      1.0  0.65840  0.93790  0.07650  1.0000 -0.1014642042
C   C129      1.0  0.30430  0.03310  0.40260  1.0000 -0.0694537886
C   C130      1.0  0.63050  0.90170  0.59740  1.0000 -0.0694537886
C   C131      1.0  0.15170  0.05430  0.77120  1.0000 -0.0694537886
C   C132      1.0  0.28310  0.38050  0.22880  1.0000 -0.0694537886
C   C133      1.0  0.13050  0.53310  0.72880  1.0000 -0.0694537886
C   C134      1.0  0.80430  0.40170  0.27120  1.0000 -0.0694537886
C   C135      1.0  0.78310  0.55430  0.90260  1.0000 -0.0694537886
C   C136      1.0  0.65170  0.88050  0.09740  1.0000 -0.0694537886
C   C137      1.0  0.25500  0.98030  0.33490  1.0000 0.5964266009
C   C138      1.0  0.64540  0.92010  0.66510  1.0000 0.5964266009
C   C139      1.0  0.17010  0.00500  0.77470  1.0000 0.5964266009
C   C140      1.0  0.23030  0.39540  0.22530  1.0000 0.5964266009
C   C141      1.0  0.14540  0.48030  0.72530  1.0000 0.5964266009
C   C142      1.0  0.75500  0.42010  0.27470  1.0000 0.5964266009
C   C143      1.0  0.73030  0.50500  0.83490  1.0000 0.5964266009
C   C144      1.0  0.67010  0.89540  0.16510  1.0000 0.5964266009
C   C145      1.0  0.32230  0.00450  0.44520  1.0000 0.0584470959
C   C146      1.0  0.55930  0.87710  0.55480  1.0000 0.0584470959
C   C147      1.0  0.12710  0.07230  0.81780  1.0000 0.0584470959
C   C148      1.0  0.25450  0.30930  0.18220  1.0000 0.0584470959
C   C149      1.0  0.05930  0.50450  0.68220  1.0000 0.0584470959
C   C150      1.0  0.82230  0.37710  0.31780  1.0000 0.0584470959
C   C151      1.0  0.75450  0.57230  0.94520  1.0000 0.0584470959
C   C152      1.0  0.62710  0.80930  0.05480  1.0000 0.0584470959
C   C153      1.0  0.28890  0.91950  0.42900  1.0000 -0.1384030894
C   C154      1.0  0.49050  0.85990  0.57100  1.0000 -0.1384030894
C   C155      1.0  0.10990  0.03890  0.86940  1.0000 -0.1384030894
C   C156      1.0  0.16950  0.24050  0.13060  1.0000 -0.1384030894
C   C157      1.0  0.99050  0.41950  0.63060  1.0000 -0.1384030894
C   C158      1.0  0.78890  0.35990  0.36940  1.0000 -0.1384030894
C   C159      1.0  0.66950  0.53890  0.92900  1.0000 -0.1384030894
C   C160      1.0  0.60990  0.74050  0.07100  1.0000 -0.1384030894
C   C161      1.0  0.31140  0.89740  0.46980  1.0000 -0.109497942
C   C162      1.0  0.42760  0.84160  0.53020  1.0000 -0.109497942
C   C163      1.0  0.09160  0.06140  0.91400  1.0000 -0.109497942
C   C164      1.0  0.14740  0.17760  0.08600  1.0000 -0.109497942
C   C165      1.0  0.92760  0.39740  0.58600  1.0000 -0.109497942
C   C166      1.0  0.81140  0.34160  0.41400  1.0000 -0.109497942
C   C167      1.0  0.64740  0.56140  0.96980  1.0000 -0.109497942
C   C168      1.0  0.59160  0.67760  0.03020  1.0000 -0.109497942
C   C169      1.0  0.36760  0.95710  0.53170  1.0000 -0.1014642042
C   C170      1.0  0.42540  0.83590  0.46830  1.0000 -0.1014642042
C   C171      1.0  0.08590  0.11760  0.91050  1.0000 -0.1014642042
C   C172      1.0  0.20710  0.17540  0.08950  1.0000 -0.1014642042
C   C173      1.0  0.92540  0.45710  0.58950  1.0000 -0.1014642042
C   C174      1.0  0.86760  0.33590  0.41050  1.0000 -0.1014642042
C   C175      1.0  0.70710  0.61760  0.03170  1.0000 -0.1014642042
C   C176      1.0  0.58590  0.67540  0.96830  1.0000 -0.1014642042
C   C177      1.0  0.40000  0.03890  0.55030  1.0000 -0.1301928358
C   C178      1.0  0.48860  0.84970  0.44970  1.0000 -0.1301928358
C   C179      1.0  0.09970  0.15000  0.86110  1.0000 -0.1301928358
C   C180      1.0  0.28890  0.23860  0.13890  1.0000 -0.1301928358
C   C181      1.0  0.98860  0.53890  0.63890  1.0000 -0.1301928358
C   C182      1.0  0.90000  0.34970  0.36110  1.0000 -0.1301928358
C   C183      1.0  0.78890  0.65000  0.05030  1.0000 -0.1301928358
C   C184      1.0  0.59970  0.73860  0.94970  1.0000 -0.1301928358
C   C185      1.0  0.37680  0.06380  0.50860  1.0000 0.0584470959
C   C186      1.0  0.55520  0.86820  0.49140  1.0000 0.0584470959
C   C187      1.0  0.11820  0.12680  0.81300  1.0000 0.0584470959
C   C188      1.0  0.31380  0.30520  0.18700  1.0000 0.0584470959
C   C189      1.0  0.05520  0.56380  0.68700  1.0000 0.0584470959
C   C190      1.0  0.87680  0.36820  0.31300  1.0000 0.0584470959
C   C191      1.0  0.81380  0.62680  0.00860  1.0000 0.0584470959
C   C192      1.0  0.61820  0.80520  0.99140  1.0000 0.0584470959
C   C193      1.0  0.77390  0.48800  0.62610  1.0000 0.5964266009
C   C194      1.0  0.86190  0.14780  0.37390  1.0000 0.5964266009
C   C195      1.0  0.39780  0.52390  0.78590  1.0000 0.5964266009
C   C196      1.0  0.73800  0.61190  0.21410  1.0000 0.5964266009
C   C197      1.0  0.36190  0.98800  0.71410  1.0000 0.5964266009
C   C198      1.0  0.27390  0.64780  0.28590  1.0000 0.5964266009
C   C199      1.0  0.23800  0.02390  0.12610  1.0000 0.5964266009
C   C200      1.0  0.89780  0.11190  0.87390  1.0000 0.5964266009
C   C201      1.0  0.71470  0.43440  0.55950  1.0000 -0.0583023305
C   C202      1.0  0.87490  0.15520  0.44050  1.0000 -0.0583023305
C   C203      1.0  0.40520  0.46470  0.78030  1.0000 -0.0583023305
C   C204      1.0  0.68440  0.62490  0.21970  1.0000 -0.0583023305
C   C205      1.0  0.37490  0.93440  0.71970  1.0000 -0.0583023305
C   C206      1.0  0.21470  0.65520  0.28030  1.0000 -0.0583023305
C   C207      1.0  0.18440  0.96470  0.05950  1.0000 -0.0583023305
C   C208      1.0  0.90520  0.12490  0.94050  1.0000 -0.0583023305
C   C209      1.0  0.70480  0.47360  0.52660  1.0000 -0.1176969611
C   C210      1.0  0.94700  0.17820  0.47340  1.0000 -0.1176969611
C   C211      1.0  0.42820  0.45480  0.73120  1.0000 -0.1176969611
C   C212      1.0  0.72360  0.69700  0.26880  1.0000 -0.1176969611
C   C213      1.0  0.44700  0.97360  0.76880  1.0000 -0.1176969611
C   C214      1.0  0.20480  0.67820  0.23120  1.0000 -0.1176969611
C   C215      1.0  0.22360  0.95480  0.02660  1.0000 -0.1176969611
C   C216      1.0  0.92820  0.19700  0.97340  1.0000 -0.1176969611
C   C217      1.0  0.64760  0.42340  0.46400  1.0000 -0.1014642042
C   C218      1.0  0.95940  0.18360  0.53600  1.0000 -0.1014642042
C   C219      1.0  0.43360  0.39760  0.72420  1.0000 -0.1014642042
C   C220      1.0  0.67340  0.70940  0.27580  1.0000 -0.1014642042
C   C221      1.0  0.45940  0.92340  0.77580  1.0000 -0.1014642042
C   C222      1.0  0.14760  0.68360  0.22420  1.0000 -0.1014642042
C   C223      1.0  0.17340  0.89760  0.96400  1.0000 -0.1014642042
C   C224      1.0  0.93360  0.20940  0.03600  1.0000 -0.1014642042
C   C225      1.0  0.60020  0.33610  0.43510  1.0000 -0.0694537886
C   C226      1.0  0.90100  0.16510  0.56490  1.0000 -0.0694537886
C   C227      1.0  0.41510  0.35020  0.76410  1.0000 -0.0694537886
C   C228      1.0  0.58610  0.65100  0.23590  1.0000 -0.0694537886
C   C229      1.0  0.40100  0.83610  0.73590  1.0000 -0.0694537886
C   C230      1.0  0.10020  0.66510  0.26410  1.0000 -0.0694537886
C   C231      1.0  0.08610  0.85020  0.93510  1.0000 -0.0694537886
C   C232      1.0  0.91510  0.15100  0.06490  1.0000 -0.0694537886
C   C233      1.0  0.53300  0.28610  0.37090  1.0000 0.5898295402
C   C234      1.0  0.91520  0.16210  0.62910  1.0000 0.5898295402
C   C235      1.0  0.41210  0.28300  0.74690  1.0000 0.5898295402
C   C236      1.0  0.53610  0.66520  0.25310  1.0000 0.5898295402
C   C237      1.0  0.41520  0.78610  0.75310  1.0000 0.5898295402
C   C238      1.0  0.03300  0.66210  0.24690  1.0000 0.5898295402
C   C239      1.0  0.03610  0.78300  0.87090  1.0000 0.5898295402
C   C240      1.0  0.91210  0.16520  0.12910  1.0000 0.5898295402
C   C241      1.0  0.60940  0.29240  0.46760  1.0000 0.0675344433
C   C242      1.0  0.82480  0.14180  0.53240  1.0000 0.0675344433
C   C243      1.0  0.39180  0.35940  0.81700  1.0000 0.0675344433
C   C244      1.0  0.54240  0.57480  0.18300  1.0000 0.0675344433
C   C245      1.0  0.32480  0.79240  0.68300  1.0000 0.0675344433
C   C246      1.0  0.10940  0.64180  0.31700  1.0000 0.0675344433
C   C247      1.0  0.04240  0.85940  0.96760  1.0000 0.0675344433
C   C248      1.0  0.89180  0.07480  0.03240  1.0000 0.0675344433
C   C249      1.0  0.56580  0.20480  0.44220  1.0000 -0.1301928358
C   C250      1.0  0.76260  0.12360  0.55780  1.0000 -0.1301928358
C   C251      1.0  0.37360  0.31580  0.86100  1.0000 -0.1301928358
C   C252      1.0  0.45480  0.51260  0.13900  1.0000 -0.1301928358
C   C253      1.0  0.26260  0.70480  0.63900  1.0000 -0.1301928358
C   C254      1.0  0.06580  0.62360  0.36100  1.0000 -0.1301928358
C   C255      1.0  0.95480  0.81580  0.94220  1.0000 -0.1301928358
C   C256      1.0  0.87360  0.01260  0.05780  1.0000 -0.1301928358
C   C257      1.0  0.58070  0.17190  0.47640  1.0000 -0.1014642042
C   C258      1.0  0.69550  0.10430  0.52360  1.0000 -0.1014642042
C   C259      1.0  0.35430  0.33070  0.90880  1.0000 -0.1014642042
C   C260      1.0  0.42190  0.44550  0.09120  1.0000 -0.1014642042
C   C261      1.0  0.19550  0.67190  0.59120  1.0000 -0.1014642042
C   C262      1.0  0.08070  0.60430  0.40880  1.0000 -0.1014642042
C   C263      1.0  0.92190  0.83070  0.97640  1.0000 -0.1014642042
C   C264      1.0  0.85430  0.94550  0.02360  1.0000 -0.1014642042
C   C265      1.0  0.63610  0.21890  0.53840  1.0000 -0.1014642042
C   C266      1.0  0.68050  0.09770  0.46160  1.0000 -0.1014642042
C   C267      1.0  0.34770  0.38610  0.91720  1.0000 -0.1014642042
C   C268      1.0  0.46890  0.43050  0.08280  1.0000 -0.1014642042
C   C269      1.0  0.18050  0.71890  0.58280  1.0000 -0.1014642042
C   C270      1.0  0.13610  0.59770  0.41720  1.0000 -0.1014642042
C   C271      1.0  0.96890  0.88610  0.03840  1.0000 -0.1014642042
C   C272      1.0  0.84770  0.93050  0.96160  1.0000 -0.1014642042
C   C273      1.0  0.67860  0.30400  0.56440  1.0000 -0.1463041992
C   C274      1.0  0.73960  0.11420  0.43560  1.0000 -0.1463041992
C   C275      1.0  0.36420  0.42860  0.87460  1.0000 -0.1463041992
C   C276      1.0  0.55400  0.48960  0.12540  1.0000 -0.1463041992
C   C277      1.0  0.23960  0.80400  0.62540  1.0000 -0.1463041992
C   C278      1.0  0.17860  0.61420  0.37460  1.0000 -0.1463041992
C   C279      1.0  0.05400  0.92860  0.06440  1.0000 -0.1463041992
C   C280      1.0  0.86420  0.98960  0.93560  1.0000 -0.1463041992
C   C281      1.0  0.66720  0.34380  0.53100  1.0000 0.0509972876
C   C282      1.0  0.81280  0.13620  0.46900  1.0000 0.0509972876
C   C283      1.0  0.38620  0.41720  0.82340  1.0000 0.0509972876
C   C284      1.0  0.59380  0.56280  0.17660  1.0000 0.0509972876
C   C285      1.0  0.31280  0.84380  0.67660  1.0000 0.0509972876
C   C286      1.0  0.16720  0.63620  0.32340  1.0000 0.0509972876
C   C287      1.0  0.09380  0.91720  0.03100  1.0000 0.0509972876
C   C288      1.0  0.88620  0.06280  0.96900  1.0000 0.0509972876
O   O1        1.0  0.85785  0.46665  0.73970  1.0000 -0.5909531616
O   O2        1.0  0.72695  0.11815  0.26030  1.0000 -0.5909531616
O   O3        1.0  0.36815  0.60785  0.89120  1.0000 -0.5909531616
O   O4        1.0  0.71665  0.47695  0.10880  1.0000 -0.5909531616
O   O5        1.0  0.22695  0.96665  0.60880  1.0000 -0.5909531616
O   O6        1.0  0.35785  0.61815  0.39120  1.0000 -0.5909531616
O   O7        1.0  0.21665  0.10785  0.23970  1.0000 -0.5909531616
O   O8        1.0  0.86815  0.97695  0.76030  1.0000 -0.5909531616
O   O9        1.0  0.97448  0.57921  0.82529  1.0000 -0.5783800945
O   O10       1.0  0.75392  0.14919  0.17471  1.0000 -0.5783800945
O   O11       1.0  0.39919  0.72448  0.89527  1.0000 -0.5783800945
O   O12       1.0  0.82921  0.50392  0.10473  1.0000 -0.5783800945
O   O13       1.0  0.25392  0.07921  0.60473  1.0000 -0.5783800945
O   O14       1.0  0.47448  0.64919  0.39527  1.0000 -0.5783800945
O   O15       1.0  0.32921  0.22448  0.32529  1.0000 -0.5783800945
O   O16       1.0  0.89919  0.00392  0.67471  1.0000 -0.5783800945
O   O17       1.0  0.00679  0.28454  0.77693  1.0000 -0.6570953184
O   O18       1.0  0.50761  0.22986  0.22307  1.0000 -0.6570953184
O   O19       1.0  0.47986  0.75679  0.22225  1.0000 -0.6570953184
O   O20       1.0  0.53454  0.25761  0.77775  1.0000 -0.6570953184
O   O21       1.0  0.00761  0.78454  0.27775  1.0000 -0.6570953184
O   O22       1.0  0.50679  0.72986  0.72225  1.0000 -0.6570953184
O   O23       1.0  0.03454  0.25679  0.27693  1.0000 -0.6570953184
O   O24       1.0  0.97986  0.75761  0.72307  1.0000 -0.6570953184
O   O25       1.0  0.86137  0.17770  0.77827  1.0000 -0.5783800945
O   O26       1.0  0.39943  0.08310  0.22173  1.0000 -0.5783800945
O   O27       1.0  0.33310  0.61137  0.18367  1.0000 -0.5783800945
O   O28       1.0  0.42770  0.14943  0.81633  1.0000 -0.5783800945
O   O29       1.0  0.89943  0.67770  0.31633  1.0000 -0.5783800945
O   O30       1.0  0.36137  0.58310  0.68367  1.0000 -0.5783800945
O   O31       1.0  0.92770  0.11137  0.27827  1.0000 -0.5783800945
O   O32       1.0  0.83310  0.64943  0.72173  1.0000 -0.5783800945
O   O33       1.0  0.45831  0.18810  0.63781  1.0000 -0.6718509473
O   O34       1.0  0.55029  0.82050  0.36219  1.0000 -0.6718509473
O   O35       1.0  0.07050  0.20831  0.77021  1.0000 -0.6718509473
O   O36       1.0  0.43810  0.30029  0.22979  1.0000 -0.6718509473
O   O37       1.0  0.05029  0.68810  0.72979  1.0000 -0.6718509473
O   O38       1.0  0.95831  0.32050  0.27021  1.0000 -0.6718509473
O   O39       1.0  0.93810  0.70831  0.13781  1.0000 -0.6718509473
O   O40       1.0  0.57050  0.80029  0.86219  1.0000 -0.6718509473
O   O41       1.0  0.51876  0.29858  0.59834  1.0000 -0.5504974627
O   O42       1.0  0.70024  0.92042  0.40166  1.0000 -0.5504974627
O   O43       1.0  0.17042  0.26876  0.72018  1.0000 -0.5504974627
O   O44       1.0  0.54858  0.45024  0.27982  1.0000 -0.5504974627
O   O45       1.0  0.20024  0.79858  0.77982  1.0000 -0.5504974627
O   O46       1.0  0.01876  0.42042  0.22018  1.0000 -0.5504974627
O   O47       1.0  0.04858  0.76876  0.09834  1.0000 -0.5504974627
O   O48       1.0  0.67042  0.95024  0.90166  1.0000 -0.5504974627
O   O49       1.0  0.25716  0.01872  0.29888  1.0000 -0.651771059
O   O50       1.0  0.71984  0.95828  0.70112  1.0000 -0.651771059
O   O51       1.0  0.20828  0.00716  0.73844  1.0000 -0.651771059
O   O52       1.0  0.26872  0.46984  0.26156  1.0000 -0.651771059
O   O53       1.0  0.21984  0.51872  0.76156  1.0000 -0.651771059
O   O54       1.0  0.75716  0.45828  0.23844  1.0000 -0.651771059
O   O55       1.0  0.76872  0.50716  0.79888  1.0000 -0.651771059
O   O56       1.0  0.70828  0.96984  0.20112  1.0000 -0.651771059
O   O57       1.0  0.20745  0.89757  0.31422  1.0000 -0.5689625643
O   O58       1.0  0.58335  0.89323  0.68578  1.0000 -0.5689625643
O   O59       1.0  0.14323  0.95745  0.80988  1.0000 -0.5689625643
O   O60       1.0  0.14757  0.33333  0.19012  1.0000 -0.5689625643
O   O61       1.0  0.08335  0.39757  0.69012  1.0000 -0.5689625643
O   O62       1.0  0.70745  0.39323  0.30988  1.0000 -0.5689625643
O   O63       1.0  0.64757  0.45745  0.81422  1.0000 -0.5689625643
O   O64       1.0  0.64323  0.83335  0.18578  1.0000 -0.5689625643
O   O65       1.0  0.73853  0.46111  0.66764  1.0000 -0.6371266895
O   O66       1.0  0.79347  0.07089  0.33236  1.0000 -0.6371266895
O   O67       1.0  0.32089  0.48853  0.77742  1.0000 -0.6371266895
O   O68       1.0  0.71111  0.54347  0.22258  1.0000 -0.6371266895
O   O69       1.0  0.29347  0.96111  0.72258  1.0000 -0.6371266895
O   O70       1.0  0.23853  0.57089  0.27742  1.0000 -0.6371266895
O   O71       1.0  0.21111  0.98853  0.16764  1.0000 -0.6371266895
O   O72       1.0  0.82089  0.04347  0.83236  1.0000 -0.6371266895
O   O73       1.0  0.86072  0.56268  0.63820  1.0000 -0.5504974627
O   O74       1.0  0.92448  0.22252  0.36180  1.0000 -0.5504974627
O   O75       1.0  0.47252  0.61072  0.79804  1.0000 -0.5504974627
O   O76       1.0  0.81268  0.67448  0.20196  1.0000 -0.5504974627
O   O77       1.0  0.42448  0.06268  0.70196  1.0000 -0.5504974627
O   O78       1.0  0.36072  0.72252  0.29804  1.0000 -0.5504974627
O   O79       1.0  0.31268  0.11072  0.13820  1.0000 -0.5504974627
O   O80       1.0  0.97252  0.17448  0.86180  1.0000 -0.5504974627
O   O81       1.0  0.46739  0.19850  0.34989  1.0000 -0.5689625643
O   O82       1.0  0.84861  0.11750  0.65011  1.0000 -0.5689625643
O   O83       1.0  0.36750  0.21739  0.76889  1.0000 -0.5689625643
O   O84       1.0  0.44850  0.59861  0.23111  1.0000 -0.5689625643
O   O85       1.0  0.34861  0.69850  0.73111  1.0000 -0.5689625643
O   O86       1.0  0.96739  0.61750  0.26889  1.0000 -0.5689625643
O   O87       1.0  0.94850  0.71739  0.84989  1.0000 -0.5689625643
O   O88       1.0  0.86750  0.09861  0.15011  1.0000 -0.5689625643
O   O89       1.0  0.54223  0.33160  0.34003  1.0000 -0.6227402739
O   O90       1.0  0.99157  0.20220  0.65997  1.0000 -0.6227402739
O   O91       1.0  0.45220  0.29223  0.71063  1.0000 -0.6227402739
O   O92       1.0  0.58160  0.74157  0.28937  1.0000 -0.6227402739
O   O93       1.0  0.49157  0.83160  0.78937  1.0000 -0.6227402739
O   O94       1.0  0.04223  0.70220  0.21063  1.0000 -0.6227402739
O   O95       1.0  0.08160  0.79223  0.84003  1.0000 -0.6227402739
O   O96       1.0  0.95220  0.24157  0.15997  1.0000 -0.6227402739
