# DDEC6 charges by PACMAN v1.1 (https://github.com/mtap-research/PACMAN-charge/)
data_2014[Co][nan]3[ASR]20
_chemical_formula_sum              "Co12 H96 C120 N8 O40"
_cell_length_a       17.531
_cell_length_b       17.531
_cell_length_c       15.0883
_cell_angle_alpha    90
_cell_angle_beta     90
_cell_angle_gamma    90

_symmetry_space_group_name_H-M    "P 1"
_symmetry_Int_Tables_number       1

loop_
  _symmetry_equiv_pos_as_xyz
  'x, y, z'

loop_
  _atom_site_type_symbol
  _atom_site_label
  _atom_site_symmetry_multiplicity
  _atom_site_fract_x
  _atom_site_fract_y
  _atom_site_fract_z
  _atom_site_occupancy
  _atom_site_charge
Co  Co1       1.0  0.40050  0.35919  0.02995  1.0000 0.9094758413
Co  Co2       1.0  0.59950  0.64081  0.02995  1.0000 0.9094758413
Co  Co3       1.0  0.64081  0.40050  0.97005  1.0000 0.9094758413
Co  Co4       1.0  0.35919  0.59950  0.97005  1.0000 0.9094758413
Co  Co5       1.0  0.59950  0.35919  0.52995  1.0000 0.9094758413
Co  Co6       1.0  0.40050  0.64081  0.52995  1.0000 0.9094758413
Co  Co7       1.0  0.35919  0.40050  0.47005  1.0000 0.9094758413
Co  Co8       1.0  0.64081  0.59950  0.47005  1.0000 0.9094758413
Co  Co9       1.0  0.35121  0.35121  0.25000  1.0000 0.9729947455
Co  Co10      1.0  0.64879  0.64879  0.25000  1.0000 0.9729947455
Co  Co11      1.0  0.64879  0.35121  0.75000  1.0000 0.9729947455
Co  Co12      1.0  0.35121  0.64879  0.75000  1.0000 0.9729947455
H   H1        1.0  0.03950  0.39050  0.91710  1.0000 0.116116098
H   H2        1.0  0.96050  0.60950  0.91710  1.0000 0.116116098
H   H3        1.0  0.60950  0.03950  0.08290  1.0000 0.116116098
H   H4        1.0  0.39050  0.96050  0.08290  1.0000 0.116116098
H   H5        1.0  0.96050  0.39050  0.41710  1.0000 0.116116098
H   H6        1.0  0.03950  0.60950  0.41710  1.0000 0.116116098
H   H7        1.0  0.39050  0.03950  0.58290  1.0000 0.116116098
H   H8        1.0  0.60950  0.96050  0.58290  1.0000 0.116116098
H   H9        1.0  0.51580  0.39020  0.22940  1.0000 0.0991135767
H   H10       1.0  0.48420  0.60980  0.22940  1.0000 0.0991135767
H   H11       1.0  0.60980  0.51580  0.77060  1.0000 0.0991135767
H   H12       1.0  0.39020  0.48420  0.77060  1.0000 0.0991135767
H   H13       1.0  0.48420  0.39020  0.72940  1.0000 0.0991135767
H   H14       1.0  0.51580  0.60980  0.72940  1.0000 0.0991135767
H   H15       1.0  0.39020  0.51580  0.27060  1.0000 0.0991135767
H   H16       1.0  0.60980  0.48420  0.27060  1.0000 0.0991135767
H   H17       1.0  0.16710  0.37160  0.95350  1.0000 0.1284910879
H   H18       1.0  0.83290  0.62840  0.95350  1.0000 0.1284910879
H   H19       1.0  0.62840  0.16710  0.04650  1.0000 0.1284910879
H   H20       1.0  0.37160  0.83290  0.04650  1.0000 0.1284910879
H   H21       1.0  0.83290  0.37160  0.45350  1.0000 0.1284910879
H   H22       1.0  0.16710  0.62840  0.45350  1.0000 0.1284910879
H   H23       1.0  0.37160  0.16710  0.54650  1.0000 0.1284910879
H   H24       1.0  0.62840  0.83290  0.54650  1.0000 0.1284910879
H   H25       1.0  0.78880  0.34890  0.87780  1.0000 0.1125103735
H   H26       1.0  0.21120  0.65110  0.87780  1.0000 0.1125103735
H   H27       1.0  0.65110  0.78880  0.12220  1.0000 0.1125103735
H   H28       1.0  0.34890  0.21120  0.12220  1.0000 0.1125103735
H   H29       1.0  0.21120  0.34890  0.37780  1.0000 0.1125103735
H   H30       1.0  0.78880  0.65110  0.37780  1.0000 0.1125103735
H   H31       1.0  0.34890  0.78880  0.62220  1.0000 0.1125103735
H   H32       1.0  0.65110  0.21120  0.62220  1.0000 0.1125103735
H   H33       1.0  0.11410  0.36320  0.21460  1.0000 0.116116098
H   H34       1.0  0.88590  0.63680  0.21460  1.0000 0.116116098
H   H35       1.0  0.63680  0.11410  0.78540  1.0000 0.116116098
H   H36       1.0  0.36320  0.88590  0.78540  1.0000 0.116116098
H   H37       1.0  0.88590  0.36320  0.71460  1.0000 0.116116098
H   H38       1.0  0.11410  0.63680  0.71460  1.0000 0.116116098
H   H39       1.0  0.36320  0.11410  0.28540  1.0000 0.116116098
H   H40       1.0  0.63680  0.88590  0.28540  1.0000 0.116116098
H   H41       1.0  0.98310  0.37710  0.17700  1.0000 0.116116098
H   H42       1.0  0.01690  0.62290  0.17700  1.0000 0.116116098
H   H43       1.0  0.62290  0.98310  0.82300  1.0000 0.116116098
H   H44       1.0  0.37710  0.01690  0.82300  1.0000 0.116116098
H   H45       1.0  0.01690  0.37710  0.67700  1.0000 0.116116098
H   H46       1.0  0.98310  0.62290  0.67700  1.0000 0.116116098
H   H47       1.0  0.37710  0.98310  0.32300  1.0000 0.116116098
H   H48       1.0  0.62290  0.01690  0.32300  1.0000 0.116116098
H   H49       1.0  0.88530  0.45570  0.13160  1.0000 0.1284910879
H   H50       1.0  0.11470  0.54430  0.13160  1.0000 0.1284910879
H   H51       1.0  0.54430  0.88530  0.86840  1.0000 0.1284910879
H   H52       1.0  0.45570  0.11470  0.86840  1.0000 0.1284910879
H   H53       1.0  0.11470  0.45570  0.63160  1.0000 0.1284910879
H   H54       1.0  0.88530  0.54430  0.63160  1.0000 0.1284910879
H   H55       1.0  0.45570  0.88530  0.36840  1.0000 0.1284910879
H   H56       1.0  0.54430  0.11470  0.36840  1.0000 0.1284910879
H   H57       1.0  0.75690  0.46170  0.09830  1.0000 0.1125103735
H   H58       1.0  0.24310  0.53830  0.09830  1.0000 0.1125103735
H   H59       1.0  0.53830  0.75690  0.90170  1.0000 0.1125103735
H   H60       1.0  0.46170  0.24310  0.90170  1.0000 0.1125103735
H   H61       1.0  0.24310  0.46170  0.59830  1.0000 0.1125103735
H   H62       1.0  0.75690  0.53830  0.59830  1.0000 0.1125103735
H   H63       1.0  0.46170  0.75690  0.40170  1.0000 0.1125103735
H   H64       1.0  0.53830  0.24310  0.40170  1.0000 0.1125103735
H   H65       1.0  0.91630  0.33550  0.90700  1.0000 0.1284910879
H   H66       1.0  0.08370  0.66450  0.90700  1.0000 0.1284910879
H   H67       1.0  0.66450  0.91630  0.09300  1.0000 0.1284910879
H   H68       1.0  0.33550  0.08370  0.09300  1.0000 0.1284910879
H   H69       1.0  0.08370  0.33550  0.40700  1.0000 0.1284910879
H   H70       1.0  0.91630  0.66450  0.40700  1.0000 0.1284910879
H   H71       1.0  0.33550  0.91630  0.59300  1.0000 0.1284910879
H   H72       1.0  0.66450  0.08370  0.59300  1.0000 0.1284910879
H   H73       1.0  0.49740  0.25800  0.25890  1.0000 0.1284910879
H   H74       1.0  0.50260  0.74200  0.25890  1.0000 0.1284910879
H   H75       1.0  0.74200  0.49740  0.74110  1.0000 0.1284910879
H   H76       1.0  0.25800  0.50260  0.74110  1.0000 0.1284910879
H   H77       1.0  0.50260  0.25800  0.75890  1.0000 0.1284910879
H   H78       1.0  0.49740  0.74200  0.75890  1.0000 0.1284910879
H   H79       1.0  0.25800  0.49740  0.24110  1.0000 0.1284910879
H   H80       1.0  0.74200  0.50260  0.24110  1.0000 0.1284910879
H   H81       1.0  0.51590  0.23840  0.15760  1.0000 0.1360073785
H   H82       1.0  0.48410  0.76160  0.15760  1.0000 0.1360073785
H   H83       1.0  0.76160  0.51590  0.84240  1.0000 0.1360073785
H   H84       1.0  0.23840  0.48410  0.84240  1.0000 0.1360073785
H   H85       1.0  0.48410  0.23840  0.65760  1.0000 0.1360073785
H   H86       1.0  0.51590  0.76160  0.65760  1.0000 0.1360073785
H   H87       1.0  0.23840  0.51590  0.34240  1.0000 0.1360073785
H   H88       1.0  0.76160  0.48410  0.34240  1.0000 0.1360073785
H   H89       1.0  0.58130  0.27220  0.22030  1.0000 0.1491930342
H   H90       1.0  0.41870  0.72780  0.22030  1.0000 0.1491930342
H   H91       1.0  0.72780  0.58130  0.77970  1.0000 0.1491930342
H   H92       1.0  0.27220  0.41870  0.77970  1.0000 0.1491930342
H   H93       1.0  0.41870  0.27220  0.72030  1.0000 0.1491930342
H   H94       1.0  0.58130  0.72780  0.72030  1.0000 0.1491930342
H   H95       1.0  0.27220  0.58130  0.27970  1.0000 0.1491930342
H   H96       1.0  0.72780  0.41870  0.27970  1.0000 0.1491930342
C   C1        1.0  0.05390  0.38440  0.97740  1.0000 -0.153989441
C   C2        1.0  0.94610  0.61560  0.97740  1.0000 -0.153989441
C   C3        1.0  0.61560  0.05390  0.02260  1.0000 -0.153989441
C   C4        1.0  0.38440  0.94610  0.02260  1.0000 -0.153989441
C   C5        1.0  0.94610  0.38440  0.47740  1.0000 -0.153989441
C   C6        1.0  0.05390  0.61560  0.47740  1.0000 -0.153989441
C   C7        1.0  0.38440  0.05390  0.52260  1.0000 -0.153989441
C   C8        1.0  0.61560  0.94610  0.52260  1.0000 -0.153989441
C   C9        1.0  0.15294  0.36640  0.08690  1.0000 -0.0369658273
C   C10       1.0  0.84706  0.63360  0.08690  1.0000 -0.0369658273
C   C11       1.0  0.63360  0.15294  0.91310  1.0000 -0.0369658273
C   C12       1.0  0.36640  0.84706  0.91310  1.0000 -0.0369658273
C   C13       1.0  0.84706  0.36640  0.58690  1.0000 -0.0369658273
C   C14       1.0  0.15294  0.63360  0.58690  1.0000 -0.0369658273
C   C15       1.0  0.36640  0.15294  0.41310  1.0000 -0.0369658273
C   C16       1.0  0.63360  0.84706  0.41310  1.0000 -0.0369658273
C   C17       1.0  0.23523  0.35661  0.10980  1.0000 0.5798714614
C   C18       1.0  0.76477  0.64339  0.10980  1.0000 0.5798714614
C   C19       1.0  0.64339  0.23523  0.89020  1.0000 0.5798714614
C   C20       1.0  0.35661  0.76477  0.89020  1.0000 0.5798714614
C   C21       1.0  0.76477  0.35661  0.60980  1.0000 0.5798714614
C   C22       1.0  0.23523  0.64339  0.60980  1.0000 0.5798714614
C   C23       1.0  0.35661  0.23523  0.39020  1.0000 0.5798714614
C   C24       1.0  0.64339  0.76477  0.39020  1.0000 0.5798714614
C   C25       1.0  0.50389  0.35420  0.17980  1.0000 0.1284910879
C   C26       1.0  0.49611  0.64580  0.17980  1.0000 0.1284910879
C   C27       1.0  0.64580  0.50389  0.82020  1.0000 0.1284910879
C   C28       1.0  0.35420  0.49611  0.82020  1.0000 0.1284910879
C   C29       1.0  0.49611  0.35420  0.67980  1.0000 0.1284910879
C   C30       1.0  0.50389  0.64580  0.67980  1.0000 0.1284910879
C   C31       1.0  0.35420  0.50389  0.32020  1.0000 0.1284910879
C   C32       1.0  0.64580  0.49611  0.32020  1.0000 0.1284910879
C   C33       1.0  0.55159  0.37585  0.09771  1.0000 0.5484564534
C   C34       1.0  0.44841  0.62415  0.09771  1.0000 0.5484564534
C   C35       1.0  0.62415  0.55159  0.90229  1.0000 0.5484564534
C   C36       1.0  0.37585  0.44841  0.90229  1.0000 0.5484564534
C   C37       1.0  0.44841  0.37585  0.59771  1.0000 0.5484564534
C   C38       1.0  0.55159  0.62415  0.59771  1.0000 0.5484564534
C   C39       1.0  0.37585  0.55159  0.40229  1.0000 0.5484564534
C   C40       1.0  0.62415  0.44841  0.40229  1.0000 0.5484564534
C   C41       1.0  0.99859  0.38622  0.04390  1.0000 0.0677201438
C   C42       1.0  0.00141  0.61378  0.04390  1.0000 0.0677201438
C   C43       1.0  0.61378  0.99859  0.95610  1.0000 0.0677201438
C   C44       1.0  0.38622  0.00141  0.95610  1.0000 0.0677201438
C   C45       1.0  0.00141  0.38622  0.54390  1.0000 0.0677201438
C   C46       1.0  0.99859  0.61378  0.54390  1.0000 0.0677201438
C   C47       1.0  0.38622  0.99859  0.45610  1.0000 0.0677201438
C   C48       1.0  0.61378  0.00141  0.45610  1.0000 0.0677201438
C   C49       1.0  0.13000  0.37380  0.99930  1.0000 -0.093946922
C   C50       1.0  0.87000  0.62620  0.99930  1.0000 -0.093946922
C   C51       1.0  0.62620  0.13000  0.00070  1.0000 -0.093946922
C   C52       1.0  0.37380  0.87000  0.00070  1.0000 -0.093946922
C   C53       1.0  0.87000  0.37380  0.49930  1.0000 -0.093946922
C   C54       1.0  0.13000  0.62620  0.49930  1.0000 -0.093946922
C   C55       1.0  0.37380  0.13000  0.50070  1.0000 -0.093946922
C   C56       1.0  0.62620  0.87000  0.50070  1.0000 -0.093946922
C   C57       1.0  0.80840  0.36960  0.93130  1.0000 0.0804633756
C   C58       1.0  0.19160  0.63040  0.93130  1.0000 0.0804633756
C   C59       1.0  0.63040  0.80840  0.06870  1.0000 0.0804633756
C   C60       1.0  0.36960  0.19160  0.06870  1.0000 0.0804633756
C   C61       1.0  0.19160  0.36960  0.43130  1.0000 0.0804633756
C   C62       1.0  0.80840  0.63040  0.43130  1.0000 0.0804633756
C   C63       1.0  0.36960  0.80840  0.56870  1.0000 0.0804633756
C   C64       1.0  0.63040  0.19160  0.56870  1.0000 0.0804633756
C   C65       1.0  0.09901  0.36800  0.15440  1.0000 -0.1066878274
C   C66       1.0  0.90099  0.63200  0.15440  1.0000 -0.1066878274
C   C67       1.0  0.63200  0.09901  0.84560  1.0000 -0.1066878274
C   C68       1.0  0.36800  0.90099  0.84560  1.0000 -0.1066878274
C   C69       1.0  0.90099  0.36800  0.65440  1.0000 -0.1066878274
C   C70       1.0  0.09901  0.63200  0.65440  1.0000 -0.1066878274
C   C71       1.0  0.36800  0.09901  0.34560  1.0000 -0.1066878274
C   C72       1.0  0.63200  0.90099  0.34560  1.0000 -0.1066878274
C   C73       1.0  0.91658  0.39443  0.02310  1.0000 0.1125103735
C   C74       1.0  0.08342  0.60557  0.02310  1.0000 0.1125103735
C   C75       1.0  0.60557  0.91658  0.97690  1.0000 0.116116098
C   C76       1.0  0.39443  0.08342  0.97690  1.0000 0.1125103735
C   C77       1.0  0.08342  0.39443  0.52310  1.0000 0.116116098
C   C78       1.0  0.91658  0.60557  0.52310  1.0000 0.1125103735
C   C79       1.0  0.39443  0.91658  0.47690  1.0000 0.116116098
C   C80       1.0  0.60557  0.08342  0.47690  1.0000 0.1125103735
C   C81       1.0  0.02070  0.37720  0.13160  1.0000 -0.1611794655
C   C82       1.0  0.97930  0.62280  0.13160  1.0000 -0.1611794655
C   C83       1.0  0.62280  0.02070  0.86840  1.0000 -0.1611794655
C   C84       1.0  0.37720  0.97930  0.86840  1.0000 -0.1611794655
C   C85       1.0  0.97930  0.37720  0.63160  1.0000 -0.1611794655
C   C86       1.0  0.02070  0.62280  0.63160  1.0000 -0.1611794655
C   C87       1.0  0.37720  0.02070  0.36840  1.0000 -0.1611794655
C   C88       1.0  0.62280  0.97930  0.36840  1.0000 -0.1611794655
C   C89       1.0  0.86678  0.43210  0.07910  1.0000 -0.1932706006
C   C90       1.0  0.13322  0.56790  0.07910  1.0000 -0.1932706006
C   C91       1.0  0.56790  0.86678  0.92090  1.0000 -0.1932706006
C   C92       1.0  0.43210  0.13322  0.92090  1.0000 -0.1932706006
C   C93       1.0  0.13322  0.43210  0.57910  1.0000 -0.1932706006
C   C94       1.0  0.86678  0.56790  0.57910  1.0000 -0.1932706006
C   C95       1.0  0.43210  0.86678  0.42090  1.0000 -0.1932706006
C   C96       1.0  0.56790  0.13322  0.42090  1.0000 -0.1932706006
C   C97       1.0  0.78994  0.43553  0.05870  1.0000 0.0945788479
C   C98       1.0  0.21006  0.56447  0.05870  1.0000 0.0945788479
C   C99       1.0  0.56447  0.78994  0.94130  1.0000 0.0945788479
C   C100      1.0  0.43553  0.21006  0.94130  1.0000 0.0945788479
C   C101      1.0  0.21006  0.43553  0.55870  1.0000 0.0945788479
C   C102      1.0  0.78994  0.56447  0.55870  1.0000 0.0945788479
C   C103      1.0  0.43553  0.78994  0.44130  1.0000 0.0945788479
C   C104      1.0  0.56447  0.21006  0.44130  1.0000 0.0945788479
C   C105      1.0  0.88490  0.36240  0.94760  1.0000 -0.1952361086
C   C106      1.0  0.11510  0.63760  0.94760  1.0000 -0.1952361086
C   C107      1.0  0.63760  0.88490  0.05240  1.0000 -0.1952361086
C   C108      1.0  0.36240  0.11510  0.05240  1.0000 -0.1952361086
C   C109      1.0  0.11510  0.36240  0.44760  1.0000 -0.1952361086
C   C110      1.0  0.88490  0.63760  0.44760  1.0000 -0.1952361086
C   C111      1.0  0.36240  0.88490  0.55240  1.0000 -0.1952361086
C   C112      1.0  0.63760  0.11510  0.55240  1.0000 -0.1952361086
C   C113      1.0  0.52670  0.27350  0.20660  1.0000 -0.4789263153
C   C114      1.0  0.47330  0.72650  0.20660  1.0000 -0.4789263153
C   C115      1.0  0.72650  0.52670  0.79340  1.0000 -0.4789263153
C   C116      1.0  0.27350  0.47330  0.79340  1.0000 -0.4789263153
C   C117      1.0  0.47330  0.27350  0.70660  1.0000 -0.4789263153
C   C118      1.0  0.52670  0.72650  0.70660  1.0000 -0.4789263153
C   C119      1.0  0.27350  0.52670  0.29340  1.0000 -0.4789263153
C   C120      1.0  0.72650  0.47330  0.29340  1.0000 -0.4789263153
N   N1        1.0  0.75985  0.40399  0.98642  1.0000 -0.2407474213
N   N2        1.0  0.24015  0.59601  0.98642  1.0000 -0.2407474213
N   N3        1.0  0.59601  0.75985  0.01358  1.0000 -0.2407474213
N   N4        1.0  0.40399  0.24015  0.01358  1.0000 -0.2407474213
N   N5        1.0  0.24015  0.40399  0.48642  1.0000 -0.2407474213
N   N6        1.0  0.75985  0.59601  0.48642  1.0000 -0.2407474213
N   N7        1.0  0.40399  0.75985  0.51358  1.0000 -0.2407474213
N   N8        1.0  0.59601  0.24015  0.51358  1.0000 -0.2407474213
O   O1        1.0  0.25100  0.35061  0.19172  1.0000 -0.5819260174
O   O2        1.0  0.74900  0.64939  0.19172  1.0000 -0.5819260174
O   O3        1.0  0.64939  0.25100  0.80828  1.0000 -0.5819260174
O   O4        1.0  0.35061  0.74900  0.80828  1.0000 -0.5819260174
O   O5        1.0  0.74900  0.35061  0.69172  1.0000 -0.5819260174
O   O6        1.0  0.25100  0.64939  0.69172  1.0000 -0.5819260174
O   O7        1.0  0.35061  0.25100  0.30828  1.0000 -0.5819260174
O   O8        1.0  0.64939  0.74900  0.30828  1.0000 -0.5819260174
O   O9        1.0  0.28276  0.35630  0.04659  1.0000 -0.5579078936
O   O10       1.0  0.71724  0.64370  0.04659  1.0000 -0.5579078936
O   O11       1.0  0.64370  0.28276  0.95341  1.0000 -0.5579078936
O   O12       1.0  0.35630  0.71724  0.95341  1.0000 -0.5579078936
O   O13       1.0  0.71724  0.35630  0.54659  1.0000 -0.5579078936
O   O14       1.0  0.28276  0.64370  0.54659  1.0000 -0.5579078936
O   O15       1.0  0.35630  0.28276  0.45341  1.0000 -0.5579078936
O   O16       1.0  0.64370  0.71724  0.45341  1.0000 -0.5579078936
O   O17       1.0  0.62209  0.38737  0.10577  1.0000 -0.5117082738
O   O18       1.0  0.37791  0.61263  0.10577  1.0000 -0.5117082738
O   O19       1.0  0.61263  0.62209  0.89423  1.0000 -0.5117082738
O   O20       1.0  0.38737  0.37791  0.89423  1.0000 -0.5117082738
O   O21       1.0  0.37791  0.38737  0.60577  1.0000 -0.5117082738
O   O22       1.0  0.62209  0.61263  0.60577  1.0000 -0.5117082738
O   O23       1.0  0.38737  0.62209  0.39423  1.0000 -0.5117082738
O   O24       1.0  0.61263  0.37791  0.39423  1.0000 -0.5117082738
O   O25       1.0  0.42580  0.35946  0.15839  1.0000 -0.6320674935
O   O26       1.0  0.57420  0.64054  0.15839  1.0000 -0.6320674935
O   O27       1.0  0.64054  0.42580  0.84161  1.0000 -0.6320674935
O   O28       1.0  0.35946  0.57420  0.84161  1.0000 -0.6320674935
O   O29       1.0  0.57420  0.35946  0.65839  1.0000 -0.6320674935
O   O30       1.0  0.42580  0.64054  0.65839  1.0000 -0.6320674935
O   O31       1.0  0.35946  0.42580  0.34161  1.0000 -0.6320674935
O   O32       1.0  0.64054  0.57420  0.34161  1.0000 -0.6320674935
O   O33       1.0  0.51929  0.37760  0.02308  1.0000 -0.536504879
O   O34       1.0  0.48071  0.62240  0.02308  1.0000 -0.536504879
O   O35       1.0  0.62240  0.51929  0.97692  1.0000 -0.536504879
O   O36       1.0  0.37760  0.48071  0.97692  1.0000 -0.536504879
O   O37       1.0  0.48071  0.37760  0.52308  1.0000 -0.536504879
O   O38       1.0  0.51929  0.62240  0.52308  1.0000 -0.536504879
O   O39       1.0  0.37760  0.51929  0.47692  1.0000 -0.536504879
O   O40       1.0  0.62240  0.48071  0.47692  1.0000 -0.536504879
