# DDEC6 charges by PACMAN v1.1 (https://github.com/mtap-research/PACMAN-charge/)
data_2014[Tb][dmc]3[ASR]1
_chemical_formula_sum              "Tb4 H20 C36 N4 O24"
_cell_length_a       6.6309
_cell_length_b       13.4525
_cell_length_c       15.8734
_cell_angle_alpha    90
_cell_angle_beta     97.862
_cell_angle_gamma    90

_symmetry_space_group_name_H-M    "P 1"
_symmetry_Int_Tables_number       1

loop_
  _symmetry_equiv_pos_as_xyz
  'x, y, z'

loop_
  _atom_site_type_symbol
  _atom_site_label
  _atom_site_symmetry_multiplicity
  _atom_site_fract_x
  _atom_site_fract_y
  _atom_site_fract_z
  _atom_site_occupancy
  _atom_site_charge
Tb  Tb1       1.0  0.53495  0.06080  0.74882  1.0000 2.000220864
Tb  Tb2       1.0  0.96505  0.56080  0.25118  1.0000 2.000220864
Tb  Tb3       1.0  0.46505  0.93920  0.25118  1.0000 2.000220864
Tb  Tb4       1.0  0.03495  0.43920  0.74882  1.0000 2.000220864
H   H1        1.0  0.64520  0.43210  0.53610  1.0000 0.1071187546
H   H2        1.0  0.85480  0.93210  0.46390  1.0000 0.1071187546
H   H3        1.0  0.35480  0.56790  0.46390  1.0000 0.1071187546
H   H4        1.0  0.14520  0.06790  0.53610  1.0000 0.1071187546
H   H5        1.0  0.51980  0.30120  0.31730  1.0000 0.1071187546
H   H6        1.0  0.98020  0.80120  0.68270  1.0000 0.1150747378
H   H7        1.0  0.48020  0.69880  0.68270  1.0000 0.1150747378
H   H8        1.0  0.01980  0.19880  0.31730  1.0000 0.1150747378
H   H9        1.0  0.59570  0.13540  0.52800  1.0000 0.1281290913
H   H10       1.0  0.90430  0.63540  0.47200  1.0000 0.1281290913
H   H11       1.0  0.40430  0.86460  0.47200  1.0000 0.1281290913
H   H12       1.0  0.09570  0.36460  0.52800  1.0000 0.1281290913
H   H13       1.0  0.12060  0.06640  0.96210  1.0000 0.1281290913
H   H14       1.0  0.37940  0.56640  0.03790  1.0000 0.1281290913
H   H15       1.0  0.87940  0.93360  0.03790  1.0000 0.1281290913
H   H16       1.0  0.62060  0.43360  0.96210  1.0000 0.1281290913
H   H17       1.0  0.95390  0.09790  0.01770  1.0000 0.1281290913
H   H18       1.0  0.54610  0.59790  0.98230  1.0000 0.1281290913
H   H19       1.0  0.04610  0.90210  0.98230  1.0000 0.1281290913
H   H20       1.0  0.45390  0.40210  0.01770  1.0000 0.1281290913
C   C1        1.0  0.66240  0.28300  0.64380  1.0000 0.633662491
C   C2        1.0  0.83760  0.78300  0.35620  1.0000 0.633662491
C   C3        1.0  0.33760  0.71700  0.35620  1.0000 0.633662491
C   C4        1.0  0.16240  0.21700  0.64380  1.0000 0.633662491
C   C5        1.0  0.62380  0.28360  0.54790  1.0000 -0.0846810053
C   C6        1.0  0.87620  0.78360  0.45210  1.0000 -0.0858931105
C   C7        1.0  0.37620  0.71640  0.45210  1.0000 -0.0858931105
C   C8        1.0  0.12380  0.21640  0.54790  1.0000 -0.0846810053
C   C9        1.0  0.62050  0.37410  0.50460  1.0000 0.0541028892
C   C10       1.0  0.87950  0.87410  0.49540  1.0000 0.0541028892
C   C11       1.0  0.37950  0.62590  0.49540  1.0000 0.0541028892
C   C12       1.0  0.12050  0.12590  0.50460  1.0000 0.0541028892
C   C13       1.0  0.54900  0.29680  0.37610  1.0000 0.0426061292
C   C14       1.0  0.95100  0.79680  0.62390  1.0000 0.0426061292
C   C15       1.0  0.45100  0.70320  0.62390  1.0000 0.0426061292
C   C16       1.0  0.04900  0.20320  0.37610  1.0000 0.0426061292
C   C17       1.0  0.55400  0.20340  0.41290  1.0000 -0.07039293
C   C18       1.0  0.94600  0.70340  0.58710  1.0000 -0.07039293
C   C19       1.0  0.44600  0.79660  0.58710  1.0000 -0.07039293
C   C20       1.0  0.05400  0.29660  0.41290  1.0000 -0.07039293
C   C21       1.0  0.59180  0.19690  0.50100  1.0000 -0.0858931105
C   C22       1.0  0.90820  0.69690  0.49900  1.0000 -0.0858931105
C   C23       1.0  0.40820  0.80310  0.49900  1.0000 -0.0858931105
C   C24       1.0  0.09180  0.30310  0.50100  1.0000 -0.0858931105
C   C25       1.0  0.51760  0.11200  0.35760  1.0000 0.5465545942
C   C26       1.0  0.98240  0.61200  0.64240  1.0000 0.5465545942
C   C27       1.0  0.48240  0.88800  0.64240  1.0000 0.5465545942
C   C28       1.0  0.01760  0.38800  0.35760  1.0000 0.5465545942
C   C29       1.0  0.83280  0.05140  0.89930  1.0000 0.6132267405
C   C30       1.0  0.66720  0.55140  0.10070  1.0000 0.6152535965
C   C31       1.0  0.16720  0.94860  0.10070  1.0000 0.6132267405
C   C32       1.0  0.33280  0.44860  0.89930  1.0000 0.6132267405
C   C33       1.0  0.98940  0.04810  0.97810  1.0000 -0.2900139302
C   C34       1.0  0.51060  0.54810  0.02190  1.0000 -0.2962204824
C   C35       1.0  0.01060  0.95190  0.02190  1.0000 -0.2900139302
C   C36       1.0  0.48940  0.45190  0.97810  1.0000 -0.2900139302
N   N1        1.0  0.58370  0.38100  0.42020  1.0000 -0.2332868325
N   N2        1.0  0.91630  0.88100  0.57980  1.0000 -0.2332868325
N   N3        1.0  0.41630  0.61900  0.57980  1.0000 -0.2332868325
N   N4        1.0  0.08370  0.11900  0.42020  1.0000 -0.2332868325
O   O1        1.0  0.63450  0.20330  0.68035  1.0000 -0.6492388706
O   O2        1.0  0.86550  0.70330  0.31965  1.0000 -0.6492388706
O   O3        1.0  0.36550  0.79670  0.31965  1.0000 -0.6492388706
O   O4        1.0  0.13450  0.29670  0.68035  1.0000 -0.6492388706
O   O5        1.0  0.71600  0.36270  0.68113  1.0000 -0.6402762095
O   O6        1.0  0.78400  0.86270  0.31887  1.0000 -0.6402762095
O   O7        1.0  0.28400  0.63730  0.31887  1.0000 -0.6402762095
O   O8        1.0  0.21600  0.13730  0.68113  1.0000 -0.6402762095
O   O9        1.0  0.44470  0.12350  0.28079  1.0000 -0.6252278398
O   O10       1.0  0.05530  0.62350  0.71921  1.0000 -0.6252278398
O   O11       1.0  0.55530  0.87650  0.71921  1.0000 -0.624869437
O   O12       1.0  0.94470  0.37650  0.28079  1.0000 -0.624869437
O   O13       1.0  0.55850  0.02830  0.38960  1.0000 -0.6086755306
O   O14       1.0  0.94150  0.52830  0.61040  1.0000 -0.6086755306
O   O15       1.0  0.44150  0.97170  0.61040  1.0000 -0.6086755306
O   O16       1.0  0.05850  0.47170  0.38960  1.0000 -0.6086755306
O   O17       1.0  0.84630  0.12070  0.84730  1.0000 -0.6009797861
O   O18       1.0  0.65370  0.62070  0.15270  1.0000 -0.6009797861
O   O19       1.0  0.15370  0.87930  0.15270  1.0000 -0.6086755306
O   O20       1.0  0.34630  0.37930  0.84730  1.0000 -0.6086755306
O   O21       1.0  0.69270  0.98860  0.88547  1.0000 -0.6009797861
O   O22       1.0  0.80730  0.48860  0.11453  1.0000 -0.6009797861
O   O23       1.0  0.30730  0.01140  0.11453  1.0000 -0.6009797861
O   O24       1.0  0.19270  0.51140  0.88547  1.0000 -0.6009797861
