# DDEC6 charges by PACMAN v1.1 (https://github.com/mtap-research/PACMAN-charge/)
data_2014[Zn][nan]2[ASR]4
_chemical_formula_sum              "Zn8 H168 C216 N56 O4"
_cell_length_a       23.0166
_cell_length_b       23.0166
_cell_length_c       16.278
_cell_angle_alpha    75.0388
_cell_angle_beta     104.961
_cell_angle_gamma    99.5885

_symmetry_space_group_name_H-M    "P 1"
_symmetry_Int_Tables_number       1

loop_
  _symmetry_equiv_pos_as_xyz
  'x, y, z'

loop_
  _atom_site_type_symbol
  _atom_site_label
  _atom_site_symmetry_multiplicity
  _atom_site_fract_x
  _atom_site_fract_y
  _atom_site_fract_z
  _atom_site_occupancy
  _atom_site_charge
Zn  Zn1       1.0  0.67197  0.90817  0.27614  1.0000 0.69876255
Zn  Zn2       1.0  0.90817  0.67197  0.22386  1.0000 0.69876255
Zn  Zn3       1.0  0.32803  0.09183  0.72386  1.0000 0.69876255
Zn  Zn4       1.0  0.09183  0.32803  0.77614  1.0000 0.69876255
Zn  Zn5       1.0  0.67036  0.91138  0.48793  1.0000 0.686557888
Zn  Zn6       1.0  0.91138  0.67036  0.01207  1.0000 0.686557888
Zn  Zn7       1.0  0.32964  0.08862  0.51207  1.0000 0.686557888
Zn  Zn8       1.0  0.08862  0.32964  0.98793  1.0000 0.686557888
H   H1        1.0  0.12990  0.92730  0.80600  1.0000 0.1201555127
H   H2        1.0  0.92730  0.12990  0.69400  1.0000 0.1201555127
H   H3        1.0  0.87010  0.07270  0.19400  1.0000 0.1201555127
H   H4        1.0  0.07270  0.87010  0.30600  1.0000 0.1201555127
H   H5        1.0  0.31060  0.87100  0.84230  1.0000 0.1277836511
H   H6        1.0  0.87100  0.31060  0.65770  1.0000 0.1277836511
H   H7        1.0  0.68940  0.12900  0.15770  1.0000 0.1277836511
H   H8        1.0  0.12900  0.68940  0.34230  1.0000 0.1277836511
H   H9        1.0  0.83680  0.71440  0.76210  1.0000 0.1201555127
H   H10       1.0  0.71440  0.83680  0.73790  1.0000 0.1201555127
H   H11       1.0  0.16320  0.28560  0.23790  1.0000 0.1201555127
H   H12       1.0  0.28560  0.16320  0.26210  1.0000 0.1201555127
H   H13       1.0  0.00230  0.82650  0.66400  1.0000 0.1201555127
H   H14       1.0  0.82650  0.00230  0.83600  1.0000 0.1201555127
H   H15       1.0  0.99770  0.17350  0.33600  1.0000 0.1201555127
H   H16       1.0  0.17350  0.99770  0.16400  1.0000 0.1201555127
H   H17       1.0  0.98600  0.63360  0.77110  1.0000 0.1201555127
H   H18       1.0  0.63360  0.98600  0.72890  1.0000 0.1201555127
H   H19       1.0  0.01400  0.36640  0.22890  1.0000 0.1201555127
H   H20       1.0  0.36640  0.01400  0.27110  1.0000 0.1201555127
H   H21       1.0  0.22910  0.80470  0.54010  1.0000 0.1277836511
H   H22       1.0  0.80470  0.22910  0.95990  1.0000 0.1277836511
H   H23       1.0  0.77090  0.19530  0.45990  1.0000 0.1277836511
H   H24       1.0  0.19530  0.77090  0.04010  1.0000 0.1277836511
H   H25       1.0  0.13930  0.61110  0.02240  1.0000 0.1201555127
H   H26       1.0  0.61110  0.13930  0.47760  1.0000 0.1201555127
H   H27       1.0  0.86070  0.38890  0.97760  1.0000 0.1201555127
H   H28       1.0  0.38890  0.86070  0.52240  1.0000 0.1201555127
H   H29       1.0  0.11750  0.70710  0.94120  1.0000 0.1119326795
H   H30       1.0  0.70710  0.11750  0.55880  1.0000 0.1119326795
H   H31       1.0  0.88250  0.29290  0.05880  1.0000 0.1119326795
H   H32       1.0  0.29290  0.88250  0.44120  1.0000 0.1119326795
H   H33       1.0  0.04180  0.85180  0.53500  1.0000 0.1201555127
H   H34       1.0  0.85180  0.04180  0.96500  1.0000 0.1201555127
H   H35       1.0  0.95820  0.14820  0.46500  1.0000 0.1201555127
H   H36       1.0  0.14820  0.95820  0.03500  1.0000 0.1201555127
H   H37       1.0  0.00370  0.53890  0.85640  1.0000 0.1201555127
H   H38       1.0  0.53890  0.00370  0.64360  1.0000 0.1201555127
H   H39       1.0  0.99630  0.46110  0.14360  1.0000 0.1201555127
H   H40       1.0  0.46110  0.99630  0.35640  1.0000 0.1201555127
H   H41       1.0  0.93550  0.67950  0.57110  1.0000 0.1277836511
H   H42       1.0  0.67950  0.93550  0.92890  1.0000 0.1277836511
H   H43       1.0  0.06450  0.32050  0.42890  1.0000 0.1277836511
H   H44       1.0  0.32050  0.06450  0.07110  1.0000 0.1277836511
H   H45       1.0  0.12090  0.92450  0.54310  1.0000 0.1201555127
H   H46       1.0  0.92450  0.12090  0.95690  1.0000 0.1201555127
H   H47       1.0  0.87910  0.07550  0.45690  1.0000 0.1201555127
H   H48       1.0  0.07550  0.87910  0.04310  1.0000 0.1201555127
H   H49       1.0  0.80710  0.88750  0.59770  1.0000 0.1119326795
H   H50       1.0  0.88750  0.80710  0.90230  1.0000 0.1119326795
H   H51       1.0  0.19290  0.11250  0.40230  1.0000 0.1119326795
H   H52       1.0  0.11250  0.19290  0.09770  1.0000 0.1119326795
H   H53       1.0  0.30200  0.87040  0.64420  1.0000 0.1277836511
H   H54       1.0  0.87040  0.30200  0.85580  1.0000 0.1277836511
H   H55       1.0  0.69800  0.12960  0.35580  1.0000 0.1277836511
H   H56       1.0  0.12960  0.69800  0.14420  1.0000 0.1277836511
H   H57       1.0  0.22560  0.80960  0.76780  1.0000 0.1201555127
H   H58       1.0  0.80960  0.22560  0.73220  1.0000 0.1201555127
H   H59       1.0  0.77440  0.19040  0.23220  1.0000 0.1201555127
H   H60       1.0  0.19040  0.77440  0.26780  1.0000 0.1201555127
H   H61       1.0  0.14890  0.73110  0.53530  1.0000 0.1201555127
H   H62       1.0  0.73110  0.14890  0.96470  1.0000 0.1201555127
H   H63       1.0  0.85110  0.26890  0.46470  1.0000 0.1201555127
H   H64       1.0  0.26890  0.85110  0.03530  1.0000 0.1201555127
H   H65       1.0  0.13080  0.51560  0.12190  1.0000 0.1277836511
H   H66       1.0  0.51560  0.13080  0.37810  1.0000 0.1277836511
H   H67       1.0  0.86920  0.48440  0.87810  1.0000 0.1277836511
H   H68       1.0  0.48440  0.86920  0.62190  1.0000 0.1277836511
H   H69       1.0  0.93350  0.69190  0.83490  1.0000 0.1119326795
H   H70       1.0  0.69190  0.93350  0.66510  1.0000 0.1119326795
H   H71       1.0  0.06650  0.30810  0.16510  1.0000 0.1119326795
H   H72       1.0  0.30810  0.06650  0.33490  1.0000 0.1119326795
H   H73       1.0  0.37280  0.96820  0.81200  1.0000 0.1119326795
H   H74       1.0  0.96820  0.37280  0.68800  1.0000 0.1119326795
H   H75       1.0  0.62720  0.03180  0.18800  1.0000 0.1119326795
H   H76       1.0  0.03180  0.62720  0.31200  1.0000 0.1119326795
H   H77       1.0  0.99720  0.81980  0.39710  1.0000 0.1119326795
H   H78       1.0  0.81980  0.99720  0.10290  1.0000 0.1119326795
H   H79       1.0  0.00280  0.18020  0.60290  1.0000 0.1119326795
H   H80       1.0  0.18020  0.00280  0.89710  1.0000 0.1119326795
H   H81       1.0  0.66060  0.76580  0.29750  1.0000 0.1277836511
H   H82       1.0  0.76580  0.66060  0.20250  1.0000 0.1277836511
H   H83       1.0  0.33940  0.23420  0.70250  1.0000 0.1277836511
H   H84       1.0  0.23420  0.33940  0.79750  1.0000 0.1277836511
H   H85       1.0  0.36630  0.96670  0.62590  1.0000 0.1201555127
H   H86       1.0  0.96670  0.36630  0.87410  1.0000 0.1201555127
H   H87       1.0  0.63370  0.03330  0.37410  1.0000 0.1201555127
H   H88       1.0  0.03330  0.63370  0.12590  1.0000 0.1201555127
H   H89       1.0  0.05570  0.45370  0.90720  1.0000 0.1119326795
H   H90       1.0  0.45370  0.05570  0.59280  1.0000 0.1119326795
H   H91       1.0  0.94430  0.54630  0.09280  1.0000 0.1119326795
H   H92       1.0  0.54630  0.94430  0.40720  1.0000 0.1119326795
H   H93       1.0  0.04830  0.85290  0.81470  1.0000 0.1201555127
H   H94       1.0  0.85290  0.04830  0.68530  1.0000 0.1201555127
H   H95       1.0  0.95170  0.14710  0.18530  1.0000 0.1201555127
H   H96       1.0  0.14710  0.95170  0.31470  1.0000 0.1201555127
H   H97       1.0  0.20630  0.99350  0.46710  1.0000 0.1029408372
H   H98       1.0  0.99350  0.20630  0.03290  1.0000 0.1029408372
H   H99       1.0  0.79370  0.00650  0.53290  1.0000 0.1029408372
H   H100      1.0  0.00650  0.79370  0.96710  1.0000 0.1029408372
H   H101      1.0  0.83790  0.70030  0.50510  1.0000 0.1201555127
H   H102      1.0  0.70030  0.83790  0.99490  1.0000 0.1201555127
H   H103      1.0  0.16210  0.29970  0.49490  1.0000 0.1201555127
H   H104      1.0  0.29970  0.16210  0.00510  1.0000 0.1201555127
H   H105      1.0  0.14420  0.73600  0.77320  1.0000 0.1201555127
H   H106      1.0  0.73600  0.14420  0.72680  1.0000 0.1201555127
H   H107      1.0  0.85580  0.26400  0.22680  1.0000 0.1201555127
H   H108      1.0  0.26400  0.85580  0.27320  1.0000 0.1201555127
H   H109      1.0  0.90640  0.84680  0.58590  1.0000 0.1201555127
H   H110      1.0  0.84680  0.90640  0.91410  1.0000 0.1201555127
H   H111      1.0  0.09360  0.15320  0.41410  1.0000 0.1201555127
H   H112      1.0  0.15320  0.09360  0.08590  1.0000 0.1201555127
H   H113      1.0  0.00520  0.65800  0.44320  1.0000 0.1119326795
H   H114      1.0  0.65800  0.00520  0.05680  1.0000 0.1119326795
H   H115      1.0  0.99480  0.34200  0.55680  1.0000 0.1119326795
H   H116      1.0  0.34200  0.99480  0.94320  1.0000 0.1119326795
H   H117      1.0  0.14210  0.40610  0.15160  1.0000 0.1201555127
H   H118      1.0  0.40610  0.14210  0.34840  1.0000 0.1201555127
H   H119      1.0  0.85790  0.59390  0.84840  1.0000 0.1201555127
H   H120      1.0  0.59390  0.85790  0.65160  1.0000 0.1201555127
H   H121      1.0  0.07020  0.45860  0.72940  1.0000 0.1201555127
H   H122      1.0  0.45860  0.07020  0.77060  1.0000 0.1201555127
H   H123      1.0  0.92980  0.54140  0.27060  1.0000 0.1201555127
H   H124      1.0  0.54140  0.92980  0.22940  1.0000 0.1201555127
H   H125      1.0  0.80890  0.87730  0.34510  1.0000 0.1029408372
H   H126      1.0  0.87730  0.80890  0.15490  1.0000 0.1029408372
H   H127      1.0  0.19110  0.12270  0.65490  1.0000 0.1029408372
H   H128      1.0  0.12270  0.19110  0.84510  1.0000 0.1029408372
H   H129      1.0  0.89830  0.83850  0.32890  1.0000 0.1119326795
H   H130      1.0  0.83850  0.89830  0.17110  1.0000 0.1119326795
H   H131      1.0  0.10170  0.16150  0.67110  1.0000 0.1119326795
H   H132      1.0  0.16150  0.10170  0.82890  1.0000 0.1119326795
H   H133      1.0  0.02630  0.55850  0.47200  1.0000 0.1201555127
H   H134      1.0  0.55850  0.02630  0.02800  1.0000 0.1119326795
H   H135      1.0  0.97370  0.44150  0.52800  1.0000 0.1201555127
H   H136      1.0  0.44150  0.97370  0.97200  1.0000 0.1201555127
H   H137      1.0  0.20060  0.99880  0.72410  1.0000 0.1029408372
H   H138      1.0  0.99880  0.20060  0.77590  1.0000 0.1029408372
H   H139      1.0  0.79940  0.00120  0.27590  1.0000 0.1029408372
H   H140      1.0  0.00120  0.79940  0.22410  1.0000 0.1029408372
H   H141      1.0  0.74270  0.70490  0.37290  1.0000 0.1277836511
H   H142      1.0  0.70490  0.74270  0.12710  1.0000 0.1277836511
H   H143      1.0  0.25730  0.29510  0.62710  1.0000 0.1277836511
H   H144      1.0  0.29510  0.25730  0.87290  1.0000 0.1277836511
H   H145      1.0  0.12580  0.49100  0.50890  1.0000 0.1277836511
H   H146      1.0  0.49100  0.12580  0.99110  1.0000 0.1277836511
H   H147      1.0  0.87420  0.50900  0.49110  1.0000 0.1277836511
H   H148      1.0  0.50900  0.87420  0.00890  1.0000 0.1277836511
H   H149      1.0  0.13600  0.38520  0.58380  1.0000 0.1201555127
H   H150      1.0  0.38520  0.13600  0.91620  1.0000 0.1201555127
H   H151      1.0  0.86400  0.61480  0.41620  1.0000 0.1201555127
H   H152      1.0  0.61480  0.86400  0.08380  1.0000 0.1201555127
H   H153      1.0  0.75290  0.71390  0.61040  1.0000 0.1277836511
H   H154      1.0  0.71390  0.75290  0.88960  1.0000 0.1277836511
H   H155      1.0  0.24710  0.28610  0.38960  1.0000 0.1277836511
H   H156      1.0  0.28610  0.24710  0.11040  1.0000 0.1277836511
H   H157      1.0  0.09450  0.67090  0.68330  1.0000 0.1201555127
H   H158      1.0  0.67090  0.09450  0.81670  1.0000 0.1201555127
H   H159      1.0  0.90550  0.32910  0.31670  1.0000 0.1201555127
H   H160      1.0  0.32910  0.90550  0.18330  1.0000 0.1201555127
H   H161      1.0  0.11900  0.57380  0.71340  1.0000 0.1277836511
H   H162      1.0  0.57380  0.11900  0.78660  1.0000 0.1277836511
H   H163      1.0  0.88100  0.42620  0.28660  1.0000 0.1277836511
H   H164      1.0  0.42620  0.88100  0.21340  1.0000 0.1277836511
H   H165      1.0  0.66820  0.77260  0.53400  1.0000 0.1277836511
H   H166      1.0  0.77260  0.66820  0.96600  1.0000 0.1277836511
H   H167      1.0  0.33180  0.22740  0.46600  1.0000 0.1277836511
H   H168      1.0  0.22740  0.33180  0.03400  1.0000 0.1277836511
C   C1        1.0  0.13274  0.88866  0.80060  1.0000 -0.1978278675
C   C2        1.0  0.88866  0.13274  0.69940  1.0000 -0.1978278675
C   C3        1.0  0.86726  0.11134  0.19940  1.0000 -0.1978278675
C   C4        1.0  0.11134  0.86726  0.30060  1.0000 -0.1978278675
C   C5        1.0  0.97847  0.75449  0.75580  1.0000 0.1611935934
C   C6        1.0  0.75449  0.97847  0.74420  1.0000 0.1611935934
C   C7        1.0  0.02153  0.24551  0.24420  1.0000 0.1611935934
C   C8        1.0  0.24551  0.02153  0.25580  1.0000 0.1611935934
C   C9        1.0  0.29659  0.90841  0.81500  1.0000 -0.1174799493
C   C10       1.0  0.90841  0.29659  0.68500  1.0000 -0.1174799493
C   C11       1.0  0.70341  0.09159  0.18500  1.0000 -0.1174799493
C   C12       1.0  0.09159  0.70341  0.31500  1.0000 -0.1174799493
C   C13       1.0  0.86998  0.73642  0.74190  1.0000 -0.1885143928
C   C14       1.0  0.73642  0.86998  0.75810  1.0000 -0.1885143928
C   C15       1.0  0.13002  0.26358  0.25810  1.0000 -0.1885143928
C   C16       1.0  0.26358  0.13002  0.24190  1.0000 -0.1885143928
C   C17       1.0  0.96897  0.80293  0.68230  1.0000 -0.1885143928
C   C18       1.0  0.80293  0.96897  0.81770  1.0000 -0.1885143928
C   C19       1.0  0.03103  0.19707  0.31770  1.0000 -0.1885143928
C   C20       1.0  0.19707  0.03103  0.18230  1.0000 -0.1885143928
C   C21       1.0  0.01611  0.62929  0.82220  1.0000 -0.1807009511
C   C22       1.0  0.62929  0.01611  0.67780  1.0000 -0.1807009511
C   C23       1.0  0.98389  0.37071  0.17780  1.0000 -0.1807009511
C   C24       1.0  0.37071  0.98389  0.32220  1.0000 -0.1807009511
C   C25       1.0  0.18343  0.87175  0.54330  1.0000 0.1119326795
C   C26       1.0  0.87175  0.18343  0.95670  1.0000 0.1119326795
C   C27       1.0  0.81657  0.12825  0.45670  1.0000 0.1119326795
C   C28       1.0  0.12825  0.81657  0.04330  1.0000 0.1119326795
C   C29       1.0  0.19120  0.81360  0.54020  1.0000 -0.1807009511
C   C30       1.0  0.81360  0.19120  0.95980  1.0000 -0.1807009511
C   C31       1.0  0.80880  0.18640  0.45980  1.0000 -0.1807009511
C   C32       1.0  0.18640  0.80880  0.04020  1.0000 -0.1807009511
C   C33       1.0  0.08753  0.78545  0.79590  1.0000 0.1611935934
C   C34       1.0  0.78545  0.08753  0.70410  1.0000 0.1611935934
C   C35       1.0  0.91247  0.21455  0.20410  1.0000 0.1611935934
C   C36       1.0  0.21455  0.91247  0.29590  1.0000 0.1611935934
C   C37       1.0  0.07660  0.55696  0.59500  1.0000 0.1466334154
C   C38       1.0  0.55696  0.07660  0.90500  1.0000 0.1466334154
C   C39       1.0  0.92340  0.44304  0.40500  1.0000 0.1466334154
C   C40       1.0  0.44304  0.92340  0.09500  1.0000 0.1466334154
C   C41       1.0  0.04975  0.68043  0.84810  1.0000 0.1611935934
C   C42       1.0  0.68043  0.04975  0.65190  1.0000 0.1611935934
C   C43       1.0  0.95025  0.31957  0.15190  1.0000 0.1611935934
C   C44       1.0  0.31957  0.95025  0.34810  1.0000 0.1611935934
C   C45       1.0  0.10822  0.61566  0.97250  1.0000 -0.1807009511
C   C46       1.0  0.61566  0.10822  0.52750  1.0000 -0.1807009511
C   C47       1.0  0.89178  0.38434  0.02750  1.0000 -0.1807009511
C   C48       1.0  0.38434  0.89178  0.47250  1.0000 -0.1807009511
C   C49       1.0  0.09527  0.67313  0.92330  1.0000 -0.1807009511
C   C50       1.0  0.67313  0.09527  0.57670  1.0000 -0.1807009511
C   C51       1.0  0.90473  0.32687  0.07670  1.0000 -0.1807009511
C   C52       1.0  0.32687  0.90473  0.42330  1.0000 -0.1807009511
C   C53       1.0  0.07979  0.84179  0.53760  1.0000 -0.1807009511
C   C54       1.0  0.84179  0.07979  0.96240  1.0000 -0.1807009511
C   C55       1.0  0.92021  0.15821  0.46240  1.0000 -0.1807009511
C   C56       1.0  0.15821  0.92021  0.03760  1.0000 -0.1807009511
C   C57       1.0  0.02763  0.57277  0.87230  1.0000 -0.1885143928
C   C58       1.0  0.57277  0.02763  0.62770  1.0000 -0.1885143928
C   C59       1.0  0.97237  0.42723  0.12770  1.0000 -0.1885143928
C   C60       1.0  0.42723  0.97237  0.37230  1.0000 -0.1885143928
C   C61       1.0  0.08485  0.78207  0.53690  1.0000 0.1693032275
C   C62       1.0  0.78207  0.08485  0.96310  1.0000 0.1693032275
C   C63       1.0  0.91515  0.21793  0.46310  1.0000 0.1756189605
C   C64       1.0  0.21793  0.91515  0.03690  1.0000 0.1756189605
C   C65       1.0  0.92815  0.71215  0.52360  1.0000 -0.1807009511
C   C66       1.0  0.71215  0.92815  0.97640  1.0000 -0.1807009511
C   C67       1.0  0.07185  0.28785  0.47640  1.0000 -0.1807009511
C   C68       1.0  0.28785  0.07185  0.02360  1.0000 -0.1807009511
C   C69       1.0  0.86223  0.78341  0.66820  1.0000 0.1400560299
C   C70       1.0  0.78341  0.86223  0.83180  1.0000 0.1400560299
C   C71       1.0  0.13777  0.21659  0.33180  1.0000 0.1400560299
C   C72       1.0  0.21659  0.13777  0.16820  1.0000 0.1400560299
C   C73       1.0  0.12650  0.88570  0.54160  1.0000 -0.1807009511
C   C74       1.0  0.88570  0.12650  0.95840  1.0000 -0.1807009511
C   C75       1.0  0.87350  0.11430  0.45840  1.0000 -0.1807009511
C   C76       1.0  0.11430  0.87350  0.04160  1.0000 -0.1807009511
C   C77       1.0  0.78286  0.85154  0.59190  1.0000 0.0191391636
C   C78       1.0  0.85154  0.78286  0.90810  1.0000 0.0191391636
C   C79       1.0  0.21714  0.14846  0.40810  1.0000 0.0191391636
C   C80       1.0  0.14846  0.21714  0.09190  1.0000 0.0191391636
C   C81       1.0  0.29085  0.90675  0.60680  1.0000 -0.0987022044
C   C82       1.0  0.90675  0.29085  0.89320  1.0000 -0.0987022044
C   C83       1.0  0.70915  0.09325  0.39320  1.0000 -0.0987022044
C   C84       1.0  0.09325  0.70915  0.10680  1.0000 -0.0987022044
C   C85       1.0  0.18999  0.81801  0.77720  1.0000 -0.1885143928
C   C86       1.0  0.81801  0.18999  0.72280  1.0000 -0.1885143928
C   C87       1.0  0.81001  0.18199  0.22280  1.0000 -0.1885143928
C   C88       1.0  0.18199  0.81001  0.27720  1.0000 -0.1885143928
C   C89       1.0  0.04873  0.67427  0.55910  1.0000 0.1400560299
C   C90       1.0  0.67427  0.04873  0.94090  1.0000 0.1400560299
C   C91       1.0  0.95127  0.32573  0.44090  1.0000 0.1400560299
C   C92       1.0  0.32573  0.95127  0.05910  1.0000 0.1400560299
C   C93       1.0  0.14311  0.76969  0.53720  1.0000 -0.1885143928
C   C94       1.0  0.76969  0.14311  0.96280  1.0000 -0.1807009511
C   C95       1.0  0.85689  0.23031  0.46280  1.0000 -0.1807009511
C   C96       1.0  0.23031  0.85689  0.03720  1.0000 -0.1885143928
C   C97       1.0  0.11745  0.49035  0.08290  1.0000 -0.1441889303
C   C98       1.0  0.49035  0.11745  0.41710  1.0000 -0.1441889303
C   C99       1.0  0.88255  0.50965  0.91710  1.0000 -0.1441889303
C   C100      1.0  0.50965  0.88255  0.58290  1.0000 -0.1441889303
C   C101      1.0  0.92810  0.72302  0.78500  1.0000 -0.1885143928
C   C102      1.0  0.72302  0.92810  0.71500  1.0000 -0.1885143928
C   C103      1.0  0.07190  0.27698  0.21500  1.0000 -0.1885143928
C   C104      1.0  0.27698  0.07190  0.28500  1.0000 -0.1885143928
C   C105      1.0  0.33078  0.96222  0.79780  1.0000 -0.0666974849
C   C106      1.0  0.96222  0.33078  0.70220  1.0000 -0.0666974849
C   C107      1.0  0.66922  0.03778  0.20220  1.0000 -0.0666974849
C   C108      1.0  0.03778  0.66922  0.29780  1.0000 -0.0666974849
C   C109      1.0  0.97667  0.74893  0.49330  1.0000 0.1693032275
C   C110      1.0  0.74893  0.97667  0.00670  1.0000 0.1693032275
C   C111      1.0  0.02333  0.25107  0.50670  1.0000 0.1693032275
C   C112      1.0  0.25107  0.02333  0.99330  1.0000 0.1693032275
C   C113      1.0  0.96532  0.79608  0.41900  1.0000 -0.1978278675
C   C114      1.0  0.79608  0.96532  0.08100  1.0000 -0.1885143928
C   C115      1.0  0.03468  0.20392  0.58100  1.0000 -0.1978278675
C   C116      1.0  0.20392  0.03468  0.91900  1.0000 -0.1978278675
C   C117      1.0  0.70070  0.78070  0.31560  1.0000 -0.0581746111
C   C118      1.0  0.78070  0.70070  0.18440  1.0000 -0.0581746111
C   C119      1.0  0.29930  0.21930  0.68440  1.0000 -0.0581746111
C   C120      1.0  0.21930  0.29930  0.81560  1.0000 -0.0581746111
C   C121      1.0  0.32622  0.95978  0.59670  1.0000 -0.053713006
C   C122      1.0  0.95978  0.32622  0.90330  1.0000 -0.053713006
C   C123      1.0  0.67378  0.04022  0.40330  1.0000 -0.053713006
C   C124      1.0  0.04022  0.67378  0.09670  1.0000 -0.053713006
C   C125      1.0  0.07554  0.45546  0.96420  1.0000 0.0635449057
C   C126      1.0  0.45546  0.07554  0.53580  1.0000 0.0635449057
C   C127      1.0  0.92446  0.54454  0.03580  1.0000 0.0635449057
C   C128      1.0  0.54454  0.92446  0.46420  1.0000 0.0635449057
C   C129      1.0  0.08371  0.84397  0.80530  1.0000 -0.1978278675
C   C130      1.0  0.84397  0.08371  0.69470  1.0000 -0.1978278675
C   C131      1.0  0.91629  0.15603  0.19470  1.0000 -0.1978278675
C   C132      1.0  0.15603  0.91629  0.30530  1.0000 -0.1978278675
C   C133      1.0  0.23782  0.97518  0.50860  1.0000 0.0301173972
C   C134      1.0  0.97518  0.23782  0.99140  1.0000 0.0301173972
C   C135      1.0  0.76218  0.02482  0.49140  1.0000 0.0301173972
C   C136      1.0  0.02482  0.76218  0.00860  1.0000 0.0301173972
C   C137      1.0  0.18548  0.87506  0.78770  1.0000 0.1277836511
C   C138      1.0  0.87506  0.18548  0.71230  1.0000 0.1277836511
C   C139      1.0  0.81452  0.12494  0.21230  1.0000 0.1277836511
C   C140      1.0  0.12494  0.81452  0.28770  1.0000 0.1277836511
C   C141      1.0  0.86996  0.72404  0.48360  1.0000 -0.1807009511
C   C142      1.0  0.72404  0.86996  0.01640  1.0000 -0.1807009511
C   C143      1.0  0.13004  0.27596  0.51640  1.0000 -0.1807009511
C   C144      1.0  0.27596  0.13004  0.98360  1.0000 -0.1807009511
C   C145      1.0  0.14120  0.77392  0.78090  1.0000 -0.1807009511
C   C146      1.0  0.77392  0.14120  0.71910  1.0000 -0.1807009511
C   C147      1.0  0.85880  0.22608  0.21910  1.0000 -0.1807009511
C   C148      1.0  0.22608  0.85880  0.28090  1.0000 -0.1807009511
C   C149      1.0  0.91197  0.81643  0.63660  1.0000 -0.1885143928
C   C150      1.0  0.81643  0.91197  0.86340  1.0000 -0.1885143928
C   C151      1.0  0.08803  0.18357  0.36340  1.0000 -0.1885143928
C   C152      1.0  0.18357  0.08803  0.13660  1.0000 -0.1885143928
C   C153      1.0  0.02822  0.64078  0.49750  1.0000 -0.1696275951
C   C154      1.0  0.64078  0.02822  0.00250  1.0000 -0.1696275951
C   C155      1.0  0.97178  0.35922  0.50250  1.0000 -0.1696275951
C   C156      1.0  0.35922  0.97178  0.99750  1.0000 -0.1696275951
C   C157      1.0  0.12300  0.42940  0.09880  1.0000 -0.0337611865
C   C158      1.0  0.42940  0.12300  0.40120  1.0000 -0.0337611865
C   C159      1.0  0.87700  0.57060  0.90120  1.0000 -0.0337611865
C   C160      1.0  0.57060  0.87700  0.59880  1.0000 -0.0337611865
C   C161      1.0  0.08546  0.45336  0.68450  1.0000 0.07466108
C   C162      1.0  0.45336  0.08546  0.81550  1.0000 0.07466108
C   C163      1.0  0.91454  0.54664  0.31550  1.0000 0.0755677959
C   C164      1.0  0.54664  0.91454  0.18450  1.0000 0.07466108
C   C165      1.0  0.85867  0.77093  0.41160  1.0000 0.1400560299
C   C166      1.0  0.77093  0.85867  0.08840  1.0000 0.1400560299
C   C167      1.0  0.14133  0.22907  0.58840  1.0000 0.1400560299
C   C168      1.0  0.22907  0.14133  0.91160  1.0000 0.1400560299
C   C169      1.0  0.78234  0.84246  0.34060  1.0000 0.0191391636
C   C170      1.0  0.84246  0.78234  0.15940  1.0000 0.0191391636
C   C171      1.0  0.21766  0.15754  0.65940  1.0000 0.0191391636
C   C172      1.0  0.15754  0.21766  0.84060  1.0000 0.0191391636
C   C173      1.0  0.90630  0.80710  0.37820  1.0000 -0.1978278675
C   C174      1.0  0.80710  0.90630  0.12180  1.0000 -0.1978278675
C   C175      1.0  0.09370  0.19290  0.62180  1.0000 -0.1978278675
C   C176      1.0  0.19290  0.09370  0.87820  1.0000 -0.1978278675
C   C177      1.0  0.04107  0.58133  0.51400  1.0000 -0.1885143928
C   C178      1.0  0.58133  0.04107  0.98600  1.0000 -0.1885143928
C   C179      1.0  0.95893  0.41867  0.48600  1.0000 -0.1885143928
C   C180      1.0  0.41867  0.95893  0.01400  1.0000 -0.1885143928
C   C181      1.0  0.07412  0.56550  0.94610  1.0000 0.1400560299
C   C182      1.0  0.56550  0.07412  0.55390  1.0000 0.1400560299
C   C183      1.0  0.92588  0.43450  0.05390  1.0000 0.1400560299
C   C184      1.0  0.43450  0.92588  0.44610  1.0000 0.1400560299
C   C185      1.0  0.23552  0.97948  0.74890  1.0000 0.0083515522
C   C186      1.0  0.97948  0.23552  0.75110  1.0000 0.0083515522
C   C187      1.0  0.76448  0.02052  0.25110  1.0000 0.0083515522
C   C188      1.0  0.02052  0.76448  0.24890  1.0000 0.0083515522
C   C189      1.0  0.74570  0.74690  0.35640  1.0000 -0.1101837429
C   C190      1.0  0.74690  0.74570  0.14360  1.0000 -0.1101837429
C   C191      1.0  0.25430  0.25310  0.64360  1.0000 -0.1101837429
C   C192      1.0  0.25310  0.25430  0.85640  1.0000 -0.1101837429
C   C193      1.0  0.11590  0.47150  0.56180  1.0000 -0.1101837429
C   C194      1.0  0.47150  0.11590  0.93820  1.0000 -0.1101837429
C   C195      1.0  0.88410  0.52850  0.43820  1.0000 -0.1101837429
C   C196      1.0  0.52850  0.88410  0.06180  1.0000 -0.1101837429
C   C197      1.0  0.12203  0.41337  0.60380  1.0000 -0.0581746111
C   C198      1.0  0.41337  0.12203  0.89620  1.0000 -0.0581746111
C   C199      1.0  0.87797  0.58663  0.39620  1.0000 -0.0581746111
C   C200      1.0  0.58663  0.87797  0.10380  1.0000 -0.0581746111
C   C201      1.0  0.75350  0.75570  0.59920  1.0000 -0.1314501027
C   C202      1.0  0.75570  0.75350  0.90080  1.0000 -0.1314501027
C   C203      1.0  0.24650  0.24430  0.40080  1.0000 -0.1314501027
C   C204      1.0  0.24430  0.24650  0.09920  1.0000 -0.1314501027
C   C205      1.0  0.08180  0.64860  0.64050  1.0000 -0.1807009511
C   C206      1.0  0.64860  0.08180  0.85950  1.0000 -0.1807009511
C   C207      1.0  0.91820  0.35140  0.35950  1.0000 -0.1807009511
C   C208      1.0  0.35140  0.91820  0.14050  1.0000 -0.1807009511
C   C209      1.0  0.09620  0.59060  0.65870  1.0000 -0.1807009511
C   C210      1.0  0.59060  0.09620  0.84130  1.0000 -0.1696275951
C   C211      1.0  0.90380  0.40940  0.34130  1.0000 -0.1696275951
C   C212      1.0  0.40940  0.90380  0.15870  1.0000 -0.1696275951
C   C213      1.0  0.70700  0.78880  0.55690  1.0000 -0.0385915945
C   C214      1.0  0.78880  0.70700  0.94310  1.0000 -0.0385915945
C   C215      1.0  0.29300  0.21120  0.44310  1.0000 -0.0385915945
C   C216      1.0  0.21120  0.29300  0.05690  1.0000 -0.0385915945
N   N1        1.0  0.03665  0.73705  0.53640  1.0000 -0.1885143928
N   N2        1.0  0.73705  0.03665  0.96360  1.0000 -0.1885143928
N   N3        1.0  0.96335  0.26295  0.46360  1.0000 -0.1885143928
N   N4        1.0  0.26295  0.96335  0.03640  1.0000 -0.1885143928
N   N5        1.0  0.03788  0.74076  0.79860  1.0000 -0.1978278675
N   N6        1.0  0.74076  0.03788  0.70140  1.0000 -0.1978278675
N   N7        1.0  0.96212  0.25924  0.20140  1.0000 -0.1978278675
N   N8        1.0  0.25924  0.96212  0.29860  1.0000 -0.2065601955
N   N9        1.0  0.29173  0.00235  0.53450  1.0000 -0.2780822227
N   N10       1.0  0.00235  0.29173  0.96550  1.0000 -0.2780822227
N   N11       1.0  0.70827  0.99765  0.46550  1.0000 -0.2780822227
N   N12       1.0  0.99765  0.70827  0.03450  1.0000 -0.2780822227
N   N13       1.0  0.23688  0.92024  0.78380  1.0000 0.0083515522
N   N14       1.0  0.92024  0.23688  0.71620  1.0000 0.0083515522
N   N15       1.0  0.76312  0.07976  0.21620  1.0000 0.0083515522
N   N16       1.0  0.07976  0.76312  0.28380  1.0000 0.0083515522
N   N17       1.0  0.09634  0.40860  0.02600  1.0000 -0.2716571847
N   N18       1.0  0.40860  0.09634  0.47400  1.0000 -0.2716571847
N   N19       1.0  0.90366  0.59140  0.97400  1.0000 -0.2716571847
N   N20       1.0  0.59140  0.90366  0.52600  1.0000 -0.2716571847
N   N21       1.0  0.23521  0.91629  0.55170  1.0000 0.0020777621
N   N22       1.0  0.91629  0.23521  0.94830  1.0000 0.0020777621
N   N23       1.0  0.76479  0.08371  0.44830  1.0000 0.0020777621
N   N24       1.0  0.08371  0.76479  0.05170  1.0000 0.0020777621
N   N25       1.0  0.80229  0.79699  0.62230  1.0000 0.0083515522
N   N26       1.0  0.79699  0.80229  0.87770  1.0000 0.0083515522
N   N27       1.0  0.19771  0.20301  0.37770  1.0000 0.0083515522
N   N28       1.0  0.20301  0.19771  0.12230  1.0000 0.0083515522
N   N29       1.0  0.72416  0.84844  0.55190  1.0000 -0.2891478846
N   N30       1.0  0.84844  0.72416  0.94810  1.0000 -0.2891478846
N   N31       1.0  0.27584  0.15156  0.44810  1.0000 -0.2891478846
N   N32       1.0  0.15156  0.27584  0.05190  1.0000 -0.2891478846
N   N33       1.0  0.29227  0.00669  0.75520  1.0000 -0.2891478846
N   N34       1.0  0.00669  0.29227  0.74480  1.0000 -0.2891478846
N   N35       1.0  0.70773  0.99331  0.24480  1.0000 -0.2891478846
N   N36       1.0  0.99331  0.70773  0.25520  1.0000 -0.2891478846
N   N37       1.0  0.79866  0.78626  0.37000  1.0000 0.0083515522
N   N38       1.0  0.78626  0.79866  0.13000  1.0000 0.0083515522
N   N39       1.0  0.20134  0.21374  0.63000  1.0000 0.0083515522
N   N40       1.0  0.21374  0.20134  0.87000  1.0000 0.0083515522
N   N41       1.0  0.10379  0.40221  0.68170  1.0000 -0.2716571847
N   N42       1.0  0.40221  0.10379  0.81830  1.0000 -0.2716571847
N   N43       1.0  0.89621  0.59779  0.31830  1.0000 -0.2716571847
N   N44       1.0  0.59779  0.89621  0.18170  1.0000 -0.2716571847
N   N45       1.0  0.08721  0.50579  0.99520  1.0000 0.0083515522
N   N46       1.0  0.50579  0.08721  0.50480  1.0000 0.0083515522
N   N47       1.0  0.91279  0.49421  0.00480  1.0000 0.0083515522
N   N48       1.0  0.49421  0.91279  0.49520  1.0000 0.0083515522
N   N49       1.0  0.09218  0.49618  0.61310  1.0000 -0.0001057538
N   N50       1.0  0.49618  0.09218  0.88690  1.0000 -0.0001057538
N   N51       1.0  0.90782  0.50382  0.38690  1.0000 -0.0001057538
N   N52       1.0  0.50382  0.90782  0.11310  1.0000 0.0020777621
N   N53       1.0  0.72265  0.84237  0.30380  1.0000 -0.3035274977
N   N54       1.0  0.84237  0.72265  0.19620  1.0000 -0.3035274977
N   N55       1.0  0.27735  0.15763  0.69620  1.0000 -0.3035274977
N   N56       1.0  0.15763  0.27735  0.80380  1.0000 -0.3035274977
O   O1        1.0  0.63381  0.89771  0.37180  1.0000 -0.8640311668
O   O2        1.0  0.89771  0.63381  0.12820  1.0000 -0.8640311668
O   O3        1.0  0.36619  0.10229  0.62820  1.0000 -0.8640311668
O   O4        1.0  0.10229  0.36619  0.87180  1.0000 -0.8640311668
