# DDEC6 charges by PACMAN v1.1 (https://github.com/mtap-research/PACMAN-charge/)
data_2014[Co][nan]3[ASR]21
_chemical_formula_sum              "Co8 H50 C76 N18 O28"
_cell_length_a       12.1772
_cell_length_b       15.5314
_cell_length_c       15.8267
_cell_angle_alpha    76.019
_cell_angle_beta     67.57
_cell_angle_gamma    69.196

_symmetry_space_group_name_H-M    "P 1"
_symmetry_Int_Tables_number       1

loop_
  _symmetry_equiv_pos_as_xyz
  'x, y, z'

loop_
  _atom_site_type_symbol
  _atom_site_label
  _atom_site_symmetry_multiplicity
  _atom_site_fract_x
  _atom_site_fract_y
  _atom_site_fract_z
  _atom_site_occupancy
  _atom_site_charge
Co  Co1       1.0  0.23510  0.67961  0.03105  1.0000 0.80712115
Co  Co2       1.0  0.76490  0.32039  0.96895  1.0000 0.80712115
Co  Co3       1.0  0.04897  0.63356  0.26076  1.0000 0.7746196908
Co  Co4       1.0  0.95103  0.36644  0.73924  1.0000 0.7746196908
Co  Co5       1.0  0.43755  0.66382  0.81036  1.0000 0.7746196908
Co  Co6       1.0  0.56245  0.33618  0.18964  1.0000 0.7746196908
Co  Co7       1.0  0.04536  0.03558  0.21574  1.0000 0.6590073032
Co  Co8       1.0  0.95464  0.96442  0.78426  1.0000 0.6590073032
H   H1        1.0  0.64940  0.83720  0.85730  1.0000 0.1213173073
H   H2        1.0  0.35060  0.16280  0.14270  1.0000 0.1213173073
H   H3        1.0  0.63230  0.91530  0.08630  1.0000 0.1520723326
H   H4        1.0  0.36770  0.08470  0.91370  1.0000 0.1520723326
H   H5        1.0  0.41400  0.76670  0.10070  1.0000 0.1213173073
H   H6        1.0  0.58600  0.23330  0.89930  1.0000 0.1213173073
H   H7        1.0  0.36880  0.76600  0.25820  1.0000 0.1104802446
H   H8        1.0  0.63120  0.23400  0.74180  1.0000 0.1104802446
H   H9        1.0  0.29590  0.85920  0.21340  1.0000 0.1104802446
H   H10       1.0  0.70410  0.14080  0.78660  1.0000 0.1104802446
H   H11       1.0  0.35980  0.97670  0.30640  1.0000 0.135572925
H   H12       1.0  0.64020  0.02330  0.69360  1.0000 0.135572925
H   H13       1.0  0.27080  0.02580  0.44810  1.0000 0.1213173073
H   H14       1.0  0.72920  0.97420  0.55190  1.0000 0.1213173073
H   H15       1.0  0.09420  0.83390  0.54090  1.0000 0.1213173073
H   H16       1.0  0.90580  0.16610  0.45910  1.0000 0.1213173073
H   H17       1.0  0.19890  0.77520  0.40060  1.0000 0.1213173073
H   H18       1.0  0.80110  0.22480  0.59940  1.0000 0.1213173073
H   H19       1.0  0.19190  0.47280  0.80970  1.0000 0.1295904291
H   H20       1.0  0.80810  0.52720  0.19030  1.0000 0.1295904291
H   H21       1.0  0.03240  0.32640  0.04290  1.0000 0.1295904291
H   H22       1.0  0.96760  0.67360  0.95710  1.0000 0.1295904291
H   H23       1.0  0.25570  0.46190  0.04270  1.0000 0.1295904291
H   H24       1.0  0.74430  0.53810  0.95730  1.0000 0.1295904291
H   H25       1.0  0.07830  0.24880  0.19080  1.0000 0.1016967853
H   H26       1.0  0.92170  0.75120  0.80920  1.0000 0.1016967853
H   H27       1.0  0.96890  0.34250  0.19820  1.0000 0.1016967853
H   H28       1.0  0.03110  0.65750  0.80180  1.0000 0.1016967853
H   H29       1.0  0.16540  0.18890  0.31700  1.0000 0.1295904291
H   H30       1.0  0.83460  0.81110  0.68300  1.0000 0.1295904291
H   H31       1.0  0.16730  0.20090  0.45690  1.0000 0.1104802446
H   H32       1.0  0.83270  0.79910  0.54310  1.0000 0.1104802446
H   H33       1.0  0.93260  0.45260  0.45630  1.0000 0.1295904291
H   H34       1.0  0.06740  0.54740  0.54370  1.0000 0.1295904291
H   H35       1.0  0.93260  0.44170  0.31410  1.0000 0.1295904291
H   H36       1.0  0.06740  0.55830  0.68590  1.0000 0.1295904291
H   H37       1.0  0.18220  0.89800  0.06090  1.0000 0.1213173073
H   H38       1.0  0.81780  0.10200  0.93910  1.0000 0.1213173073
H   H39       1.0  0.98940  0.84220  0.31260  1.0000 0.1016967853
H   H40       1.0  0.01060  0.15780  0.68740  1.0000 0.1016967853
H   H41       1.0  0.25780  0.43150  0.29630  1.0000 0.1295904291
H   H42       1.0  0.74220  0.56850  0.70370  1.0000 0.1295904291
H   H43       1.0  0.47230  0.52230  0.07000  1.0000 0.1213173073
H   H44       1.0  0.52770  0.47770  0.93000  1.0000 0.1104802446
H   H45       1.0  0.23350  0.83450  0.72070  1.0000 0.1104802446
H   H46       1.0  0.76650  0.16550  0.27930  1.0000 0.1104802446
H   H47       1.0  0.01710  0.85280  0.96960  1.0000 0.1295904291
H   H48       1.0  0.98290  0.14720  0.03040  1.0000 0.1295904291
H   H49       1.0  0.12050  0.02910  0.67590  1.0000 0.2984999788
H   H50       1.0  0.87950  0.97090  0.32410  1.0000 0.2984999788
C   C1        1.0  0.47840  0.74410  0.93150  1.0000 0.5679321212
C   C2        1.0  0.52160  0.25590  0.06850  1.0000 0.5679321212
C   C3        1.0  0.52550  0.79480  0.97230  1.0000 -0.0100400851
C   C4        1.0  0.47450  0.20520  0.02770  1.0000 -0.0100400851
C   C5        1.0  0.61610  0.83750  0.92080  1.0000 -0.1381698506
C   C6        1.0  0.38390  0.16250  0.07920  1.0000 -0.1345957445
C   C7        1.0  0.65730  0.88150  0.96510  1.0000 -0.0100400851
C   C8        1.0  0.34270  0.11850  0.03490  1.0000 -0.0100400851
C   C9        1.0  0.60460  0.88540  0.05760  1.0000 -0.2076262288
C   C10       1.0  0.39540  0.11460  0.94240  1.0000 -0.2076262288
C   C11       1.0  0.51070  0.84560  0.10920  1.0000 0.2496780825
C   C12       1.0  0.48930  0.15440  0.89080  1.0000 0.2496780825
C   C13       1.0  0.47360  0.79720  0.06620  1.0000 -0.240813114
C   C14       1.0  0.52640  0.20280  0.93380  1.0000 -0.240813114
C   C15       1.0  0.76170  0.92110  0.91190  1.0000 0.539299838
C   C16       1.0  0.23830  0.07890  0.08810  1.0000 0.539299838
C   C17       1.0  0.35250  0.83280  0.24890  1.0000 -0.0605564157
C   C18       1.0  0.64750  0.16720  0.75110  1.0000 -0.0605564157
C   C19       1.0  0.29180  0.86860  0.34030  1.0000 0.0861974381
C   C20       1.0  0.70820  0.13140  0.65970  1.0000 0.0861974381
C   C21       1.0  0.30950  0.94550  0.35430  1.0000 -0.1181813158
C   C22       1.0  0.69050  0.05450  0.64570  1.0000 -0.1181813158
C   C23       1.0  0.25310  0.97610  0.43860  1.0000 -0.1071354153
C   C24       1.0  0.74690  0.02390  0.56140  1.0000 -0.1071354153
C   C25       1.0  0.17220  0.93720  0.50930  1.0000 -0.0413274097
C   C26       1.0  0.82780  0.06280  0.49070  1.0000 -0.0413274097
C   C27       1.0  0.15020  0.86170  0.49440  1.0000 -0.0950308668
C   C28       1.0  0.84980  0.13830  0.50560  1.0000 -0.0950308668
C   C29       1.0  0.21220  0.82720  0.40980  1.0000 -0.1573546457
C   C30       1.0  0.78780  0.17280  0.59020  1.0000 -0.1573546457
C   C31       1.0  0.11510  0.96940  0.60190  1.0000 0.5281224472
C   C32       1.0  0.88490  0.03060  0.39810  1.0000 0.5281224472
C   C33       1.0  0.30820  0.54620  0.87360  1.0000 0.5465050859
C   C34       1.0  0.69180  0.45380  0.12640  1.0000 0.5465050859
C   C35       1.0  0.23510  0.47870  0.91950  1.0000 0.0004432746
C   C36       1.0  0.76490  0.52130  0.08050  1.0000 0.0004432746
C   C37       1.0  0.17910  0.45230  0.87200  1.0000 -0.1512900593
C   C38       1.0  0.82090  0.54770  0.12800  1.0000 -0.1512900593
C   C39       1.0  0.10370  0.39480  0.91920  1.0000 0.0051148364
C   C40       1.0  0.89630  0.60520  0.08080  1.0000 0.0051148364
C   C41       1.0  0.08490  0.36340  0.01160  1.0000 -0.2334286424
C   C42       1.0  0.91510  0.63660  0.98840  1.0000 -0.2334286424
C   C43       1.0  0.14430  0.38710  0.05690  1.0000 0.2496780825
C   C44       1.0  0.85570  0.61290  0.94310  1.0000 0.2496780825
C   C45       1.0  0.21730  0.44500  0.01110  1.0000 -0.2173328576
C   C46       1.0  0.78270  0.55500  0.98890  1.0000 -0.2173328576
C   C47       1.0  0.03290  0.37350  0.87130  1.0000 0.5679321212
C   C48       1.0  0.96710  0.62650  0.12870  1.0000 0.5679321212
C   C49       1.0  0.05030  0.31200  0.20490  1.0000 -0.0605564157
C   C50       1.0  0.94970  0.68800  0.79510  1.0000 -0.0605564157
C   C51       1.0  0.04660  0.31370  0.30090  1.0000 0.0861974381
C   C52       1.0  0.95340  0.68630  0.69910  1.0000 0.084477335
C   C53       1.0  0.11740  0.24280  0.34440  1.0000 -0.1381698506
C   C54       1.0  0.88260  0.75720  0.65560  1.0000 -0.1381698506
C   C55       1.0  0.11840  0.25020  0.42800  1.0000 -0.1181813158
C   C56       1.0  0.88160  0.74980  0.57200  1.0000 -0.1181813158
C   C57       1.0  0.05070  0.32700  0.47000  1.0000 -0.0255328354
C   C58       1.0  0.94930  0.67300  0.53000  1.0000 -0.0255328354
C   C59       1.0  0.98020  0.39900  0.42820  1.0000 -0.0915250408
C   C60       1.0  0.01980  0.60100  0.57180  1.0000 -0.0915250408
C   C61       1.0  0.98000  0.39170  0.34350  1.0000 -0.1381698506
C   C62       1.0  0.02000  0.60830  0.65650  1.0000 -0.1381698506
C   C63       1.0  0.05090  0.33220  0.56530  1.0000 0.5465050859
C   C64       1.0  0.94910  0.66780  0.43470  1.0000 0.5465050859
C   C65       1.0  0.14330  0.86620  0.11560  1.0000 0.1591250323
C   C66       1.0  0.85670  0.13380  0.88440  1.0000 0.1591250323
C   C67       1.0  0.03880  0.83630  0.25150  1.0000 0.1295904291
C   C68       1.0  0.96120  0.16370  0.74850  1.0000 0.1295904291
C   C69       1.0  0.28740  0.46750  0.24150  1.0000 0.17022223
C   C70       1.0  0.71260  0.53250  0.75850  1.0000 0.17022223
C   C71       1.0  0.40210  0.51670  0.11980  1.0000 0.17022223
C   C72       1.0  0.59790  0.48330  0.88020  1.0000 0.17022223
C   C73       1.0  0.20140  0.82520  0.78470  1.0000 0.1591250323
C   C74       1.0  0.79860  0.17480  0.21530  1.0000 0.1591250323
C   C75       1.0  0.08560  0.83470  0.91810  1.0000 0.1591250323
C   C76       1.0  0.91440  0.16530  0.08190  1.0000 0.1591250323
N   N1        1.0  0.14760  0.77910  0.12380  1.0000 -0.2173328576
N   N2        1.0  0.85240  0.22090  0.87620  1.0000 -0.2173328576
N   N3        1.0  0.07730  0.75910  0.21390  1.0000 -0.2076262288
N   N4        1.0  0.92270  0.24090  0.78610  1.0000 -0.2076262288
N   N5        1.0  0.07780  0.90440  0.19310  1.0000 -0.357898392
N   N6        1.0  0.92220  0.09560  0.80690  1.0000 -0.357898392
N   N7        1.0  0.29320  0.57450  0.12850  1.0000 -0.2076262288
N   N8        1.0  0.70680  0.42550  0.87150  1.0000 -0.2076262288
N   N9        1.0  0.21650  0.54230  0.20940  1.0000 -0.2173328576
N   N10       1.0  0.78350  0.45770  0.79060  1.0000 -0.2173328576
N   N11       1.0  0.40440  0.44770  0.18940  1.0000 -0.3310173231
N   N12       1.0  0.59560  0.55230  0.81060  1.0000 -0.3310173231
N   N13       1.0  0.18610  0.77330  0.92320  1.0000 -0.1955781805
N   N14       1.0  0.81390  0.22670  0.07680  1.0000 -0.1955781805
N   N15       1.0  0.26440  0.76630  0.83460  1.0000 -0.1889780539
N   N16       1.0  0.73560  0.23370  0.16540  1.0000 -0.1889780539
N   N17       1.0  0.08780  0.87120  0.83130  1.0000 -0.357898392
N   N18       1.0  0.91220  0.12880  0.16870  1.0000 -0.357898392
O   O1        1.0  0.40990  0.69670  0.98470  1.0000 -0.5584232586
O   O2        1.0  0.59010  0.30330  0.01530  1.0000 -0.5584232586
O   O3        1.0  0.50840  0.75130  0.84480  1.0000 -0.5378667044
O   O4        1.0  0.49160  0.24870  0.15520  1.0000 -0.5378667044
O   O5        1.0  0.80400  0.92250  0.82500  1.0000 -0.520002343
O   O6        1.0  0.19600  0.07750  0.17500  1.0000 -0.520002343
O   O7        1.0  0.80970  0.94960  0.95310  1.0000 -0.5584232586
O   O8        1.0  0.19030  0.05040  0.04690  1.0000 -0.5584232586
O   O9        1.0  0.02220  0.94510  0.65420  1.0000 -0.4849863129
O   O10       1.0  0.97780  0.05490  0.34580  1.0000 -0.4849863129
O   O11       1.0  0.16120  0.01630  0.62330  1.0000 -0.357898392
O   O12       1.0  0.83880  0.98370  0.37670  1.0000 -0.357898392
O   O13       1.0  0.46160  0.85400  0.20000  1.0000 -0.1181813158
O   O14       1.0  0.53840  0.14600  0.80000  1.0000 -0.1181813158
O   O15       1.0  0.32920  0.58550  0.92470  1.0000 -0.5584232586
O   O16       1.0  0.67080  0.41450  0.07530  1.0000 -0.5584232586
O   O17       1.0  0.34830  0.56280  0.78870  1.0000 -0.520002343
O   O18       1.0  0.65170  0.43720  0.21130  1.0000 -0.520002343
O   O19       1.0  0.07020  0.38410  0.78430  1.0000 -0.5108813571
O   O20       1.0  0.92980  0.61590  0.21570  1.0000 -0.5108813571
O   O21       1.0  0.93870  0.34860  0.91940  1.0000 -0.5697399157
O   O22       1.0  0.06130  0.65140  0.08060  1.0000 -0.5697399157
O   O23       1.0  0.13200  0.27890  0.59470  1.0000 -0.5108813571
O   O24       1.0  0.86800  0.72110  0.40530  1.0000 -0.5108813571
O   O25       1.0  0.95820  0.39290  0.61090  1.0000 -0.5378667044
O   O26       1.0  0.04180  0.60710  0.38910  1.0000 -0.5378667044
O   O27       1.0  0.13660  0.36130  0.14640  1.0000 -0.165665962
O   O28       1.0  0.86340  0.63870  0.85360  1.0000 -0.165665962
