# DDEC6 charges by PACMAN v1.1 (https://github.com/mtap-research/PACMAN-charge/)
data_2014[Ag][mtn]3[ASR]2
_chemical_formula_sum              "Ag34 H816 C408 N136"
_cell_length_a       32.2518
_cell_length_b       32.2518
_cell_length_c       32.2518
_cell_angle_alpha    60
_cell_angle_beta     60
_cell_angle_gamma    60

_symmetry_space_group_name_H-M    "P 1"
_symmetry_Int_Tables_number       1

loop_
  _symmetry_equiv_pos_as_xyz
  'x, y, z'

loop_
  _atom_site_type_symbol
  _atom_site_label
  _atom_site_symmetry_multiplicity
  _atom_site_fract_x
  _atom_site_fract_y
  _atom_site_fract_z
  _atom_site_occupancy
  _atom_site_charge
Ag  Ag1       1.0  0.25000  0.25000  0.25000  1.0000 0.1601826037
Ag  Ag2       1.0  0.00000  0.00000  0.00000  1.0000 0.1601826037
Ag  Ag3       1.0  0.97220  0.34260  0.34260  1.0000 0.1601826037
Ag  Ag4       1.0  0.90740  0.90740  0.27780  1.0000 0.1601826037
Ag  Ag5       1.0  0.34260  0.97220  0.34260  1.0000 0.1601826037
Ag  Ag6       1.0  0.90740  0.90740  0.90740  1.0000 0.1601826037
Ag  Ag7       1.0  0.34260  0.34260  0.34260  1.0000 0.1601826037
Ag  Ag8       1.0  0.90740  0.27780  0.90740  1.0000 0.1601826037
Ag  Ag9       1.0  0.34260  0.34260  0.97220  1.0000 0.1601826037
Ag  Ag10      1.0  0.27780  0.90740  0.90740  1.0000 0.1601826037
Ag  Ag11      1.0  0.88886  0.49634  0.49634  1.0000 0.1513669402
Ag  Ag12      1.0  0.13154  0.75366  0.36114  1.0000 0.1513669402
Ag  Ag13      1.0  0.49634  0.88886  0.11846  1.0000 0.1513669402
Ag  Ag14      1.0  0.75366  0.13154  0.75366  1.0000 0.1513669402
Ag  Ag15      1.0  0.75366  0.13154  0.36114  1.0000 0.1513669402
Ag  Ag16      1.0  0.11846  0.49634  0.49634  1.0000 0.1513669402
Ag  Ag17      1.0  0.75366  0.36114  0.13154  1.0000 0.1513669402
Ag  Ag18      1.0  0.75366  0.75366  0.13154  1.0000 0.1513669402
Ag  Ag19      1.0  0.49634  0.11846  0.88886  1.0000 0.1513669402
Ag  Ag20      1.0  0.13154  0.36114  0.75366  1.0000 0.1513669402
Ag  Ag21      1.0  0.49634  0.88886  0.49634  1.0000 0.1513669402
Ag  Ag22      1.0  0.49634  0.49634  0.88886  1.0000 0.1513669402
Ag  Ag23      1.0  0.49634  0.49634  0.11846  1.0000 0.1513669402
Ag  Ag24      1.0  0.11846  0.49634  0.88886  1.0000 0.1513669402
Ag  Ag25      1.0  0.88886  0.11846  0.49634  1.0000 0.1513669402
Ag  Ag26      1.0  0.88886  0.49634  0.11846  1.0000 0.1513669402
Ag  Ag27      1.0  0.49634  0.11846  0.49634  1.0000 0.1513669402
Ag  Ag28      1.0  0.11846  0.88886  0.49634  1.0000 0.1513669402
Ag  Ag29      1.0  0.36114  0.75366  0.13154  1.0000 0.1513669402
Ag  Ag30      1.0  0.75366  0.36114  0.75366  1.0000 0.1513669402
Ag  Ag31      1.0  0.13154  0.75366  0.75366  1.0000 0.1513669402
Ag  Ag32      1.0  0.36114  0.75366  0.75366  1.0000 0.1513669402
Ag  Ag33      1.0  0.36114  0.13154  0.75366  1.0000 0.1513669402
Ag  Ag34      1.0  0.75366  0.75366  0.36114  1.0000 0.1513669402
H   H1        1.0  0.15430  0.27350  0.34850  1.0000 0.0904659663
H   H2        1.0  0.02630  0.90150  0.09570  1.0000 0.0904659663
H   H3        1.0  0.27350  0.15430  0.22370  1.0000 0.0904659663
H   H4        1.0  0.90150  0.02630  0.97650  1.0000 0.0904659663
H   H5        1.0  0.97650  0.02630  0.09570  1.0000 0.0904659663
H   H6        1.0  0.22370  0.34850  0.27350  1.0000 0.0904659663
H   H7        1.0  0.90150  0.09570  0.02630  1.0000 0.0904659663
H   H8        1.0  0.97650  0.90150  0.02630  1.0000 0.0904659663
H   H9        1.0  0.34850  0.22370  0.15430  1.0000 0.0904659663
H   H10       1.0  0.02630  0.09570  0.97650  1.0000 0.0904659663
H   H11       1.0  0.34850  0.15430  0.27350  1.0000 0.0904659663
H   H12       1.0  0.27350  0.34850  0.15430  1.0000 0.0904659663
H   H13       1.0  0.34850  0.27350  0.22370  1.0000 0.0904659663
H   H14       1.0  0.22370  0.27350  0.15430  1.0000 0.0904659663
H   H15       1.0  0.15430  0.22370  0.27350  1.0000 0.0904659663
H   H16       1.0  0.15430  0.34850  0.22370  1.0000 0.0904659663
H   H17       1.0  0.27350  0.22370  0.34850  1.0000 0.0904659663
H   H18       1.0  0.22370  0.15430  0.34850  1.0000 0.0904659663
H   H19       1.0  0.09570  0.97650  0.02630  1.0000 0.0904659663
H   H20       1.0  0.97650  0.09570  0.90150  1.0000 0.0904659663
H   H21       1.0  0.02630  0.97650  0.90150  1.0000 0.0904659663
H   H22       1.0  0.09570  0.90150  0.97650  1.0000 0.0904659663
H   H23       1.0  0.09570  0.02630  0.90150  1.0000 0.0904659663
H   H24       1.0  0.90150  0.97650  0.09570  1.0000 0.0904659663
H   H25       1.0  0.09570  0.97650  0.90150  1.0000 0.0904659663
H   H26       1.0  0.22370  0.34850  0.15430  1.0000 0.0904659663
H   H27       1.0  0.97650  0.09570  0.02630  1.0000 0.0904659663
H   H28       1.0  0.34850  0.22370  0.27350  1.0000 0.0904659663
H   H29       1.0  0.27350  0.22370  0.15430  1.0000 0.0904659663
H   H30       1.0  0.02630  0.90150  0.97650  1.0000 0.0904659663
H   H31       1.0  0.34850  0.15430  0.22370  1.0000 0.0904659663
H   H32       1.0  0.27350  0.34850  0.22370  1.0000 0.0904659663
H   H33       1.0  0.90150  0.02630  0.09570  1.0000 0.0904659663
H   H34       1.0  0.22370  0.15430  0.27350  1.0000 0.0904659663
H   H35       1.0  0.90150  0.09570  0.97650  1.0000 0.0904659663
H   H36       1.0  0.97650  0.90150  0.09570  1.0000 0.0904659663
H   H37       1.0  0.90150  0.97650  0.02630  1.0000 0.0904659663
H   H38       1.0  0.02630  0.97650  0.09570  1.0000 0.0904659663
H   H39       1.0  0.09570  0.02630  0.97650  1.0000 0.0904659663
H   H40       1.0  0.09570  0.90150  0.02630  1.0000 0.0904659663
H   H41       1.0  0.97650  0.02630  0.90150  1.0000 0.0904659663
H   H42       1.0  0.02630  0.09570  0.90150  1.0000 0.0904659663
H   H43       1.0  0.15430  0.27350  0.22370  1.0000 0.0904659663
H   H44       1.0  0.27350  0.15430  0.34850  1.0000 0.0904659663
H   H45       1.0  0.22370  0.27350  0.34850  1.0000 0.0904659663
H   H46       1.0  0.15430  0.34850  0.27350  1.0000 0.0904659663
H   H47       1.0  0.15430  0.22370  0.34850  1.0000 0.0904659663
H   H48       1.0  0.34850  0.27350  0.15430  1.0000 0.0904659663
H   H49       1.0  0.06860  0.25260  0.37660  1.0000 0.0904659663
H   H50       1.0  0.94780  0.87340  0.18140  1.0000 0.0904659663
H   H51       1.0  0.25260  0.06860  0.30220  1.0000 0.0904659663
H   H52       1.0  0.87340  0.94780  0.99740  1.0000 0.0904659663
H   H53       1.0  0.99740  0.94780  0.18140  1.0000 0.0904659663
H   H54       1.0  0.30220  0.37660  0.25260  1.0000 0.0904659663
H   H55       1.0  0.87340  0.18140  0.94780  1.0000 0.0904659663
H   H56       1.0  0.99740  0.87340  0.94780  1.0000 0.0904659663
H   H57       1.0  0.37660  0.30220  0.06860  1.0000 0.0904659663
H   H58       1.0  0.94780  0.18140  0.99740  1.0000 0.0904659663
H   H59       1.0  0.37660  0.06860  0.25260  1.0000 0.0904659663
H   H60       1.0  0.25260  0.37660  0.06860  1.0000 0.0904659663
H   H61       1.0  0.37660  0.25260  0.30220  1.0000 0.0904659663
H   H62       1.0  0.30220  0.25260  0.06860  1.0000 0.0904659663
H   H63       1.0  0.06860  0.30220  0.25260  1.0000 0.0904659663
H   H64       1.0  0.06860  0.37660  0.30220  1.0000 0.0904659663
H   H65       1.0  0.25260  0.30220  0.37660  1.0000 0.0904659663
H   H66       1.0  0.30220  0.06860  0.37660  1.0000 0.0904659663
H   H67       1.0  0.18140  0.99740  0.94780  1.0000 0.0904659663
H   H68       1.0  0.99740  0.18140  0.87340  1.0000 0.0904659663
H   H69       1.0  0.94780  0.99740  0.87340  1.0000 0.0904659663
H   H70       1.0  0.18140  0.87340  0.99740  1.0000 0.0904659663
H   H71       1.0  0.18140  0.94780  0.87340  1.0000 0.0904659663
H   H72       1.0  0.87340  0.99740  0.18140  1.0000 0.0904659663
H   H73       1.0  0.18140  0.99740  0.87340  1.0000 0.0904659663
H   H74       1.0  0.30220  0.37660  0.06860  1.0000 0.0904659663
H   H75       1.0  0.99740  0.18140  0.94780  1.0000 0.0904659663
H   H76       1.0  0.37660  0.30220  0.25260  1.0000 0.0904659663
H   H77       1.0  0.25260  0.30220  0.06860  1.0000 0.0904659663
H   H78       1.0  0.94780  0.87340  0.99740  1.0000 0.0904659663
H   H79       1.0  0.37660  0.06860  0.30220  1.0000 0.0904659663
H   H80       1.0  0.25260  0.37660  0.30220  1.0000 0.0904659663
H   H81       1.0  0.87340  0.94780  0.18140  1.0000 0.0904659663
H   H82       1.0  0.30220  0.06860  0.25260  1.0000 0.0904659663
H   H83       1.0  0.87340  0.18140  0.99740  1.0000 0.0904659663
H   H84       1.0  0.99740  0.87340  0.18140  1.0000 0.0904659663
H   H85       1.0  0.87340  0.99740  0.94780  1.0000 0.0904659663
H   H86       1.0  0.94780  0.99740  0.18140  1.0000 0.0904659663
H   H87       1.0  0.18140  0.94780  0.99740  1.0000 0.0904659663
H   H88       1.0  0.18140  0.87340  0.94780  1.0000 0.0904659663
H   H89       1.0  0.99740  0.94780  0.87340  1.0000 0.0904659663
H   H90       1.0  0.94780  0.18140  0.87340  1.0000 0.0904659663
H   H91       1.0  0.06860  0.25260  0.30220  1.0000 0.0904659663
H   H92       1.0  0.25260  0.06860  0.37660  1.0000 0.0904659663
H   H93       1.0  0.30220  0.25260  0.37660  1.0000 0.0904659663
H   H94       1.0  0.06860  0.37660  0.25260  1.0000 0.0904659663
H   H95       1.0  0.06860  0.30220  0.37660  1.0000 0.0904659663
H   H96       1.0  0.37660  0.25260  0.06860  1.0000 0.0904659663
H   H97       1.0  0.87610  0.38310  0.43290  1.0000 0.0904659663
H   H98       1.0  0.94210  0.81710  0.37390  1.0000 0.0904659663
H   H99       1.0  0.38310  0.87610  0.30790  1.0000 0.0904659663
H   H100      1.0  0.81710  0.94210  0.86690  1.0000 0.0904659663
H   H101      1.0  0.86690  0.94210  0.37390  1.0000 0.0904659663
H   H102      1.0  0.30790  0.43290  0.38310  1.0000 0.0904659663
H   H103      1.0  0.81710  0.37390  0.94210  1.0000 0.0904659663
H   H104      1.0  0.86690  0.81710  0.94210  1.0000 0.0904659663
H   H105      1.0  0.43290  0.30790  0.87610  1.0000 0.0904659663
H   H106      1.0  0.94210  0.37390  0.86690  1.0000 0.0904659663
H   H107      1.0  0.43290  0.87610  0.38310  1.0000 0.0904659663
H   H108      1.0  0.38310  0.43290  0.87610  1.0000 0.0904659663
H   H109      1.0  0.43290  0.38310  0.30790  1.0000 0.0904659663
H   H110      1.0  0.30790  0.38310  0.87610  1.0000 0.0904659663
H   H111      1.0  0.87610  0.30790  0.38310  1.0000 0.0904659663
H   H112      1.0  0.87610  0.43290  0.30790  1.0000 0.0904659663
H   H113      1.0  0.38310  0.30790  0.43290  1.0000 0.0904659663
H   H114      1.0  0.30790  0.87610  0.43290  1.0000 0.0904659663
H   H115      1.0  0.37390  0.86690  0.94210  1.0000 0.0904659663
H   H116      1.0  0.86690  0.37390  0.81710  1.0000 0.0904659663
H   H117      1.0  0.94210  0.86690  0.81710  1.0000 0.0904659663
H   H118      1.0  0.37390  0.81710  0.86690  1.0000 0.0904659663
H   H119      1.0  0.37390  0.94210  0.81710  1.0000 0.0904659663
H   H120      1.0  0.81710  0.86690  0.37390  1.0000 0.0904659663
H   H121      1.0  0.37390  0.86690  0.81710  1.0000 0.0904659663
H   H122      1.0  0.30790  0.43290  0.87610  1.0000 0.0904659663
H   H123      1.0  0.86690  0.37390  0.94210  1.0000 0.0904659663
H   H124      1.0  0.43290  0.30790  0.38310  1.0000 0.0904659663
H   H125      1.0  0.38310  0.30790  0.87610  1.0000 0.0904659663
H   H126      1.0  0.94210  0.81710  0.86690  1.0000 0.0904659663
H   H127      1.0  0.43290  0.87610  0.30790  1.0000 0.0904659663
H   H128      1.0  0.38310  0.43290  0.30790  1.0000 0.0904659663
H   H129      1.0  0.81710  0.94210  0.37390  1.0000 0.0904659663
H   H130      1.0  0.30790  0.87610  0.38310  1.0000 0.0904659663
H   H131      1.0  0.81710  0.37390  0.86690  1.0000 0.0904659663
H   H132      1.0  0.86690  0.81710  0.37390  1.0000 0.0904659663
H   H133      1.0  0.81710  0.86690  0.94210  1.0000 0.0904659663
H   H134      1.0  0.94210  0.86690  0.37390  1.0000 0.0904659663
H   H135      1.0  0.37390  0.94210  0.86690  1.0000 0.0904659663
H   H136      1.0  0.37390  0.81710  0.94210  1.0000 0.0904659663
H   H137      1.0  0.86690  0.94210  0.81710  1.0000 0.0904659663
H   H138      1.0  0.94210  0.37390  0.81710  1.0000 0.0904659663
H   H139      1.0  0.87610  0.38310  0.30790  1.0000 0.0904659663
H   H140      1.0  0.38310  0.87610  0.43290  1.0000 0.0904659663
H   H141      1.0  0.30790  0.38310  0.43290  1.0000 0.0904659663
H   H142      1.0  0.87610  0.43290  0.38310  1.0000 0.0904659663
H   H143      1.0  0.87610  0.30790  0.43290  1.0000 0.0904659663
H   H144      1.0  0.43290  0.38310  0.87610  1.0000 0.0904659663
H   H145      1.0  0.85070  0.47930  0.42950  1.0000 0.0904659663
H   H146      1.0  0.00950  0.82050  0.39930  1.0000 0.0904659663
H   H147      1.0  0.47930  0.85070  0.24050  1.0000 0.0904659663
H   H148      1.0  0.82050  0.00950  0.77070  1.0000 0.0904659663
H   H149      1.0  0.77070  0.00950  0.39930  1.0000 0.0904659663
H   H150      1.0  0.24050  0.42950  0.47930  1.0000 0.0904659663
H   H151      1.0  0.82050  0.39930  0.00950  1.0000 0.0904659663
H   H152      1.0  0.77070  0.82050  0.00950  1.0000 0.0904659663
H   H153      1.0  0.42950  0.24050  0.85070  1.0000 0.0904659663
H   H154      1.0  0.00950  0.39930  0.77070  1.0000 0.0904659663
H   H155      1.0  0.42950  0.85070  0.47930  1.0000 0.0904659663
H   H156      1.0  0.47930  0.42950  0.85070  1.0000 0.0904659663
H   H157      1.0  0.42950  0.47930  0.24050  1.0000 0.0904659663
H   H158      1.0  0.24050  0.47930  0.85070  1.0000 0.0904659663
H   H159      1.0  0.85070  0.24050  0.47930  1.0000 0.0904659663
H   H160      1.0  0.85070  0.42950  0.24050  1.0000 0.0904659663
H   H161      1.0  0.47930  0.24050  0.42950  1.0000 0.0904659663
H   H162      1.0  0.24050  0.85070  0.42950  1.0000 0.0904659663
H   H163      1.0  0.39930  0.77070  0.00950  1.0000 0.0904659663
H   H164      1.0  0.77070  0.39930  0.82050  1.0000 0.0904659663
H   H165      1.0  0.00950  0.77070  0.82050  1.0000 0.0904659663
H   H166      1.0  0.39930  0.82050  0.77070  1.0000 0.0904659663
H   H167      1.0  0.39930  0.00950  0.82050  1.0000 0.0904659663
H   H168      1.0  0.82050  0.77070  0.39930  1.0000 0.0904659663
H   H169      1.0  0.39930  0.77070  0.82050  1.0000 0.0904659663
H   H170      1.0  0.24050  0.42950  0.85070  1.0000 0.0904659663
H   H171      1.0  0.77070  0.39930  0.00950  1.0000 0.0904659663
H   H172      1.0  0.42950  0.24050  0.47930  1.0000 0.0904659663
H   H173      1.0  0.47930  0.24050  0.85070  1.0000 0.0904659663
H   H174      1.0  0.00950  0.82050  0.77070  1.0000 0.0904659663
H   H175      1.0  0.42950  0.85070  0.24050  1.0000 0.0904659663
H   H176      1.0  0.47930  0.42950  0.24050  1.0000 0.0904659663
H   H177      1.0  0.82050  0.00950  0.39930  1.0000 0.0904659663
H   H178      1.0  0.24050  0.85070  0.47930  1.0000 0.0904659663
H   H179      1.0  0.82050  0.39930  0.77070  1.0000 0.0904659663
H   H180      1.0  0.77070  0.82050  0.39930  1.0000 0.0904659663
H   H181      1.0  0.82050  0.77070  0.00950  1.0000 0.0904659663
H   H182      1.0  0.00950  0.77070  0.39930  1.0000 0.0904659663
H   H183      1.0  0.39930  0.00950  0.77070  1.0000 0.0904659663
H   H184      1.0  0.39930  0.82050  0.00950  1.0000 0.0904659663
H   H185      1.0  0.77070  0.00950  0.82050  1.0000 0.0904659663
H   H186      1.0  0.00950  0.39930  0.82050  1.0000 0.0904659663
H   H187      1.0  0.85070  0.47930  0.24050  1.0000 0.0904659663
H   H188      1.0  0.47930  0.85070  0.42950  1.0000 0.0904659663
H   H189      1.0  0.24050  0.47930  0.42950  1.0000 0.0904659663
H   H190      1.0  0.85070  0.42950  0.47930  1.0000 0.0904659663
H   H191      1.0  0.85070  0.24050  0.42950  1.0000 0.0904659663
H   H192      1.0  0.42950  0.47930  0.85070  1.0000 0.0904659663
H   H193      1.0  0.92530  0.37790  0.50250  1.0000 0.0904659663
H   H194      1.0  0.05570  0.74750  0.32470  1.0000 0.0904659663
H   H195      1.0  0.37790  0.92530  0.19430  1.0000 0.0904659663
H   H196      1.0  0.74750  0.05570  0.87210  1.0000 0.0904659663
H   H197      1.0  0.87210  0.05570  0.32470  1.0000 0.0904659663
H   H198      1.0  0.19430  0.50250  0.37790  1.0000 0.0904659663
H   H199      1.0  0.74750  0.32470  0.05570  1.0000 0.0904659663
H   H200      1.0  0.87210  0.74750  0.05570  1.0000 0.0904659663
H   H201      1.0  0.50250  0.19430  0.92530  1.0000 0.0904659663
H   H202      1.0  0.05570  0.32470  0.87210  1.0000 0.0904659663
H   H203      1.0  0.50250  0.92530  0.37790  1.0000 0.0904659663
H   H204      1.0  0.37790  0.50250  0.92530  1.0000 0.0904659663
H   H205      1.0  0.50250  0.37790  0.19430  1.0000 0.0904659663
H   H206      1.0  0.19430  0.37790  0.92530  1.0000 0.0904659663
H   H207      1.0  0.92530  0.19430  0.37790  1.0000 0.0904659663
H   H208      1.0  0.92530  0.50250  0.19430  1.0000 0.0904659663
H   H209      1.0  0.37790  0.19430  0.50250  1.0000 0.0904659663
H   H210      1.0  0.19430  0.92530  0.50250  1.0000 0.0904659663
H   H211      1.0  0.32470  0.87210  0.05570  1.0000 0.0904659663
H   H212      1.0  0.87210  0.32470  0.74750  1.0000 0.0904659663
H   H213      1.0  0.05570  0.87210  0.74750  1.0000 0.0904659663
H   H214      1.0  0.32470  0.74750  0.87210  1.0000 0.0904659663
H   H215      1.0  0.32470  0.05570  0.74750  1.0000 0.0904659663
H   H216      1.0  0.74750  0.87210  0.32470  1.0000 0.0904659663
H   H217      1.0  0.32470  0.87210  0.74750  1.0000 0.0904659663
H   H218      1.0  0.19430  0.50250  0.92530  1.0000 0.0904659663
H   H219      1.0  0.87210  0.32470  0.05570  1.0000 0.0904659663
H   H220      1.0  0.50250  0.19430  0.37790  1.0000 0.0904659663
H   H221      1.0  0.37790  0.19430  0.92530  1.0000 0.0904659663
H   H222      1.0  0.05570  0.74750  0.87210  1.0000 0.0904659663
H   H223      1.0  0.50250  0.92530  0.19430  1.0000 0.0904659663
H   H224      1.0  0.37790  0.50250  0.19430  1.0000 0.0904659663
H   H225      1.0  0.74750  0.05570  0.32470  1.0000 0.0904659663
H   H226      1.0  0.19430  0.92530  0.37790  1.0000 0.0904659663
H   H227      1.0  0.74750  0.32470  0.87210  1.0000 0.0904659663
H   H228      1.0  0.87210  0.74750  0.32470  1.0000 0.0904659663
H   H229      1.0  0.74750  0.87210  0.05570  1.0000 0.0904659663
H   H230      1.0  0.05570  0.87210  0.32470  1.0000 0.0904659663
H   H231      1.0  0.32470  0.05570  0.87210  1.0000 0.0904659663
H   H232      1.0  0.32470  0.74750  0.05570  1.0000 0.0904659663
H   H233      1.0  0.87210  0.05570  0.74750  1.0000 0.0904659663
H   H234      1.0  0.05570  0.32470  0.74750  1.0000 0.0904659663
H   H235      1.0  0.92530  0.37790  0.19430  1.0000 0.0904659663
H   H236      1.0  0.37790  0.92530  0.50250  1.0000 0.0904659663
H   H237      1.0  0.19430  0.37790  0.50250  1.0000 0.0904659663
H   H238      1.0  0.92530  0.50250  0.37790  1.0000 0.0904659663
H   H239      1.0  0.92530  0.19430  0.50250  1.0000 0.0904659663
H   H240      1.0  0.50250  0.37790  0.92530  1.0000 0.0904659663
H   H241      1.0  0.97530  0.39390  0.46970  1.0000 0.0904659663
H   H242      1.0  0.08890  0.78030  0.27470  1.0000 0.0904659663
H   H243      1.0  0.39390  0.97530  0.16110  1.0000 0.0904659663
H   H244      1.0  0.78030  0.08890  0.85610  1.0000 0.0904659663
H   H245      1.0  0.85610  0.08890  0.27470  1.0000 0.0904659663
H   H246      1.0  0.16110  0.46970  0.39390  1.0000 0.0904659663
H   H247      1.0  0.78030  0.27470  0.08890  1.0000 0.0904659663
H   H248      1.0  0.85610  0.78030  0.08890  1.0000 0.0904659663
H   H249      1.0  0.46970  0.16110  0.97530  1.0000 0.0904659663
H   H250      1.0  0.08890  0.27470  0.85610  1.0000 0.0904659663
H   H251      1.0  0.46970  0.97530  0.39390  1.0000 0.0904659663
H   H252      1.0  0.39390  0.46970  0.97530  1.0000 0.0904659663
H   H253      1.0  0.46970  0.39390  0.16110  1.0000 0.0904659663
H   H254      1.0  0.16110  0.39390  0.97530  1.0000 0.0904659663
H   H255      1.0  0.97530  0.16110  0.39390  1.0000 0.0904659663
H   H256      1.0  0.97530  0.46970  0.16110  1.0000 0.0904659663
H   H257      1.0  0.39390  0.16110  0.46970  1.0000 0.0904659663
H   H258      1.0  0.16110  0.97530  0.46970  1.0000 0.0904659663
H   H259      1.0  0.27470  0.85610  0.08890  1.0000 0.0904659663
H   H260      1.0  0.85610  0.27470  0.78030  1.0000 0.0904659663
H   H261      1.0  0.08890  0.85610  0.78030  1.0000 0.0904659663
H   H262      1.0  0.27470  0.78030  0.85610  1.0000 0.0904659663
H   H263      1.0  0.27470  0.08890  0.78030  1.0000 0.0904659663
H   H264      1.0  0.78030  0.85610  0.27470  1.0000 0.0904659663
H   H265      1.0  0.27470  0.85610  0.78030  1.0000 0.0904659663
H   H266      1.0  0.16110  0.46970  0.97530  1.0000 0.0904659663
H   H267      1.0  0.85610  0.27470  0.08890  1.0000 0.0904659663
H   H268      1.0  0.46970  0.16110  0.39390  1.0000 0.0904659663
H   H269      1.0  0.39390  0.16110  0.97530  1.0000 0.0904659663
H   H270      1.0  0.08890  0.78030  0.85610  1.0000 0.0904659663
H   H271      1.0  0.46970  0.97530  0.16110  1.0000 0.0904659663
H   H272      1.0  0.39390  0.46970  0.16110  1.0000 0.0904659663
H   H273      1.0  0.78030  0.08890  0.27470  1.0000 0.0904659663
H   H274      1.0  0.16110  0.97530  0.39390  1.0000 0.0904659663
H   H275      1.0  0.78030  0.27470  0.85610  1.0000 0.0904659663
H   H276      1.0  0.85610  0.78030  0.27470  1.0000 0.0904659663
H   H277      1.0  0.78030  0.85610  0.08890  1.0000 0.0904659663
H   H278      1.0  0.08890  0.85610  0.27470  1.0000 0.0904659663
H   H279      1.0  0.27470  0.08890  0.85610  1.0000 0.0904659663
H   H280      1.0  0.27470  0.78030  0.08890  1.0000 0.0904659663
H   H281      1.0  0.85610  0.08890  0.78030  1.0000 0.0904659663
H   H282      1.0  0.08890  0.27470  0.78030  1.0000 0.0904659663
H   H283      1.0  0.97530  0.39390  0.16110  1.0000 0.0904659663
H   H284      1.0  0.39390  0.97530  0.46970  1.0000 0.0904659663
H   H285      1.0  0.16110  0.39390  0.46970  1.0000 0.0904659663
H   H286      1.0  0.97530  0.46970  0.39390  1.0000 0.0904659663
H   H287      1.0  0.97530  0.16110  0.46970  1.0000 0.0904659663
H   H288      1.0  0.46970  0.39390  0.97530  1.0000 0.0904659663
H   H289      1.0  0.00210  0.35030  0.42010  1.0000 0.0904659663
H   H290      1.0  0.02250  0.82990  0.24790  1.0000 0.0904659663
H   H291      1.0  0.35030  0.00210  0.22750  1.0000 0.0904659663
H   H292      1.0  0.82990  0.02250  0.89970  1.0000 0.0904659663
H   H293      1.0  0.89970  0.02250  0.24790  1.0000 0.0904659663
H   H294      1.0  0.22750  0.42010  0.35030  1.0000 0.0904659663
H   H295      1.0  0.82990  0.24790  0.02250  1.0000 0.0904659663
H   H296      1.0  0.89970  0.82990  0.02250  1.0000 0.0904659663
H   H297      1.0  0.42010  0.22750  0.00210  1.0000 0.0904659663
H   H298      1.0  0.02250  0.24790  0.89970  1.0000 0.0904659663
H   H299      1.0  0.42010  0.00210  0.35030  1.0000 0.0904659663
H   H300      1.0  0.35030  0.42010  0.00210  1.0000 0.0904659663
H   H301      1.0  0.42010  0.35030  0.22750  1.0000 0.0904659663
H   H302      1.0  0.22750  0.35030  0.00210  1.0000 0.0904659663
H   H303      1.0  0.00210  0.22750  0.35030  1.0000 0.0904659663
H   H304      1.0  0.00210  0.42010  0.22750  1.0000 0.0904659663
H   H305      1.0  0.35030  0.22750  0.42010  1.0000 0.0904659663
H   H306      1.0  0.22750  0.00210  0.42010  1.0000 0.0904659663
H   H307      1.0  0.24790  0.89970  0.02250  1.0000 0.0904659663
H   H308      1.0  0.89970  0.24790  0.82990  1.0000 0.0904659663
H   H309      1.0  0.02250  0.89970  0.82990  1.0000 0.0904659663
H   H310      1.0  0.24790  0.82990  0.89970  1.0000 0.0904659663
H   H311      1.0  0.24790  0.02250  0.82990  1.0000 0.0904659663
H   H312      1.0  0.82990  0.89970  0.24790  1.0000 0.0904659663
H   H313      1.0  0.24790  0.89970  0.82990  1.0000 0.0904659663
H   H314      1.0  0.22750  0.42010  0.00210  1.0000 0.0904659663
H   H315      1.0  0.89970  0.24790  0.02250  1.0000 0.0904659663
H   H316      1.0  0.42010  0.22750  0.35030  1.0000 0.0904659663
H   H317      1.0  0.35030  0.22750  0.00210  1.0000 0.0904659663
H   H318      1.0  0.02250  0.82990  0.89970  1.0000 0.0904659663
H   H319      1.0  0.42010  0.00210  0.22750  1.0000 0.0904659663
H   H320      1.0  0.35030  0.42010  0.22750  1.0000 0.0904659663
H   H321      1.0  0.82990  0.02250  0.24790  1.0000 0.0904659663
H   H322      1.0  0.22750  0.00210  0.35030  1.0000 0.0904659663
H   H323      1.0  0.82990  0.24790  0.89970  1.0000 0.0904659663
H   H324      1.0  0.89970  0.82990  0.24790  1.0000 0.0904659663
H   H325      1.0  0.82990  0.89970  0.02250  1.0000 0.0904659663
H   H326      1.0  0.02250  0.89970  0.24790  1.0000 0.0904659663
H   H327      1.0  0.24790  0.02250  0.89970  1.0000 0.0904659663
H   H328      1.0  0.24790  0.82990  0.02250  1.0000 0.0904659663
H   H329      1.0  0.89970  0.02250  0.82990  1.0000 0.0904659663
H   H330      1.0  0.02250  0.24790  0.82990  1.0000 0.0904659663
H   H331      1.0  0.00210  0.35030  0.22750  1.0000 0.0904659663
H   H332      1.0  0.35030  0.00210  0.42010  1.0000 0.0904659663
H   H333      1.0  0.22750  0.35030  0.42010  1.0000 0.0904659663
H   H334      1.0  0.00210  0.42010  0.35030  1.0000 0.0904659663
H   H335      1.0  0.00210  0.22750  0.42010  1.0000 0.0904659663
H   H336      1.0  0.42010  0.35030  0.00210  1.0000 0.0904659663
H   H337      1.0  0.95360  0.33200  0.45460  1.0000 0.0904659663
H   H338      1.0  0.99020  0.79540  0.29640  1.0000 0.0904659663
H   H339      1.0  0.33200  0.95360  0.25980  1.0000 0.0904659663
H   H340      1.0  0.79540  0.99020  0.91800  1.0000 0.0904659663
H   H341      1.0  0.91800  0.99020  0.29640  1.0000 0.0904659663
H   H342      1.0  0.25980  0.45460  0.33200  1.0000 0.0904659663
H   H343      1.0  0.79540  0.29640  0.99020  1.0000 0.0904659663
H   H344      1.0  0.91800  0.79540  0.99020  1.0000 0.0904659663
H   H345      1.0  0.45460  0.25980  0.95360  1.0000 0.0904659663
H   H346      1.0  0.99020  0.29640  0.91800  1.0000 0.0904659663
H   H347      1.0  0.45460  0.95360  0.33200  1.0000 0.0904659663
H   H348      1.0  0.33200  0.45460  0.95360  1.0000 0.0904659663
H   H349      1.0  0.45460  0.33200  0.25980  1.0000 0.0904659663
H   H350      1.0  0.25980  0.33200  0.95360  1.0000 0.0904659663
H   H351      1.0  0.95360  0.25980  0.33200  1.0000 0.0904659663
H   H352      1.0  0.95360  0.45460  0.25980  1.0000 0.0904659663
H   H353      1.0  0.33200  0.25980  0.45460  1.0000 0.0904659663
H   H354      1.0  0.25980  0.95360  0.45460  1.0000 0.0904659663
H   H355      1.0  0.29640  0.91800  0.99020  1.0000 0.0904659663
H   H356      1.0  0.91800  0.29640  0.79540  1.0000 0.0904659663
H   H357      1.0  0.99020  0.91800  0.79540  1.0000 0.0904659663
H   H358      1.0  0.29640  0.79540  0.91800  1.0000 0.0904659663
H   H359      1.0  0.29640  0.99020  0.79540  1.0000 0.0904659663
H   H360      1.0  0.79540  0.91800  0.29640  1.0000 0.0904659663
H   H361      1.0  0.29640  0.91800  0.79540  1.0000 0.0904659663
H   H362      1.0  0.25980  0.45460  0.95360  1.0000 0.0904659663
H   H363      1.0  0.91800  0.29640  0.99020  1.0000 0.0904659663
H   H364      1.0  0.45460  0.25980  0.33200  1.0000 0.0904659663
H   H365      1.0  0.33200  0.25980  0.95360  1.0000 0.0904659663
H   H366      1.0  0.99020  0.79540  0.91800  1.0000 0.0904659663
H   H367      1.0  0.45460  0.95360  0.25980  1.0000 0.0904659663
H   H368      1.0  0.33200  0.45460  0.25980  1.0000 0.0904659663
H   H369      1.0  0.79540  0.99020  0.29640  1.0000 0.0904659663
H   H370      1.0  0.25980  0.95360  0.33200  1.0000 0.0904659663
H   H371      1.0  0.79540  0.29640  0.91800  1.0000 0.0904659663
H   H372      1.0  0.91800  0.79540  0.29640  1.0000 0.0904659663
H   H373      1.0  0.79540  0.91800  0.99020  1.0000 0.0904659663
H   H374      1.0  0.99020  0.91800  0.29640  1.0000 0.0904659663
H   H375      1.0  0.29640  0.99020  0.91800  1.0000 0.0904659663
H   H376      1.0  0.29640  0.79540  0.99020  1.0000 0.0904659663
H   H377      1.0  0.91800  0.99020  0.79540  1.0000 0.0904659663
H   H378      1.0  0.99020  0.29640  0.79540  1.0000 0.0904659663
H   H379      1.0  0.95360  0.33200  0.25980  1.0000 0.0904659663
H   H380      1.0  0.33200  0.95360  0.45460  1.0000 0.0904659663
H   H381      1.0  0.25980  0.33200  0.45460  1.0000 0.0904659663
H   H382      1.0  0.95360  0.45460  0.33200  1.0000 0.0904659663
H   H383      1.0  0.95360  0.25980  0.45460  1.0000 0.0904659663
H   H384      1.0  0.45460  0.33200  0.95360  1.0000 0.0904659663
H   H385      1.0  0.97430  0.55370  0.42950  1.0000 0.0904659663
H   H386      1.0  0.20750  0.82050  0.27570  1.0000 0.0904659663
H   H387      1.0  0.55370  0.97430  0.04250  1.0000 0.0904659663
H   H388      1.0  0.82050  0.20750  0.69630  1.0000 0.0904659663
H   H389      1.0  0.69630  0.20750  0.27570  1.0000 0.0904659663
H   H390      1.0  0.04250  0.42950  0.55370  1.0000 0.0904659663
H   H391      1.0  0.82050  0.27570  0.20750  1.0000 0.0904659663
H   H392      1.0  0.69630  0.82050  0.20750  1.0000 0.0904659663
H   H393      1.0  0.42950  0.04250  0.97430  1.0000 0.0904659663
H   H394      1.0  0.20750  0.27570  0.69630  1.0000 0.0904659663
H   H395      1.0  0.42950  0.97430  0.55370  1.0000 0.0904659663
H   H396      1.0  0.55370  0.42950  0.97430  1.0000 0.0904659663
H   H397      1.0  0.42950  0.55370  0.04250  1.0000 0.0904659663
H   H398      1.0  0.04250  0.55370  0.97430  1.0000 0.0904659663
H   H399      1.0  0.97430  0.04250  0.55370  1.0000 0.0904659663
H   H400      1.0  0.97430  0.42950  0.04250  1.0000 0.0904659663
H   H401      1.0  0.55370  0.04250  0.42950  1.0000 0.0904659663
H   H402      1.0  0.04250  0.97430  0.42950  1.0000 0.0904659663
H   H403      1.0  0.27570  0.69630  0.20750  1.0000 0.0904659663
H   H404      1.0  0.69630  0.27570  0.82050  1.0000 0.0904659663
H   H405      1.0  0.20750  0.69630  0.82050  1.0000 0.0904659663
H   H406      1.0  0.27570  0.82050  0.69630  1.0000 0.0904659663
H   H407      1.0  0.27570  0.20750  0.82050  1.0000 0.0904659663
H   H408      1.0  0.82050  0.69630  0.27570  1.0000 0.0904659663
H   H409      1.0  0.27570  0.69630  0.82050  1.0000 0.0904659663
H   H410      1.0  0.04250  0.42950  0.97430  1.0000 0.0904659663
H   H411      1.0  0.69630  0.27570  0.20750  1.0000 0.0904659663
H   H412      1.0  0.42950  0.04250  0.55370  1.0000 0.0904659663
H   H413      1.0  0.55370  0.04250  0.97430  1.0000 0.0904659663
H   H414      1.0  0.20750  0.82050  0.69630  1.0000 0.0904659663
H   H415      1.0  0.42950  0.97430  0.04250  1.0000 0.0904659663
H   H416      1.0  0.55370  0.42950  0.04250  1.0000 0.0904659663
H   H417      1.0  0.82050  0.20750  0.27570  1.0000 0.0904659663
H   H418      1.0  0.04250  0.97430  0.55370  1.0000 0.0904659663
H   H419      1.0  0.82050  0.27570  0.69630  1.0000 0.0904659663
H   H420      1.0  0.69630  0.82050  0.27570  1.0000 0.0904659663
H   H421      1.0  0.82050  0.69630  0.20750  1.0000 0.0904659663
H   H422      1.0  0.20750  0.69630  0.27570  1.0000 0.0904659663
H   H423      1.0  0.27570  0.20750  0.69630  1.0000 0.0904659663
H   H424      1.0  0.27570  0.82050  0.20750  1.0000 0.0904659663
H   H425      1.0  0.69630  0.20750  0.82050  1.0000 0.0904659663
H   H426      1.0  0.20750  0.27570  0.82050  1.0000 0.0904659663
H   H427      1.0  0.97430  0.55370  0.04250  1.0000 0.0904659663
H   H428      1.0  0.55370  0.97430  0.42950  1.0000 0.0904659663
H   H429      1.0  0.04250  0.55370  0.42950  1.0000 0.0904659663
H   H430      1.0  0.97430  0.42950  0.55370  1.0000 0.0904659663
H   H431      1.0  0.97430  0.04250  0.42950  1.0000 0.0904659663
H   H432      1.0  0.42950  0.55370  0.97430  1.0000 0.0904659663
H   H433      1.0  0.00460  0.49840  0.42420  1.0000 0.0904659663
H   H434      1.0  0.17720  0.82580  0.24540  1.0000 0.0904659663
H   H435      1.0  0.49840  0.00460  0.07280  1.0000 0.0904659663
H   H436      1.0  0.82580  0.17720  0.75160  1.0000 0.0904659663
H   H437      1.0  0.75160  0.17720  0.24540  1.0000 0.0904659663
H   H438      1.0  0.07280  0.42420  0.49840  1.0000 0.0904659663
H   H439      1.0  0.82580  0.24540  0.17720  1.0000 0.0904659663
H   H440      1.0  0.75160  0.82580  0.17720  1.0000 0.0904659663
H   H441      1.0  0.42420  0.07280  0.00460  1.0000 0.0904659663
H   H442      1.0  0.17720  0.24540  0.75160  1.0000 0.0904659663
H   H443      1.0  0.42420  0.00460  0.49840  1.0000 0.0904659663
H   H444      1.0  0.49840  0.42420  0.00460  1.0000 0.0904659663
H   H445      1.0  0.42420  0.49840  0.07280  1.0000 0.0904659663
H   H446      1.0  0.07280  0.49840  0.00460  1.0000 0.0904659663
H   H447      1.0  0.00460  0.07280  0.49840  1.0000 0.0904659663
H   H448      1.0  0.00460  0.42420  0.07280  1.0000 0.0904659663
H   H449      1.0  0.49840  0.07280  0.42420  1.0000 0.0904659663
H   H450      1.0  0.07280  0.00460  0.42420  1.0000 0.0904659663
H   H451      1.0  0.24540  0.75160  0.17720  1.0000 0.0904659663
H   H452      1.0  0.75160  0.24540  0.82580  1.0000 0.0904659663
H   H453      1.0  0.17720  0.75160  0.82580  1.0000 0.0904659663
H   H454      1.0  0.24540  0.82580  0.75160  1.0000 0.0904659663
H   H455      1.0  0.24540  0.17720  0.82580  1.0000 0.0904659663
H   H456      1.0  0.82580  0.75160  0.24540  1.0000 0.0904659663
H   H457      1.0  0.24540  0.75160  0.82580  1.0000 0.0904659663
H   H458      1.0  0.07280  0.42420  0.00460  1.0000 0.0904659663
H   H459      1.0  0.75160  0.24540  0.17720  1.0000 0.0904659663
H   H460      1.0  0.42420  0.07280  0.49840  1.0000 0.0904659663
H   H461      1.0  0.49840  0.07280  0.00460  1.0000 0.0904659663
H   H462      1.0  0.17720  0.82580  0.75160  1.0000 0.0904659663
H   H463      1.0  0.42420  0.00460  0.07280  1.0000 0.0904659663
H   H464      1.0  0.49840  0.42420  0.07280  1.0000 0.0904659663
H   H465      1.0  0.82580  0.17720  0.24540  1.0000 0.0904659663
H   H466      1.0  0.07280  0.00460  0.49840  1.0000 0.0904659663
H   H467      1.0  0.82580  0.24540  0.75160  1.0000 0.0904659663
H   H468      1.0  0.75160  0.82580  0.24540  1.0000 0.0904659663
H   H469      1.0  0.82580  0.75160  0.17720  1.0000 0.0904659663
H   H470      1.0  0.17720  0.75160  0.24540  1.0000 0.0904659663
H   H471      1.0  0.24540  0.17720  0.75160  1.0000 0.0904659663
H   H472      1.0  0.24540  0.82580  0.17720  1.0000 0.0904659663
H   H473      1.0  0.75160  0.17720  0.82580  1.0000 0.0904659663
H   H474      1.0  0.17720  0.24540  0.82580  1.0000 0.0904659663
H   H475      1.0  0.00460  0.49840  0.07280  1.0000 0.0904659663
H   H476      1.0  0.49840  0.00460  0.42420  1.0000 0.0904659663
H   H477      1.0  0.07280  0.49840  0.42420  1.0000 0.0904659663
H   H478      1.0  0.00460  0.42420  0.49840  1.0000 0.0904659663
H   H479      1.0  0.00460  0.07280  0.42420  1.0000 0.0904659663
H   H480      1.0  0.42420  0.49840  0.00460  1.0000 0.0904659663
H   H481      1.0  0.92880  0.56320  0.51360  1.0000 0.0904659663
H   H482      1.0  0.25560  0.73640  0.32120  1.0000 0.0904659663
H   H483      1.0  0.56320  0.92880  0.99440  1.0000 0.0904659663
H   H484      1.0  0.73640  0.25560  0.68680  1.0000 0.0904659663
H   H485      1.0  0.68680  0.25560  0.32120  1.0000 0.0904659663
H   H486      1.0  0.99440  0.51360  0.56320  1.0000 0.0904659663
H   H487      1.0  0.73640  0.32120  0.25560  1.0000 0.0904659663
H   H488      1.0  0.68680  0.73640  0.25560  1.0000 0.0904659663
H   H489      1.0  0.51360  0.99440  0.92880  1.0000 0.0904659663
H   H490      1.0  0.25560  0.32120  0.68680  1.0000 0.0904659663
H   H491      1.0  0.51360  0.92880  0.56320  1.0000 0.0904659663
H   H492      1.0  0.56320  0.51360  0.92880  1.0000 0.0904659663
H   H493      1.0  0.51360  0.56320  0.99440  1.0000 0.0904659663
H   H494      1.0  0.99440  0.56320  0.92880  1.0000 0.0904659663
H   H495      1.0  0.92880  0.99440  0.56320  1.0000 0.0904659663
H   H496      1.0  0.92880  0.51360  0.99440  1.0000 0.0904659663
H   H497      1.0  0.56320  0.99440  0.51360  1.0000 0.0904659663
H   H498      1.0  0.99440  0.92880  0.51360  1.0000 0.0904659663
H   H499      1.0  0.32120  0.68680  0.25560  1.0000 0.0904659663
H   H500      1.0  0.68680  0.32120  0.73640  1.0000 0.0904659663
H   H501      1.0  0.25560  0.68680  0.73640  1.0000 0.0904659663
H   H502      1.0  0.32120  0.73640  0.68680  1.0000 0.0904659663
H   H503      1.0  0.32120  0.25560  0.73640  1.0000 0.0904659663
H   H504      1.0  0.73640  0.68680  0.32120  1.0000 0.0904659663
H   H505      1.0  0.32120  0.68680  0.73640  1.0000 0.0904659663
H   H506      1.0  0.99440  0.51360  0.92880  1.0000 0.0904659663
H   H507      1.0  0.68680  0.32120  0.25560  1.0000 0.0904659663
H   H508      1.0  0.51360  0.99440  0.56320  1.0000 0.0904659663
H   H509      1.0  0.56320  0.99440  0.92880  1.0000 0.0904659663
H   H510      1.0  0.25560  0.73640  0.68680  1.0000 0.0904659663
H   H511      1.0  0.51360  0.92880  0.99440  1.0000 0.0904659663
H   H512      1.0  0.56320  0.51360  0.99440  1.0000 0.0904659663
H   H513      1.0  0.73640  0.25560  0.32120  1.0000 0.0904659663
H   H514      1.0  0.99440  0.92880  0.56320  1.0000 0.0904659663
H   H515      1.0  0.73640  0.32120  0.68680  1.0000 0.0904659663
H   H516      1.0  0.68680  0.73640  0.32120  1.0000 0.0904659663
H   H517      1.0  0.73640  0.68680  0.25560  1.0000 0.0904659663
H   H518      1.0  0.25560  0.68680  0.32120  1.0000 0.0904659663
H   H519      1.0  0.32120  0.25560  0.68680  1.0000 0.0904659663
H   H520      1.0  0.32120  0.73640  0.25560  1.0000 0.0904659663
H   H521      1.0  0.68680  0.25560  0.73640  1.0000 0.0904659663
H   H522      1.0  0.25560  0.32120  0.73640  1.0000 0.0904659663
H   H523      1.0  0.92880  0.56320  0.99440  1.0000 0.0904659663
H   H524      1.0  0.56320  0.92880  0.51360  1.0000 0.0904659663
H   H525      1.0  0.99440  0.56320  0.51360  1.0000 0.0904659663
H   H526      1.0  0.92880  0.51360  0.56320  1.0000 0.0904659663
H   H527      1.0  0.92880  0.99440  0.51360  1.0000 0.0904659663
H   H528      1.0  0.51360  0.56320  0.92880  1.0000 0.0904659663
H   H529      1.0  0.88410  0.57430  0.38870  1.0000 0.0904659663
H   H530      1.0  0.09710  0.86130  0.36590  1.0000 0.0904659663
H   H531      1.0  0.57430  0.88410  0.15290  1.0000 0.0904659663
H   H532      1.0  0.86130  0.09710  0.67570  1.0000 0.0904659663
H   H533      1.0  0.67570  0.09710  0.36590  1.0000 0.0904659663
H   H534      1.0  0.15290  0.38870  0.57430  1.0000 0.0904659663
H   H535      1.0  0.86130  0.36590  0.09710  1.0000 0.0904659663
H   H536      1.0  0.67570  0.86130  0.09710  1.0000 0.0904659663
H   H537      1.0  0.38870  0.15290  0.88410  1.0000 0.0904659663
H   H538      1.0  0.09710  0.36590  0.67570  1.0000 0.0904659663
H   H539      1.0  0.38870  0.88410  0.57430  1.0000 0.0904659663
H   H540      1.0  0.57430  0.38870  0.88410  1.0000 0.0904659663
H   H541      1.0  0.38870  0.57430  0.15290  1.0000 0.0904659663
H   H542      1.0  0.15290  0.57430  0.88410  1.0000 0.0904659663
H   H543      1.0  0.88410  0.15290  0.57430  1.0000 0.0904659663
H   H544      1.0  0.88410  0.38870  0.15290  1.0000 0.0904659663
H   H545      1.0  0.57430  0.15290  0.38870  1.0000 0.0904659663
H   H546      1.0  0.15290  0.88410  0.38870  1.0000 0.0904659663
H   H547      1.0  0.36590  0.67570  0.09710  1.0000 0.0904659663
H   H548      1.0  0.67570  0.36590  0.86130  1.0000 0.0904659663
H   H549      1.0  0.09710  0.67570  0.86130  1.0000 0.0904659663
H   H550      1.0  0.36590  0.86130  0.67570  1.0000 0.0904659663
H   H551      1.0  0.36590  0.09710  0.86130  1.0000 0.0904659663
H   H552      1.0  0.86130  0.67570  0.36590  1.0000 0.0904659663
H   H553      1.0  0.36590  0.67570  0.86130  1.0000 0.0904659663
H   H554      1.0  0.15290  0.38870  0.88410  1.0000 0.0904659663
H   H555      1.0  0.67570  0.36590  0.09710  1.0000 0.0904659663
H   H556      1.0  0.38870  0.15290  0.57430  1.0000 0.0904659663
H   H557      1.0  0.57430  0.15290  0.88410  1.0000 0.0904659663
H   H558      1.0  0.09710  0.86130  0.67570  1.0000 0.0904659663
H   H559      1.0  0.38870  0.88410  0.15290  1.0000 0.0904659663
H   H560      1.0  0.57430  0.38870  0.15290  1.0000 0.0904659663
H   H561      1.0  0.86130  0.09710  0.36590  1.0000 0.0904659663
H   H562      1.0  0.15290  0.88410  0.57430  1.0000 0.0904659663
H   H563      1.0  0.86130  0.36590  0.67570  1.0000 0.0904659663
H   H564      1.0  0.67570  0.86130  0.36590  1.0000 0.0904659663
H   H565      1.0  0.86130  0.67570  0.09710  1.0000 0.0904659663
H   H566      1.0  0.09710  0.67570  0.36590  1.0000 0.0904659663
H   H567      1.0  0.36590  0.09710  0.67570  1.0000 0.0904659663
H   H568      1.0  0.36590  0.86130  0.09710  1.0000 0.0904659663
H   H569      1.0  0.67570  0.09710  0.86130  1.0000 0.0904659663
H   H570      1.0  0.09710  0.36590  0.86130  1.0000 0.0904659663
H   H571      1.0  0.88410  0.57430  0.15290  1.0000 0.0904659663
H   H572      1.0  0.57430  0.88410  0.38870  1.0000 0.0904659663
H   H573      1.0  0.15290  0.57430  0.38870  1.0000 0.0904659663
H   H574      1.0  0.88410  0.38870  0.57430  1.0000 0.0904659663
H   H575      1.0  0.88410  0.15290  0.38870  1.0000 0.0904659663
H   H576      1.0  0.38870  0.57430  0.88410  1.0000 0.0904659663
H   H577      1.0  0.90230  0.59770  0.40790  1.0000 0.0904659663
H   H578      1.0  0.15790  0.84210  0.34770  1.0000 0.0904659663
H   H579      1.0  0.59770  0.90230  0.09210  1.0000 0.0904659663
H   H580      1.0  0.84210  0.15790  0.65230  1.0000 0.0904659663
H   H581      1.0  0.65230  0.15790  0.34770  1.0000 0.0904659663
H   H582      1.0  0.09210  0.40790  0.59770  1.0000 0.0904659663
H   H583      1.0  0.84210  0.34770  0.15790  1.0000 0.0904659663
H   H584      1.0  0.65230  0.84210  0.15790  1.0000 0.0904659663
H   H585      1.0  0.40790  0.09210  0.90230  1.0000 0.0904659663
H   H586      1.0  0.15790  0.34770  0.65230  1.0000 0.0904659663
H   H587      1.0  0.40790  0.90230  0.59770  1.0000 0.0904659663
H   H588      1.0  0.59770  0.40790  0.90230  1.0000 0.0904659663
H   H589      1.0  0.40790  0.59770  0.09210  1.0000 0.0904659663
H   H590      1.0  0.09210  0.59770  0.90230  1.0000 0.0904659663
H   H591      1.0  0.90230  0.09210  0.59770  1.0000 0.0904659663
H   H592      1.0  0.90230  0.40790  0.09210  1.0000 0.0904659663
H   H593      1.0  0.59770  0.09210  0.40790  1.0000 0.0904659663
H   H594      1.0  0.09210  0.90230  0.40790  1.0000 0.0904659663
H   H595      1.0  0.34770  0.65230  0.15790  1.0000 0.0904659663
H   H596      1.0  0.65230  0.34770  0.84210  1.0000 0.0904659663
H   H597      1.0  0.15790  0.65230  0.84210  1.0000 0.0904659663
H   H598      1.0  0.34770  0.84210  0.65230  1.0000 0.0904659663
H   H599      1.0  0.34770  0.15790  0.84210  1.0000 0.0904659663
H   H600      1.0  0.84210  0.65230  0.34770  1.0000 0.0904659663
H   H601      1.0  0.34770  0.65230  0.84210  1.0000 0.0904659663
H   H602      1.0  0.09210  0.40790  0.90230  1.0000 0.0904659663
H   H603      1.0  0.65230  0.34770  0.15790  1.0000 0.0904659663
H   H604      1.0  0.40790  0.09210  0.59770  1.0000 0.0904659663
H   H605      1.0  0.59770  0.09210  0.90230  1.0000 0.0904659663
H   H606      1.0  0.15790  0.84210  0.65230  1.0000 0.0904659663
H   H607      1.0  0.40790  0.90230  0.09210  1.0000 0.0904659663
H   H608      1.0  0.59770  0.40790  0.09210  1.0000 0.0904659663
H   H609      1.0  0.84210  0.15790  0.34770  1.0000 0.0904659663
H   H610      1.0  0.09210  0.90230  0.59770  1.0000 0.0904659663
H   H611      1.0  0.84210  0.34770  0.65230  1.0000 0.0904659663
H   H612      1.0  0.65230  0.84210  0.34770  1.0000 0.0904659663
H   H613      1.0  0.84210  0.65230  0.15790  1.0000 0.0904659663
H   H614      1.0  0.15790  0.65230  0.34770  1.0000 0.0904659663
H   H615      1.0  0.34770  0.15790  0.65230  1.0000 0.0904659663
H   H616      1.0  0.34770  0.84210  0.15790  1.0000 0.0904659663
H   H617      1.0  0.65230  0.15790  0.84210  1.0000 0.0904659663
H   H618      1.0  0.15790  0.34770  0.84210  1.0000 0.0904659663
H   H619      1.0  0.90230  0.59770  0.09210  1.0000 0.0904659663
H   H620      1.0  0.59770  0.90230  0.40790  1.0000 0.0904659663
H   H621      1.0  0.09210  0.59770  0.40790  1.0000 0.0904659663
H   H622      1.0  0.90230  0.40790  0.59770  1.0000 0.0904659663
H   H623      1.0  0.90230  0.09210  0.40790  1.0000 0.0904659663
H   H624      1.0  0.40790  0.59770  0.90230  1.0000 0.0904659663
H   H625      1.0  0.77030  0.56950  0.49070  1.0000 0.0904659663
H   H626      1.0  0.08050  0.75930  0.47970  1.0000 0.0904659663
H   H627      1.0  0.56950  0.77030  0.16950  1.0000 0.0904659663
H   H628      1.0  0.75930  0.08050  0.68050  1.0000 0.0904659663
H   H629      1.0  0.68050  0.08050  0.47970  1.0000 0.0904659663
H   H630      1.0  0.16950  0.49070  0.56950  1.0000 0.0904659663
H   H631      1.0  0.75930  0.47970  0.08050  1.0000 0.0904659663
H   H632      1.0  0.68050  0.75930  0.08050  1.0000 0.0904659663
H   H633      1.0  0.49070  0.16950  0.77030  1.0000 0.0904659663
H   H634      1.0  0.08050  0.47970  0.68050  1.0000 0.0904659663
H   H635      1.0  0.49070  0.77030  0.56950  1.0000 0.0904659663
H   H636      1.0  0.56950  0.49070  0.77030  1.0000 0.0904659663
H   H637      1.0  0.49070  0.56950  0.16950  1.0000 0.0904659663
H   H638      1.0  0.16950  0.56950  0.77030  1.0000 0.0904659663
H   H639      1.0  0.77030  0.16950  0.56950  1.0000 0.0904659663
H   H640      1.0  0.77030  0.49070  0.16950  1.0000 0.0904659663
H   H641      1.0  0.56950  0.16950  0.49070  1.0000 0.0904659663
H   H642      1.0  0.16950  0.77030  0.49070  1.0000 0.0904659663
H   H643      1.0  0.47970  0.68050  0.08050  1.0000 0.0904659663
H   H644      1.0  0.68050  0.47970  0.75930  1.0000 0.0904659663
H   H645      1.0  0.08050  0.68050  0.75930  1.0000 0.0904659663
H   H646      1.0  0.47970  0.75930  0.68050  1.0000 0.0904659663
H   H647      1.0  0.47970  0.08050  0.75930  1.0000 0.0904659663
H   H648      1.0  0.75930  0.68050  0.47970  1.0000 0.0904659663
H   H649      1.0  0.47970  0.68050  0.75930  1.0000 0.0904659663
H   H650      1.0  0.16950  0.49070  0.77030  1.0000 0.0904659663
H   H651      1.0  0.68050  0.47970  0.08050  1.0000 0.0904659663
H   H652      1.0  0.49070  0.16950  0.56950  1.0000 0.0904659663
H   H653      1.0  0.56950  0.16950  0.77030  1.0000 0.0904659663
H   H654      1.0  0.08050  0.75930  0.68050  1.0000 0.0904659663
H   H655      1.0  0.49070  0.77030  0.16950  1.0000 0.0904659663
H   H656      1.0  0.56950  0.49070  0.16950  1.0000 0.0904659663
H   H657      1.0  0.75930  0.08050  0.47970  1.0000 0.0904659663
H   H658      1.0  0.16950  0.77030  0.56950  1.0000 0.0904659663
H   H659      1.0  0.75930  0.47970  0.68050  1.0000 0.0904659663
H   H660      1.0  0.68050  0.75930  0.47970  1.0000 0.0904659663
H   H661      1.0  0.75930  0.68050  0.08050  1.0000 0.0904659663
H   H662      1.0  0.08050  0.68050  0.47970  1.0000 0.0904659663
H   H663      1.0  0.47970  0.08050  0.68050  1.0000 0.0904659663
H   H664      1.0  0.47970  0.75930  0.08050  1.0000 0.0904659663
H   H665      1.0  0.68050  0.08050  0.75930  1.0000 0.0904659663
H   H666      1.0  0.08050  0.47970  0.75930  1.0000 0.0904659663
H   H667      1.0  0.77030  0.56950  0.16950  1.0000 0.0904659663
H   H668      1.0  0.56950  0.77030  0.49070  1.0000 0.0904659663
H   H669      1.0  0.16950  0.56950  0.49070  1.0000 0.0904659663
H   H670      1.0  0.77030  0.49070  0.56950  1.0000 0.0904659663
H   H671      1.0  0.77030  0.16950  0.49070  1.0000 0.0904659663
H   H672      1.0  0.49070  0.56950  0.77030  1.0000 0.0904659663
H   H673      1.0  0.80310  0.55930  0.43750  1.0000 0.0904659663
H   H674      1.0  0.04990  0.81250  0.44690  1.0000 0.0904659663
H   H675      1.0  0.55930  0.80310  0.20010  1.0000 0.0904659663
H   H676      1.0  0.81250  0.04990  0.69070  1.0000 0.0904659663
H   H677      1.0  0.69070  0.04990  0.44690  1.0000 0.0904659663
H   H678      1.0  0.20010  0.43750  0.55930  1.0000 0.0904659663
H   H679      1.0  0.81250  0.44690  0.04990  1.0000 0.0904659663
H   H680      1.0  0.69070  0.81250  0.04990  1.0000 0.0904659663
H   H681      1.0  0.43750  0.20010  0.80310  1.0000 0.0904659663
H   H682      1.0  0.04990  0.44690  0.69070  1.0000 0.0904659663
H   H683      1.0  0.43750  0.80310  0.55930  1.0000 0.0904659663
H   H684      1.0  0.55930  0.43750  0.80310  1.0000 0.0904659663
H   H685      1.0  0.43750  0.55930  0.20010  1.0000 0.0904659663
H   H686      1.0  0.20010  0.55930  0.80310  1.0000 0.0904659663
H   H687      1.0  0.80310  0.20010  0.55930  1.0000 0.0904659663
H   H688      1.0  0.80310  0.43750  0.20010  1.0000 0.0904659663
H   H689      1.0  0.55930  0.20010  0.43750  1.0000 0.0904659663
H   H690      1.0  0.20010  0.80310  0.43750  1.0000 0.0904659663
H   H691      1.0  0.44690  0.69070  0.04990  1.0000 0.0904659663
H   H692      1.0  0.69070  0.44690  0.81250  1.0000 0.0904659663
H   H693      1.0  0.04990  0.69070  0.81250  1.0000 0.0904659663
H   H694      1.0  0.44690  0.81250  0.69070  1.0000 0.0904659663
H   H695      1.0  0.44690  0.04990  0.81250  1.0000 0.0904659663
H   H696      1.0  0.81250  0.69070  0.44690  1.0000 0.0904659663
H   H697      1.0  0.44690  0.69070  0.81250  1.0000 0.0904659663
H   H698      1.0  0.20010  0.43750  0.80310  1.0000 0.0904659663
H   H699      1.0  0.69070  0.44690  0.04990  1.0000 0.0904659663
H   H700      1.0  0.43750  0.20010  0.55930  1.0000 0.0904659663
H   H701      1.0  0.55930  0.20010  0.80310  1.0000 0.0904659663
H   H702      1.0  0.04990  0.81250  0.69070  1.0000 0.0904659663
H   H703      1.0  0.43750  0.80310  0.20010  1.0000 0.0904659663
H   H704      1.0  0.55930  0.43750  0.20010  1.0000 0.0904659663
H   H705      1.0  0.81250  0.04990  0.44690  1.0000 0.0904659663
H   H706      1.0  0.20010  0.80310  0.55930  1.0000 0.0904659663
H   H707      1.0  0.81250  0.44690  0.69070  1.0000 0.0904659663
H   H708      1.0  0.69070  0.81250  0.44690  1.0000 0.0904659663
H   H709      1.0  0.81250  0.69070  0.04990  1.0000 0.0904659663
H   H710      1.0  0.04990  0.69070  0.44690  1.0000 0.0904659663
H   H711      1.0  0.44690  0.04990  0.69070  1.0000 0.0904659663
H   H712      1.0  0.44690  0.81250  0.04990  1.0000 0.0904659663
H   H713      1.0  0.69070  0.04990  0.81250  1.0000 0.0904659663
H   H714      1.0  0.04990  0.44690  0.81250  1.0000 0.0904659663
H   H715      1.0  0.80310  0.55930  0.20010  1.0000 0.0904659663
H   H716      1.0  0.55930  0.80310  0.43750  1.0000 0.0904659663
H   H717      1.0  0.20010  0.55930  0.43750  1.0000 0.0904659663
H   H718      1.0  0.80310  0.43750  0.55930  1.0000 0.0904659663
H   H719      1.0  0.80310  0.20010  0.43750  1.0000 0.0904659663
H   H720      1.0  0.43750  0.55930  0.80310  1.0000 0.0904659663
H   H721      1.0  0.85020  0.61340  0.48860  1.0000 0.0904659663
H   H722      1.0  0.20220  0.76140  0.39980  1.0000 0.0904659663
H   H723      1.0  0.61340  0.85020  0.04780  1.0000 0.0904659663
H   H724      1.0  0.76140  0.20220  0.63660  1.0000 0.0904659663
H   H725      1.0  0.63660  0.20220  0.39980  1.0000 0.0904659663
H   H726      1.0  0.04780  0.48860  0.61340  1.0000 0.0904659663
H   H727      1.0  0.76140  0.39980  0.20220  1.0000 0.0904659663
H   H728      1.0  0.63660  0.76140  0.20220  1.0000 0.0904659663
H   H729      1.0  0.48860  0.04780  0.85020  1.0000 0.0904659663
H   H730      1.0  0.20220  0.39980  0.63660  1.0000 0.0904659663
H   H731      1.0  0.48860  0.85020  0.61340  1.0000 0.0904659663
H   H732      1.0  0.61340  0.48860  0.85020  1.0000 0.0904659663
H   H733      1.0  0.48860  0.61340  0.04780  1.0000 0.0904659663
H   H734      1.0  0.04780  0.61340  0.85020  1.0000 0.0904659663
H   H735      1.0  0.85020  0.04780  0.61340  1.0000 0.0904659663
H   H736      1.0  0.85020  0.48860  0.04780  1.0000 0.0904659663
H   H737      1.0  0.61340  0.04780  0.48860  1.0000 0.0904659663
H   H738      1.0  0.04780  0.85020  0.48860  1.0000 0.0904659663
H   H739      1.0  0.39980  0.63660  0.20220  1.0000 0.0904659663
H   H740      1.0  0.63660  0.39980  0.76140  1.0000 0.0904659663
H   H741      1.0  0.20220  0.63660  0.76140  1.0000 0.0904659663
H   H742      1.0  0.39980  0.76140  0.63660  1.0000 0.0904659663
H   H743      1.0  0.39980  0.20220  0.76140  1.0000 0.0904659663
H   H744      1.0  0.76140  0.63660  0.39980  1.0000 0.0904659663
H   H745      1.0  0.39980  0.63660  0.76140  1.0000 0.0904659663
H   H746      1.0  0.04780  0.48860  0.85020  1.0000 0.0904659663
H   H747      1.0  0.63660  0.39980  0.20220  1.0000 0.0904659663
H   H748      1.0  0.48860  0.04780  0.61340  1.0000 0.0904659663
H   H749      1.0  0.61340  0.04780  0.85020  1.0000 0.0904659663
H   H750      1.0  0.20220  0.76140  0.63660  1.0000 0.0904659663
H   H751      1.0  0.48860  0.85020  0.04780  1.0000 0.0904659663
H   H752      1.0  0.61340  0.48860  0.04780  1.0000 0.0904659663
H   H753      1.0  0.76140  0.20220  0.39980  1.0000 0.0904659663
H   H754      1.0  0.04780  0.85020  0.61340  1.0000 0.0904659663
H   H755      1.0  0.76140  0.39980  0.63660  1.0000 0.0904659663
H   H756      1.0  0.63660  0.76140  0.39980  1.0000 0.0904659663
H   H757      1.0  0.76140  0.63660  0.20220  1.0000 0.0904659663
H   H758      1.0  0.20220  0.63660  0.39980  1.0000 0.0904659663
H   H759      1.0  0.39980  0.20220  0.63660  1.0000 0.0904659663
H   H760      1.0  0.39980  0.76140  0.20220  1.0000 0.0904659663
H   H761      1.0  0.63660  0.20220  0.76140  1.0000 0.0904659663
H   H762      1.0  0.20220  0.39980  0.76140  1.0000 0.0904659663
H   H763      1.0  0.85020  0.61340  0.04780  1.0000 0.0904659663
H   H764      1.0  0.61340  0.85020  0.48860  1.0000 0.0904659663
H   H765      1.0  0.04780  0.61340  0.48860  1.0000 0.0904659663
H   H766      1.0  0.85020  0.48860  0.61340  1.0000 0.0904659663
H   H767      1.0  0.85020  0.04780  0.48860  1.0000 0.0904659663
H   H768      1.0  0.48860  0.61340  0.85020  1.0000 0.0904659663
H   H769      1.0  0.79740  0.60240  0.51940  1.0000 0.0904659663
H   H770      1.0  0.16920  0.73060  0.45260  1.0000 0.0904659663
H   H771      1.0  0.60240  0.79740  0.08080  1.0000 0.0904659663
H   H772      1.0  0.73060  0.16920  0.64760  1.0000 0.0904659663
H   H773      1.0  0.64760  0.16920  0.45260  1.0000 0.0904659663
H   H774      1.0  0.08080  0.51940  0.60240  1.0000 0.0904659663
H   H775      1.0  0.73060  0.45260  0.16920  1.0000 0.0904659663
H   H776      1.0  0.64760  0.73060  0.16920  1.0000 0.0904659663
H   H777      1.0  0.51940  0.08080  0.79740  1.0000 0.0904659663
H   H778      1.0  0.16920  0.45260  0.64760  1.0000 0.0904659663
H   H779      1.0  0.51940  0.79740  0.60240  1.0000 0.0904659663
H   H780      1.0  0.60240  0.51940  0.79740  1.0000 0.0904659663
H   H781      1.0  0.51940  0.60240  0.08080  1.0000 0.0904659663
H   H782      1.0  0.08080  0.60240  0.79740  1.0000 0.0904659663
H   H783      1.0  0.79740  0.08080  0.60240  1.0000 0.0904659663
H   H784      1.0  0.79740  0.51940  0.08080  1.0000 0.0904659663
H   H785      1.0  0.60240  0.08080  0.51940  1.0000 0.0904659663
H   H786      1.0  0.08080  0.79740  0.51940  1.0000 0.0904659663
H   H787      1.0  0.45260  0.64760  0.16920  1.0000 0.0904659663
H   H788      1.0  0.64760  0.45260  0.73060  1.0000 0.0904659663
H   H789      1.0  0.16920  0.64760  0.73060  1.0000 0.0904659663
H   H790      1.0  0.45260  0.73060  0.64760  1.0000 0.0904659663
H   H791      1.0  0.45260  0.16920  0.73060  1.0000 0.0904659663
H   H792      1.0  0.73060  0.64760  0.45260  1.0000 0.0904659663
H   H793      1.0  0.45260  0.64760  0.73060  1.0000 0.0904659663
H   H794      1.0  0.08080  0.51940  0.79740  1.0000 0.0904659663
H   H795      1.0  0.64760  0.45260  0.16920  1.0000 0.0904659663
H   H796      1.0  0.51940  0.08080  0.60240  1.0000 0.0904659663
H   H797      1.0  0.60240  0.08080  0.79740  1.0000 0.0904659663
H   H798      1.0  0.16920  0.73060  0.64760  1.0000 0.0904659663
H   H799      1.0  0.51940  0.79740  0.08080  1.0000 0.0904659663
H   H800      1.0  0.60240  0.51940  0.08080  1.0000 0.0904659663
H   H801      1.0  0.73060  0.16920  0.45260  1.0000 0.0904659663
H   H802      1.0  0.08080  0.79740  0.60240  1.0000 0.0904659663
H   H803      1.0  0.73060  0.45260  0.64760  1.0000 0.0904659663
H   H804      1.0  0.64760  0.73060  0.45260  1.0000 0.0904659663
H   H805      1.0  0.73060  0.64760  0.16920  1.0000 0.0904659663
H   H806      1.0  0.16920  0.64760  0.45260  1.0000 0.0904659663
H   H807      1.0  0.45260  0.16920  0.64760  1.0000 0.0904659663
H   H808      1.0  0.45260  0.73060  0.16920  1.0000 0.0904659663
H   H809      1.0  0.64760  0.16920  0.73060  1.0000 0.0904659663
H   H810      1.0  0.16920  0.45260  0.73060  1.0000 0.0904659663
H   H811      1.0  0.79740  0.60240  0.08080  1.0000 0.0904659663
H   H812      1.0  0.60240  0.79740  0.51940  1.0000 0.0904659663
H   H813      1.0  0.08080  0.60240  0.51940  1.0000 0.0904659663
H   H814      1.0  0.79740  0.51940  0.60240  1.0000 0.0904659663
H   H815      1.0  0.79740  0.08080  0.51940  1.0000 0.0904659663
H   H816      1.0  0.51940  0.60240  0.79740  1.0000 0.0904659663
C   C1        1.0  0.14170  0.26130  0.33570  1.0000 -0.1432746407
C   C2        1.0  0.98870  0.91430  0.10830  1.0000 -0.1432746407
C   C3        1.0  0.26130  0.14170  0.26130  1.0000 -0.1432746407
C   C4        1.0  0.91430  0.98870  0.98870  1.0000 -0.1432746407
C   C5        1.0  0.98870  0.98870  0.10830  1.0000 -0.1432746407
C   C6        1.0  0.26130  0.33570  0.26130  1.0000 -0.1432746407
C   C7        1.0  0.91430  0.10830  0.98870  1.0000 -0.1432746407
C   C8        1.0  0.98870  0.91430  0.98870  1.0000 -0.1432746407
C   C9        1.0  0.33570  0.26130  0.14170  1.0000 -0.1432746407
C   C10       1.0  0.98870  0.10830  0.98870  1.0000 -0.1432746407
C   C11       1.0  0.33570  0.14170  0.26130  1.0000 -0.1432746407
C   C12       1.0  0.26130  0.33570  0.14170  1.0000 -0.1432746407
C   C13       1.0  0.33570  0.26130  0.26130  1.0000 -0.1432746407
C   C14       1.0  0.26130  0.26130  0.14170  1.0000 -0.1432746407
C   C15       1.0  0.14170  0.26130  0.26130  1.0000 -0.1432746407
C   C16       1.0  0.14170  0.33570  0.26130  1.0000 -0.1432746407
C   C17       1.0  0.26130  0.26130  0.33570  1.0000 -0.1432746407
C   C18       1.0  0.26130  0.14170  0.33570  1.0000 -0.1432746407
C   C19       1.0  0.10830  0.98870  0.98870  1.0000 -0.1432746407
C   C20       1.0  0.98870  0.10830  0.91430  1.0000 -0.1432746407
C   C21       1.0  0.98870  0.98870  0.91430  1.0000 -0.1432746407
C   C22       1.0  0.10830  0.91430  0.98870  1.0000 -0.1432746407
C   C23       1.0  0.10830  0.98870  0.91430  1.0000 -0.1432746407
C   C24       1.0  0.91430  0.98870  0.10830  1.0000 -0.1432746407
C   C25       1.0  0.08140  0.28160  0.35540  1.0000 -0.1432746407
C   C26       1.0  0.96840  0.89460  0.16860  1.0000 -0.1432746407
C   C27       1.0  0.28160  0.08140  0.28160  1.0000 -0.1432746407
C   C28       1.0  0.89460  0.96840  0.96840  1.0000 -0.1432746407
C   C29       1.0  0.96840  0.96840  0.16860  1.0000 -0.1432746407
C   C30       1.0  0.28160  0.35540  0.28160  1.0000 -0.1432746407
C   C31       1.0  0.89460  0.16860  0.96840  1.0000 -0.1432746407
C   C32       1.0  0.96840  0.89460  0.96840  1.0000 -0.1432746407
C   C33       1.0  0.35540  0.28160  0.08140  1.0000 -0.1432746407
C   C34       1.0  0.96840  0.16860  0.96840  1.0000 -0.1432746407
C   C35       1.0  0.35540  0.08140  0.28160  1.0000 -0.1432746407
C   C36       1.0  0.28160  0.35540  0.08140  1.0000 -0.1432746407
C   C37       1.0  0.35540  0.28160  0.28160  1.0000 -0.1432746407
C   C38       1.0  0.28160  0.28160  0.08140  1.0000 -0.1432746407
C   C39       1.0  0.08140  0.28160  0.28160  1.0000 -0.1432746407
C   C40       1.0  0.08140  0.35540  0.28160  1.0000 -0.1432746407
C   C41       1.0  0.28160  0.28160  0.35540  1.0000 -0.1432746407
C   C42       1.0  0.28160  0.08140  0.35540  1.0000 -0.1432746407
C   C43       1.0  0.16860  0.96840  0.96840  1.0000 -0.1432746407
C   C44       1.0  0.96840  0.16860  0.89460  1.0000 -0.1432746407
C   C45       1.0  0.96840  0.96840  0.89460  1.0000 -0.1432746407
C   C46       1.0  0.16860  0.89460  0.96840  1.0000 -0.1432746407
C   C47       1.0  0.16860  0.96840  0.89460  1.0000 -0.1432746407
C   C48       1.0  0.89460  0.96840  0.16860  1.0000 -0.1432746407
C   C49       1.0  0.88940  0.41180  0.41180  1.0000 -0.1486571643
C   C50       1.0  0.96300  0.83820  0.36060  1.0000 -0.1486571643
C   C51       1.0  0.41180  0.88940  0.28700  1.0000 -0.1486571643
C   C52       1.0  0.83820  0.96300  0.83820  1.0000 -0.1486571643
C   C53       1.0  0.83820  0.96300  0.36060  1.0000 -0.1486571643
C   C54       1.0  0.28700  0.41180  0.41180  1.0000 -0.1486571643
C   C55       1.0  0.83820  0.36060  0.96300  1.0000 -0.1486571643
C   C56       1.0  0.83820  0.83820  0.96300  1.0000 -0.1486571643
C   C57       1.0  0.41180  0.28700  0.88940  1.0000 -0.1486571643
C   C58       1.0  0.96300  0.36060  0.83820  1.0000 -0.1486571643
C   C59       1.0  0.41180  0.88940  0.41180  1.0000 -0.1486571643
C   C60       1.0  0.41180  0.41180  0.88940  1.0000 -0.1486571643
C   C61       1.0  0.41180  0.41180  0.28700  1.0000 -0.1486571643
C   C62       1.0  0.28700  0.41180  0.88940  1.0000 -0.1486571643
C   C63       1.0  0.88940  0.28700  0.41180  1.0000 -0.1486571643
C   C64       1.0  0.88940  0.41180  0.28700  1.0000 -0.1486571643
C   C65       1.0  0.41180  0.28700  0.41180  1.0000 -0.1486571643
C   C66       1.0  0.28700  0.88940  0.41180  1.0000 -0.1486571643
C   C67       1.0  0.36060  0.83820  0.96300  1.0000 -0.1486571643
C   C68       1.0  0.83820  0.36060  0.83820  1.0000 -0.1486571643
C   C69       1.0  0.96300  0.83820  0.83820  1.0000 -0.1486571643
C   C70       1.0  0.36060  0.83820  0.83820  1.0000 -0.1486571643
C   C71       1.0  0.36060  0.96300  0.83820  1.0000 -0.1486571643
C   C72       1.0  0.83820  0.83820  0.36060  1.0000 -0.1486571643
C   C73       1.0  0.87190  0.44430  0.44430  1.0000 -0.1486571643
C   C74       1.0  0.01050  0.80570  0.37810  1.0000 -0.1486571643
C   C75       1.0  0.44430  0.87190  0.23950  1.0000 -0.1486571643
C   C76       1.0  0.80570  0.01050  0.80570  1.0000 -0.1486571643
C   C77       1.0  0.80570  0.01050  0.37810  1.0000 -0.1486571643
C   C78       1.0  0.23950  0.44430  0.44430  1.0000 -0.1486571643
C   C79       1.0  0.80570  0.37810  0.01050  1.0000 -0.1486571643
C   C80       1.0  0.80570  0.80570  0.01050  1.0000 -0.1486571643
C   C81       1.0  0.44430  0.23950  0.87190  1.0000 -0.1486571643
C   C82       1.0  0.01050  0.37810  0.80570  1.0000 -0.1486571643
C   C83       1.0  0.44430  0.87190  0.44430  1.0000 -0.1486571643
C   C84       1.0  0.44430  0.44430  0.87190  1.0000 -0.1486571643
C   C85       1.0  0.44430  0.44430  0.23950  1.0000 -0.1486571643
C   C86       1.0  0.23950  0.44430  0.87190  1.0000 -0.1486571643
C   C87       1.0  0.87190  0.23950  0.44430  1.0000 -0.1486571643
C   C88       1.0  0.87190  0.44430  0.23950  1.0000 -0.1486571643
C   C89       1.0  0.44430  0.23950  0.44430  1.0000 -0.1486571643
C   C90       1.0  0.23950  0.87190  0.44430  1.0000 -0.1486571643
C   C91       1.0  0.37810  0.80570  0.01050  1.0000 -0.1486571643
C   C92       1.0  0.80570  0.37810  0.80570  1.0000 -0.1486571643
C   C93       1.0  0.01050  0.80570  0.80570  1.0000 -0.1486571643
C   C94       1.0  0.37810  0.80570  0.80570  1.0000 -0.1486571643
C   C95       1.0  0.37810  0.01050  0.80570  1.0000 -0.1486571643
C   C96       1.0  0.80570  0.80570  0.37810  1.0000 -0.1486571643
C   C97       1.0  0.94580  0.39380  0.46760  1.0000 -0.1432746407
C   C98       1.0  0.05720  0.78240  0.30420  1.0000 -0.1486571643
C   C99       1.0  0.39380  0.94580  0.19280  1.0000 -0.1486571643
C   C100      1.0  0.78240  0.05720  0.85620  1.0000 -0.1432746407
C   C101      1.0  0.85620  0.05720  0.30420  1.0000 -0.1432746407
C   C102      1.0  0.19280  0.46760  0.39380  1.0000 -0.1486571643
C   C103      1.0  0.78240  0.30420  0.05720  1.0000 -0.1486571643
C   C104      1.0  0.85620  0.78240  0.05720  1.0000 -0.1486571643
C   C105      1.0  0.46760  0.19280  0.94580  1.0000 -0.1486571643
C   C106      1.0  0.05720  0.30420  0.85620  1.0000 -0.1486571643
C   C107      1.0  0.46760  0.94580  0.39380  1.0000 -0.1486571643
C   C108      1.0  0.39380  0.46760  0.94580  1.0000 -0.1486571643
C   C109      1.0  0.46760  0.39380  0.19280  1.0000 -0.1486571643
C   C110      1.0  0.19280  0.39380  0.94580  1.0000 -0.1486571643
C   C111      1.0  0.94580  0.19280  0.39380  1.0000 -0.1486571643
C   C112      1.0  0.94580  0.46760  0.19280  1.0000 -0.1432746407
C   C113      1.0  0.39380  0.19280  0.46760  1.0000 -0.1432746407
C   C114      1.0  0.19280  0.94580  0.46760  1.0000 -0.1486571643
C   C115      1.0  0.30420  0.85620  0.05720  1.0000 -0.1486571643
C   C116      1.0  0.85620  0.30420  0.78240  1.0000 -0.1486571643
C   C117      1.0  0.05720  0.85620  0.78240  1.0000 -0.1432746407
C   C118      1.0  0.30420  0.78240  0.85620  1.0000 -0.1432746407
C   C119      1.0  0.30420  0.05720  0.78240  1.0000 -0.1486571643
C   C120      1.0  0.78240  0.85620  0.30420  1.0000 -0.1486571643
C   C121      1.0  0.30420  0.85620  0.78240  1.0000 -0.1486571643
C   C122      1.0  0.19280  0.46760  0.94580  1.0000 -0.1486571643
C   C123      1.0  0.85620  0.30420  0.05720  1.0000 -0.1486571643
C   C124      1.0  0.46760  0.19280  0.39380  1.0000 -0.1486571643
C   C125      1.0  0.39380  0.19280  0.94580  1.0000 -0.1486571643
C   C126      1.0  0.05720  0.78240  0.85620  1.0000 -0.1432746407
C   C127      1.0  0.46760  0.94580  0.19280  1.0000 -0.1432746407
C   C128      1.0  0.39380  0.46760  0.19280  1.0000 -0.1486571643
C   C129      1.0  0.78240  0.05720  0.30420  1.0000 -0.1432746407
C   C130      1.0  0.19280  0.94580  0.39380  1.0000 -0.1486571643
C   C131      1.0  0.78240  0.30420  0.85620  1.0000 -0.1486571643
C   C132      1.0  0.85620  0.78240  0.30420  1.0000 -0.1432746407
C   C133      1.0  0.78240  0.85620  0.05720  1.0000 -0.1486571643
C   C134      1.0  0.05720  0.85620  0.30420  1.0000 -0.1486571643
C   C135      1.0  0.30420  0.05720  0.85620  1.0000 -0.1486571643
C   C136      1.0  0.30420  0.78240  0.05720  1.0000 -0.1486571643
C   C137      1.0  0.85620  0.05720  0.78240  1.0000 -0.1486571643
C   C138      1.0  0.05720  0.30420  0.78240  1.0000 -0.1486571643
C   C139      1.0  0.94580  0.39380  0.19280  1.0000 -0.1486571643
C   C140      1.0  0.39380  0.94580  0.46760  1.0000 -0.1486571643
C   C141      1.0  0.19280  0.39380  0.46760  1.0000 -0.1486571643
C   C142      1.0  0.94580  0.46760  0.39380  1.0000 -0.1486571643
C   C143      1.0  0.94580  0.19280  0.46760  1.0000 -0.1432746407
C   C144      1.0  0.46760  0.39380  0.94580  1.0000 -0.1486571643
C   C145      1.0  0.96460  0.36220  0.43380  1.0000 -0.1575491779
C   C146      1.0  0.01060  0.81620  0.28540  1.0000 -0.1575491779
C   C147      1.0  0.36220  0.96460  0.23940  1.0000 -0.1575491779
C   C148      1.0  0.81620  0.01060  0.88780  1.0000 -0.1575491779
C   C149      1.0  0.88780  0.01060  0.28540  1.0000 -0.1575491779
C   C150      1.0  0.23940  0.43380  0.36220  1.0000 -0.1575491779
C   C151      1.0  0.81620  0.28540  0.01060  1.0000 -0.1575491779
C   C152      1.0  0.88780  0.81620  0.01060  1.0000 -0.1575491779
C   C153      1.0  0.43380  0.23940  0.96460  1.0000 -0.1575491779
C   C154      1.0  0.01060  0.28540  0.88780  1.0000 -0.1575491779
C   C155      1.0  0.43380  0.96460  0.36220  1.0000 -0.1575491779
C   C156      1.0  0.36220  0.43380  0.96460  1.0000 -0.1575491779
C   C157      1.0  0.43380  0.36220  0.23940  1.0000 -0.1575491779
C   C158      1.0  0.23940  0.36220  0.96460  1.0000 -0.1575491779
C   C159      1.0  0.96460  0.23940  0.36220  1.0000 -0.1575491779
C   C160      1.0  0.96460  0.43380  0.23940  1.0000 -0.1575491779
C   C161      1.0  0.36220  0.23940  0.43380  1.0000 -0.1575491779
C   C162      1.0  0.23940  0.96460  0.43380  1.0000 -0.1575491779
C   C163      1.0  0.28540  0.88780  0.01060  1.0000 -0.1575491779
C   C164      1.0  0.88780  0.28540  0.81620  1.0000 -0.1575491779
C   C165      1.0  0.01060  0.88780  0.81620  1.0000 -0.1575491779
C   C166      1.0  0.28540  0.81620  0.88780  1.0000 -0.1575491779
C   C167      1.0  0.28540  0.01060  0.81620  1.0000 -0.1575491779
C   C168      1.0  0.81620  0.88780  0.28540  1.0000 -0.1575491779
C   C169      1.0  0.28540  0.88780  0.81620  1.0000 -0.1575491779
C   C170      1.0  0.23940  0.43380  0.96460  1.0000 -0.1575491779
C   C171      1.0  0.88780  0.28540  0.01060  1.0000 -0.1575491779
C   C172      1.0  0.43380  0.23940  0.36220  1.0000 -0.1575491779
C   C173      1.0  0.36220  0.23940  0.96460  1.0000 -0.1575491779
C   C174      1.0  0.01060  0.81620  0.88780  1.0000 -0.1575491779
C   C175      1.0  0.43380  0.96460  0.23940  1.0000 -0.1575491779
C   C176      1.0  0.36220  0.43380  0.23940  1.0000 -0.1575491779
C   C177      1.0  0.81620  0.01060  0.28540  1.0000 -0.1575491779
C   C178      1.0  0.23940  0.96460  0.36220  1.0000 -0.1575491779
C   C179      1.0  0.81620  0.28540  0.88780  1.0000 -0.1575491779
C   C180      1.0  0.88780  0.81620  0.28540  1.0000 -0.1575491779
C   C181      1.0  0.81620  0.88780  0.01060  1.0000 -0.1575491779
C   C182      1.0  0.01060  0.88780  0.28540  1.0000 -0.1575491779
C   C183      1.0  0.28540  0.01060  0.88780  1.0000 -0.1575491779
C   C184      1.0  0.28540  0.81620  0.01060  1.0000 -0.1575491779
C   C185      1.0  0.88780  0.01060  0.81620  1.0000 -0.1575491779
C   C186      1.0  0.01060  0.28540  0.81620  1.0000 -0.1575491779
C   C187      1.0  0.96460  0.36220  0.23940  1.0000 -0.1575491779
C   C188      1.0  0.36220  0.96460  0.43380  1.0000 -0.1575491779
C   C189      1.0  0.23940  0.36220  0.43380  1.0000 -0.1575491779
C   C190      1.0  0.96460  0.43380  0.36220  1.0000 -0.1575491779
C   C191      1.0  0.96460  0.23940  0.43380  1.0000 -0.1575491779
C   C192      1.0  0.43380  0.36220  0.96460  1.0000 -0.1575491779
C   C193      1.0  0.99430  0.51850  0.44510  1.0000 -0.1575491779
C   C194      1.0  0.20790  0.80490  0.25570  1.0000 -0.1575491779
C   C195      1.0  0.51850  0.99430  0.04210  1.0000 -0.1575491779
C   C196      1.0  0.80490  0.20790  0.73150  1.0000 -0.1486571643
C   C197      1.0  0.73150  0.20790  0.25570  1.0000 -0.1575491779
C   C198      1.0  0.04210  0.44510  0.51850  1.0000 -0.1575491779
C   C199      1.0  0.80490  0.25570  0.20790  1.0000 -0.1575491779
C   C200      1.0  0.73150  0.80490  0.20790  1.0000 -0.1575491779
C   C201      1.0  0.44510  0.04210  0.99430  1.0000 -0.1575491779
C   C202      1.0  0.20790  0.25570  0.73150  1.0000 -0.1575491779
C   C203      1.0  0.44510  0.99430  0.51850  1.0000 -0.1575491779
C   C204      1.0  0.51850  0.44510  0.99430  1.0000 -0.1575491779
C   C205      1.0  0.44510  0.51850  0.04210  1.0000 -0.1575491779
C   C206      1.0  0.04210  0.51850  0.99430  1.0000 -0.1575491779
C   C207      1.0  0.99430  0.04210  0.51850  1.0000 -0.1575491779
C   C208      1.0  0.99430  0.44510  0.04210  1.0000 -0.1486571643
C   C209      1.0  0.51850  0.04210  0.44510  1.0000 -0.1575491779
C   C210      1.0  0.04210  0.99430  0.44510  1.0000 -0.1575491779
C   C211      1.0  0.25570  0.73150  0.20790  1.0000 -0.1486571643
C   C212      1.0  0.73150  0.25570  0.80490  1.0000 -0.1575491779
C   C213      1.0  0.20790  0.73150  0.80490  1.0000 -0.1575491779
C   C214      1.0  0.25570  0.80490  0.73150  1.0000 -0.1575491779
C   C215      1.0  0.25570  0.20790  0.80490  1.0000 -0.1575491779
C   C216      1.0  0.80490  0.73150  0.25570  1.0000 -0.1575491779
C   C217      1.0  0.25570  0.73150  0.80490  1.0000 -0.1575491779
C   C218      1.0  0.04210  0.44510  0.99430  1.0000 -0.1575491779
C   C219      1.0  0.73150  0.25570  0.20790  1.0000 -0.1486571643
C   C220      1.0  0.44510  0.04210  0.51850  1.0000 -0.1575491779
C   C221      1.0  0.51850  0.04210  0.99430  1.0000 -0.1575491779
C   C222      1.0  0.20790  0.80490  0.73150  1.0000 -0.1575491779
C   C223      1.0  0.44510  0.99430  0.04210  1.0000 -0.1575491779
C   C224      1.0  0.51850  0.44510  0.04210  1.0000 -0.1575491779
C   C225      1.0  0.80490  0.20790  0.25570  1.0000 -0.1575491779
C   C226      1.0  0.04210  0.99430  0.51850  1.0000 -0.1575491779
C   C227      1.0  0.80490  0.25570  0.73150  1.0000 -0.1575491779
C   C228      1.0  0.73150  0.80490  0.25570  1.0000 -0.1575491779
C   C229      1.0  0.80490  0.73150  0.20790  1.0000 -0.1575491779
C   C230      1.0  0.20790  0.73150  0.25570  1.0000 -0.1575491779
C   C231      1.0  0.25570  0.20790  0.73150  1.0000 -0.1486571643
C   C232      1.0  0.25570  0.80490  0.20790  1.0000 -0.1486571643
C   C233      1.0  0.73150  0.20790  0.80490  1.0000 -0.1575491779
C   C234      1.0  0.20790  0.25570  0.80490  1.0000 -0.1575491779
C   C235      1.0  0.99430  0.51850  0.04210  1.0000 -0.1486571643
C   C236      1.0  0.51850  0.99430  0.44510  1.0000 -0.1486571643
C   C237      1.0  0.04210  0.51850  0.44510  1.0000 -0.1486571643
C   C238      1.0  0.99430  0.44510  0.51850  1.0000 -0.1575491779
C   C239      1.0  0.99430  0.04210  0.44510  1.0000 -0.1486571643
C   C240      1.0  0.44510  0.51850  0.99430  1.0000 -0.1575491779
C   C241      1.0  0.94950  0.52770  0.52770  1.0000 -0.1575491779
C   C242      1.0  0.25490  0.72230  0.30050  1.0000 -0.166230322
C   C243      1.0  0.52770  0.94950  0.99510  1.0000 -0.166230322
C   C244      1.0  0.72230  0.25490  0.72230  1.0000 -0.1575491779
C   C245      1.0  0.72230  0.25490  0.30050  1.0000 -0.166230322
C   C246      1.0  0.99510  0.52770  0.52770  1.0000 -0.1575491779
C   C247      1.0  0.72230  0.30050  0.25490  1.0000 -0.1575491779
C   C248      1.0  0.72230  0.72230  0.25490  1.0000 -0.166230322
C   C249      1.0  0.52770  0.99510  0.94950  1.0000 -0.166230322
C   C250      1.0  0.25490  0.30050  0.72230  1.0000 -0.166230322
C   C251      1.0  0.52770  0.94950  0.52770  1.0000 -0.166230322
C   C252      1.0  0.52770  0.52770  0.94950  1.0000 -0.166230322
C   C253      1.0  0.52770  0.52770  0.99510  1.0000 -0.1575491779
C   C254      1.0  0.99510  0.52770  0.94950  1.0000 -0.166230322
C   C255      1.0  0.94950  0.99510  0.52770  1.0000 -0.166230322
C   C256      1.0  0.94950  0.52770  0.99510  1.0000 -0.166230322
C   C257      1.0  0.52770  0.99510  0.52770  1.0000 -0.166230322
C   C258      1.0  0.99510  0.94950  0.52770  1.0000 -0.166230322
C   C259      1.0  0.30050  0.72230  0.25490  1.0000 -0.166230322
C   C260      1.0  0.72230  0.30050  0.72230  1.0000 -0.166230322
C   C261      1.0  0.25490  0.72230  0.72230  1.0000 -0.1575491779
C   C262      1.0  0.30050  0.72230  0.72230  1.0000 -0.1575491779
C   C263      1.0  0.30050  0.25490  0.72230  1.0000 -0.1575491779
C   C264      1.0  0.72230  0.72230  0.30050  1.0000 -0.166230322
C   C265      1.0  0.87230  0.59750  0.40690  1.0000 -0.1432746407
C   C266      1.0  0.12670  0.84310  0.37770  1.0000 -0.1432746407
C   C267      1.0  0.59750  0.87230  0.12330  1.0000 -0.1486571643
C   C268      1.0  0.84310  0.12670  0.65250  1.0000 -0.1432746407
C   C269      1.0  0.65250  0.12670  0.37770  1.0000 -0.1432746407
C   C270      1.0  0.12330  0.40690  0.59750  1.0000 -0.1432746407
C   C271      1.0  0.84310  0.37770  0.12670  1.0000 -0.1432746407
C   C272      1.0  0.65250  0.84310  0.12670  1.0000 -0.1432746407
C   C273      1.0  0.40690  0.12330  0.87230  1.0000 -0.1432746407
C   C274      1.0  0.12670  0.37770  0.65250  1.0000 -0.1432746407
C   C275      1.0  0.40690  0.87230  0.59750  1.0000 -0.1432746407
C   C276      1.0  0.59750  0.40690  0.87230  1.0000 -0.1432746407
C   C277      1.0  0.40690  0.59750  0.12330  1.0000 -0.1432746407
C   C278      1.0  0.12330  0.59750  0.87230  1.0000 -0.1432746407
C   C279      1.0  0.87230  0.12330  0.59750  1.0000 -0.1432746407
C   C280      1.0  0.87230  0.40690  0.12330  1.0000 -0.1432746407
C   C281      1.0  0.59750  0.12330  0.40690  1.0000 -0.1432746407
C   C282      1.0  0.12330  0.87230  0.40690  1.0000 -0.1432746407
C   C283      1.0  0.37770  0.65250  0.12670  1.0000 -0.1432746407
C   C284      1.0  0.65250  0.37770  0.84310  1.0000 -0.1432746407
C   C285      1.0  0.12670  0.65250  0.84310  1.0000 -0.1432746407
C   C286      1.0  0.37770  0.84310  0.65250  1.0000 -0.1432746407
C   C287      1.0  0.37770  0.12670  0.84310  1.0000 -0.1486571643
C   C288      1.0  0.84310  0.65250  0.37770  1.0000 -0.1432746407
C   C289      1.0  0.37770  0.65250  0.84310  1.0000 -0.1432746407
C   C290      1.0  0.12330  0.40690  0.87230  1.0000 -0.1432746407
C   C291      1.0  0.65250  0.37770  0.12670  1.0000 -0.1432746407
C   C292      1.0  0.40690  0.12330  0.59750  1.0000 -0.1432746407
C   C293      1.0  0.59750  0.12330  0.87230  1.0000 -0.1432746407
C   C294      1.0  0.12670  0.84310  0.65250  1.0000 -0.1432746407
C   C295      1.0  0.40690  0.87230  0.12330  1.0000 -0.1432746407
C   C296      1.0  0.59750  0.40690  0.12330  1.0000 -0.1432746407
C   C297      1.0  0.84310  0.12670  0.37770  1.0000 -0.1432746407
C   C298      1.0  0.12330  0.87230  0.59750  1.0000 -0.1432746407
C   C299      1.0  0.84310  0.37770  0.65250  1.0000 -0.1432746407
C   C300      1.0  0.65250  0.84310  0.37770  1.0000 -0.1432746407
C   C301      1.0  0.84310  0.65250  0.12670  1.0000 -0.1432746407
C   C302      1.0  0.12670  0.65250  0.37770  1.0000 -0.1486571643
C   C303      1.0  0.37770  0.12670  0.65250  1.0000 -0.1432746407
C   C304      1.0  0.37770  0.84310  0.12670  1.0000 -0.1432746407
C   C305      1.0  0.65250  0.12670  0.84310  1.0000 -0.1432746407
C   C306      1.0  0.12670  0.37770  0.84310  1.0000 -0.1432746407
C   C307      1.0  0.87230  0.59750  0.12330  1.0000 -0.1486571643
C   C308      1.0  0.59750  0.87230  0.40690  1.0000 -0.1432746407
C   C309      1.0  0.12330  0.59750  0.40690  1.0000 -0.1432746407
C   C310      1.0  0.87230  0.40690  0.59750  1.0000 -0.1432746407
C   C311      1.0  0.87230  0.12330  0.40690  1.0000 -0.1432746407
C   C312      1.0  0.40690  0.59750  0.87230  1.0000 -0.1432746407
C   C313      1.0  0.79310  0.58170  0.45590  1.0000 -0.166230322
C   C314      1.0  0.08070  0.79410  0.45690  1.0000 -0.166230322
C   C315      1.0  0.58170  0.79310  0.16930  1.0000 -0.166230322
C   C316      1.0  0.79410  0.08070  0.66830  1.0000 -0.1575491779
C   C317      1.0  0.66830  0.08070  0.45690  1.0000 -0.166230322
C   C318      1.0  0.16930  0.45590  0.58170  1.0000 -0.166230322
C   C319      1.0  0.79410  0.45690  0.08070  1.0000 -0.1575491779
C   C320      1.0  0.66830  0.79410  0.08070  1.0000 -0.166230322
C   C321      1.0  0.45590  0.16930  0.79310  1.0000 -0.166230322
C   C322      1.0  0.08070  0.45690  0.66830  1.0000 -0.166230322
C   C323      1.0  0.45590  0.79310  0.58170  1.0000 -0.166230322
C   C324      1.0  0.58170  0.45590  0.79310  1.0000 -0.166230322
C   C325      1.0  0.45590  0.58170  0.16930  1.0000 -0.166230322
C   C326      1.0  0.16930  0.58170  0.79310  1.0000 -0.166230322
C   C327      1.0  0.79310  0.16930  0.58170  1.0000 -0.166230322
C   C328      1.0  0.79310  0.45590  0.16930  1.0000 -0.166230322
C   C329      1.0  0.58170  0.16930  0.45590  1.0000 -0.166230322
C   C330      1.0  0.16930  0.79310  0.45590  1.0000 -0.166230322
C   C331      1.0  0.45690  0.66830  0.08070  1.0000 -0.1575491779
C   C332      1.0  0.66830  0.45690  0.79410  1.0000 -0.166230322
C   C333      1.0  0.08070  0.66830  0.79410  1.0000 -0.166230322
C   C334      1.0  0.45690  0.79410  0.66830  1.0000 -0.1575491779
C   C335      1.0  0.45690  0.08070  0.79410  1.0000 -0.166230322
C   C336      1.0  0.79410  0.66830  0.45690  1.0000 -0.166230322
C   C337      1.0  0.45690  0.66830  0.79410  1.0000 -0.166230322
C   C338      1.0  0.16930  0.45590  0.79310  1.0000 -0.166230322
C   C339      1.0  0.66830  0.45690  0.08070  1.0000 -0.1575491779
C   C340      1.0  0.45590  0.16930  0.58170  1.0000 -0.166230322
C   C341      1.0  0.58170  0.16930  0.79310  1.0000 -0.166230322
C   C342      1.0  0.08070  0.79410  0.66830  1.0000 -0.1575491779
C   C343      1.0  0.45590  0.79310  0.16930  1.0000 -0.166230322
C   C344      1.0  0.58170  0.45590  0.16930  1.0000 -0.166230322
C   C345      1.0  0.79410  0.08070  0.45690  1.0000 -0.166230322
C   C346      1.0  0.16930  0.79310  0.58170  1.0000 -0.166230322
C   C347      1.0  0.79410  0.45690  0.66830  1.0000 -0.1575491779
C   C348      1.0  0.66830  0.79410  0.45690  1.0000 -0.166230322
C   C349      1.0  0.79410  0.66830  0.08070  1.0000 -0.1575491779
C   C350      1.0  0.08070  0.66830  0.45690  1.0000 -0.166230322
C   C351      1.0  0.45690  0.08070  0.66830  1.0000 -0.166230322
C   C352      1.0  0.45690  0.79410  0.08070  1.0000 -0.166230322
C   C353      1.0  0.66830  0.08070  0.79410  1.0000 -0.166230322
C   C354      1.0  0.08070  0.45690  0.79410  1.0000 -0.166230322
C   C355      1.0  0.79310  0.58170  0.16930  1.0000 -0.166230322
C   C356      1.0  0.58170  0.79310  0.45590  1.0000 -0.166230322
C   C357      1.0  0.16930  0.58170  0.45590  1.0000 -0.166230322
C   C358      1.0  0.79310  0.45590  0.58170  1.0000 -0.166230322
C   C359      1.0  0.79310  0.16930  0.45590  1.0000 -0.166230322
C   C360      1.0  0.45590  0.58170  0.79310  1.0000 -0.166230322
C   C361      1.0  0.82110  0.61410  0.48490  1.0000 -0.1575491779
C   C362      1.0  0.17010  0.76510  0.42890  1.0000 -0.1575491779
C   C363      1.0  0.61410  0.82110  0.07990  1.0000 -0.1575491779
C   C364      1.0  0.76510  0.17010  0.63590  1.0000 -0.1575491779
C   C365      1.0  0.63590  0.17010  0.42890  1.0000 -0.1575491779
C   C366      1.0  0.07990  0.48490  0.61410  1.0000 -0.1575491779
C   C367      1.0  0.76510  0.42890  0.17010  1.0000 -0.1575491779
C   C368      1.0  0.63590  0.76510  0.17010  1.0000 -0.1575491779
C   C369      1.0  0.48490  0.07990  0.82110  1.0000 -0.1486571643
C   C370      1.0  0.17010  0.42890  0.63590  1.0000 -0.1575491779
C   C371      1.0  0.48490  0.82110  0.61410  1.0000 -0.1575491779
C   C372      1.0  0.61410  0.48490  0.82110  1.0000 -0.1575491779
C   C373      1.0  0.48490  0.61410  0.07990  1.0000 -0.1575491779
C   C374      1.0  0.07990  0.61410  0.82110  1.0000 -0.1575491779
C   C375      1.0  0.82110  0.07990  0.61410  1.0000 -0.1575491779
C   C376      1.0  0.82110  0.48490  0.07990  1.0000 -0.1575491779
C   C377      1.0  0.61410  0.07990  0.48490  1.0000 -0.1575491779
C   C378      1.0  0.07990  0.82110  0.48490  1.0000 -0.1575491779
C   C379      1.0  0.42890  0.63590  0.17010  1.0000 -0.1486571643
C   C380      1.0  0.63590  0.42890  0.76510  1.0000 -0.1575491779
C   C381      1.0  0.17010  0.63590  0.76510  1.0000 -0.1575491779
C   C382      1.0  0.42890  0.76510  0.63590  1.0000 -0.1575491779
C   C383      1.0  0.42890  0.17010  0.76510  1.0000 -0.1575491779
C   C384      1.0  0.76510  0.63590  0.42890  1.0000 -0.1575491779
C   C385      1.0  0.42890  0.63590  0.76510  1.0000 -0.1575491779
C   C386      1.0  0.07990  0.48490  0.82110  1.0000 -0.1575491779
C   C387      1.0  0.63590  0.42890  0.17010  1.0000 -0.1486571643
C   C388      1.0  0.48490  0.07990  0.61410  1.0000 -0.1575491779
C   C389      1.0  0.61410  0.07990  0.82110  1.0000 -0.1575491779
C   C390      1.0  0.17010  0.76510  0.63590  1.0000 -0.1575491779
C   C391      1.0  0.48490  0.82110  0.07990  1.0000 -0.1575491779
C   C392      1.0  0.61410  0.48490  0.07990  1.0000 -0.1575491779
C   C393      1.0  0.76510  0.17010  0.42890  1.0000 -0.1575491779
C   C394      1.0  0.07990  0.82110  0.61410  1.0000 -0.1575491779
C   C395      1.0  0.76510  0.42890  0.63590  1.0000 -0.1575491779
C   C396      1.0  0.63590  0.76510  0.42890  1.0000 -0.1575491779
C   C397      1.0  0.76510  0.63590  0.17010  1.0000 -0.1575491779
C   C398      1.0  0.17010  0.63590  0.42890  1.0000 -0.1575491779
C   C399      1.0  0.42890  0.17010  0.63590  1.0000 -0.1575491779
C   C400      1.0  0.42890  0.76510  0.17010  1.0000 -0.1575491779
C   C401      1.0  0.63590  0.17010  0.76510  1.0000 -0.1486571643
C   C402      1.0  0.17010  0.42890  0.76510  1.0000 -0.1575491779
C   C403      1.0  0.82110  0.61410  0.07990  1.0000 -0.1575491779
C   C404      1.0  0.61410  0.82110  0.48490  1.0000 -0.1575491779
C   C405      1.0  0.07990  0.61410  0.48490  1.0000 -0.1575491779
C   C406      1.0  0.82110  0.48490  0.61410  1.0000 -0.1575491779
C   C407      1.0  0.82110  0.07990  0.48490  1.0000 -0.1575491779
C   C408      1.0  0.48490  0.61410  0.82110  1.0000 -0.1575491779
N   N1        1.0  0.16060  0.27980  0.27980  1.0000 -0.1185043321
N   N2        1.0  0.97020  0.97020  0.08940  1.0000 -0.1185043321
N   N3        1.0  0.27980  0.16060  0.27980  1.0000 -0.1185043321
N   N4        1.0  0.97020  0.97020  0.97020  1.0000 -0.1185043321
N   N5        1.0  0.27980  0.27980  0.27980  1.0000 -0.1185043321
N   N6        1.0  0.97020  0.08940  0.97020  1.0000 -0.1185043321
N   N7        1.0  0.27980  0.27980  0.16060  1.0000 -0.1185043321
N   N8        1.0  0.08940  0.97020  0.97020  1.0000 -0.1185043321
N   N9        1.0  0.06250  0.31250  0.31250  1.0000 -0.1285686274
N   N10       1.0  0.93750  0.93750  0.18750  1.0000 -0.1285686274
N   N11       1.0  0.31250  0.06250  0.31250  1.0000 -0.1285686274
N   N12       1.0  0.93750  0.93750  0.93750  1.0000 -0.1285686274
N   N13       1.0  0.31250  0.31250  0.31250  1.0000 -0.1285686274
N   N14       1.0  0.93750  0.18750  0.93750  1.0000 -0.1285686274
N   N15       1.0  0.31250  0.31250  0.06250  1.0000 -0.1285686274
N   N16       1.0  0.18750  0.93750  0.93750  1.0000 -0.1285686274
N   N17       1.0  0.94462  0.39220  0.39220  1.0000 -0.1185043321
N   N18       1.0  0.97902  0.85780  0.30538  1.0000 -0.1185043321
N   N19       1.0  0.39220  0.94462  0.27098  1.0000 -0.1185043321
N   N20       1.0  0.85780  0.97902  0.85780  1.0000 -0.1185043321
N   N21       1.0  0.85780  0.97902  0.30538  1.0000 -0.1185043321
N   N22       1.0  0.27098  0.39220  0.39220  1.0000 -0.1185043321
N   N23       1.0  0.85780  0.30538  0.97902  1.0000 -0.1185043321
N   N24       1.0  0.85780  0.85780  0.97902  1.0000 -0.1185043321
N   N25       1.0  0.39220  0.27098  0.94462  1.0000 -0.1185043321
N   N26       1.0  0.97902  0.30538  0.85780  1.0000 -0.1185043321
N   N27       1.0  0.39220  0.94462  0.39220  1.0000 -0.1185043321
N   N28       1.0  0.39220  0.39220  0.94462  1.0000 -0.1185043321
N   N29       1.0  0.39220  0.39220  0.27098  1.0000 -0.1185043321
N   N30       1.0  0.27098  0.39220  0.94462  1.0000 -0.1185043321
N   N31       1.0  0.94462  0.27098  0.39220  1.0000 -0.1185043321
N   N32       1.0  0.94462  0.39220  0.27098  1.0000 -0.1185043321
N   N33       1.0  0.39220  0.27098  0.39220  1.0000 -0.1185043321
N   N34       1.0  0.27098  0.94462  0.39220  1.0000 -0.1185043321
N   N35       1.0  0.30538  0.85780  0.97902  1.0000 -0.1185043321
N   N36       1.0  0.85780  0.30538  0.85780  1.0000 -0.1185043321
N   N37       1.0  0.97902  0.85780  0.85780  1.0000 -0.1185043321
N   N38       1.0  0.30538  0.85780  0.85780  1.0000 -0.1185043321
N   N39       1.0  0.30538  0.97902  0.85780  1.0000 -0.1185043321
N   N40       1.0  0.85780  0.85780  0.30538  1.0000 -0.1185043321
N   N41       1.0  0.91468  0.44640  0.44640  1.0000 -0.1285686274
N   N42       1.0  0.05748  0.80360  0.33532  1.0000 -0.1285686274
N   N43       1.0  0.44640  0.91468  0.19252  1.0000 -0.1285686274
N   N44       1.0  0.80360  0.05748  0.80360  1.0000 -0.1285686274
N   N45       1.0  0.80360  0.05748  0.33532  1.0000 -0.1285686274
N   N46       1.0  0.19252  0.44640  0.44640  1.0000 -0.1285686274
N   N47       1.0  0.80360  0.33532  0.05748  1.0000 -0.1285686274
N   N48       1.0  0.80360  0.80360  0.05748  1.0000 -0.1285686274
N   N49       1.0  0.44640  0.19252  0.91468  1.0000 -0.1285686274
N   N50       1.0  0.05748  0.33532  0.80360  1.0000 -0.1285686274
N   N51       1.0  0.44640  0.91468  0.44640  1.0000 -0.1285686274
N   N52       1.0  0.44640  0.44640  0.91468  1.0000 -0.1285686274
N   N53       1.0  0.44640  0.44640  0.19252  1.0000 -0.1285686274
N   N54       1.0  0.19252  0.44640  0.91468  1.0000 -0.1285686274
N   N55       1.0  0.91468  0.19252  0.44640  1.0000 -0.1285686274
N   N56       1.0  0.91468  0.44640  0.19252  1.0000 -0.1285686274
N   N57       1.0  0.44640  0.19252  0.44640  1.0000 -0.1285686274
N   N58       1.0  0.19252  0.91468  0.44640  1.0000 -0.1285686274
N   N59       1.0  0.33532  0.80360  0.05748  1.0000 -0.1285686274
N   N60       1.0  0.80360  0.33532  0.80360  1.0000 -0.1285686274
N   N61       1.0  0.05748  0.80360  0.80360  1.0000 -0.1285686274
N   N62       1.0  0.33532  0.80360  0.80360  1.0000 -0.1285686274
N   N63       1.0  0.33532  0.05748  0.80360  1.0000 -0.1285686274
N   N64       1.0  0.80360  0.80360  0.33532  1.0000 -0.1285686274
N   N65       1.0  0.96238  0.49710  0.49710  1.0000 -0.1285686274
N   N66       1.0  0.20658  0.75290  0.28762  1.0000 -0.1285686274
N   N67       1.0  0.49710  0.96238  0.04342  1.0000 -0.1285686274
N   N68       1.0  0.75290  0.20658  0.75290  1.0000 -0.1285686274
N   N69       1.0  0.75290  0.20658  0.28762  1.0000 -0.1285686274
N   N70       1.0  0.04342  0.49710  0.49710  1.0000 -0.1285686274
N   N71       1.0  0.75290  0.28762  0.20658  1.0000 -0.1285686274
N   N72       1.0  0.75290  0.75290  0.20658  1.0000 -0.1285686274
N   N73       1.0  0.49710  0.04342  0.96238  1.0000 -0.1285686274
N   N74       1.0  0.20658  0.28762  0.75290  1.0000 -0.1285686274
N   N75       1.0  0.49710  0.96238  0.49710  1.0000 -0.1285686274
N   N76       1.0  0.49710  0.49710  0.96238  1.0000 -0.1285686274
N   N77       1.0  0.49710  0.49710  0.04342  1.0000 -0.1285686274
N   N78       1.0  0.04342  0.49710  0.96238  1.0000 -0.1285686274
N   N79       1.0  0.96238  0.04342  0.49710  1.0000 -0.1285686274
N   N80       1.0  0.96238  0.49710  0.04342  1.0000 -0.1285686274
N   N81       1.0  0.49710  0.04342  0.49710  1.0000 -0.1285686274
N   N82       1.0  0.04342  0.96238  0.49710  1.0000 -0.1285686274
N   N83       1.0  0.28762  0.75290  0.20658  1.0000 -0.1285686274
N   N84       1.0  0.75290  0.28762  0.75290  1.0000 -0.1285686274
N   N85       1.0  0.20658  0.75290  0.75290  1.0000 -0.1285686274
N   N86       1.0  0.28762  0.75290  0.75290  1.0000 -0.1285686274
N   N87       1.0  0.28762  0.20658  0.75290  1.0000 -0.1285686274
N   N88       1.0  0.75290  0.75290  0.28762  1.0000 -0.1285686274
N   N89       1.0  0.83952  0.57964  0.45818  1.0000 -0.1185043321
N   N90       1.0  0.12734  0.79182  0.41048  1.0000 -0.1185043321
N   N91       1.0  0.57964  0.83952  0.12266  1.0000 -0.1185043321
N   N92       1.0  0.79182  0.12734  0.67036  1.0000 -0.1185043321
N   N93       1.0  0.67036  0.12734  0.41048  1.0000 -0.1185043321
N   N94       1.0  0.12266  0.45818  0.57964  1.0000 -0.1185043321
N   N95       1.0  0.79182  0.41048  0.12734  1.0000 -0.1185043321
N   N96       1.0  0.67036  0.79182  0.12734  1.0000 -0.1185043321
N   N97       1.0  0.45818  0.12266  0.83952  1.0000 -0.1185043321
N   N98       1.0  0.12734  0.41048  0.67036  1.0000 -0.1185043321
N   N99       1.0  0.45818  0.83952  0.57964  1.0000 -0.1185043321
N   N100      1.0  0.57964  0.45818  0.83952  1.0000 -0.1185043321
N   N101      1.0  0.45818  0.57964  0.12266  1.0000 -0.1185043321
N   N102      1.0  0.12266  0.57964  0.83952  1.0000 -0.1185043321
N   N103      1.0  0.83952  0.12266  0.57964  1.0000 -0.1185043321
N   N104      1.0  0.83952  0.45818  0.12266  1.0000 -0.1185043321
N   N105      1.0  0.57964  0.12266  0.45818  1.0000 -0.1185043321
N   N106      1.0  0.12266  0.83952  0.45818  1.0000 -0.1185043321
N   N107      1.0  0.41048  0.67036  0.12734  1.0000 -0.1185043321
N   N108      1.0  0.67036  0.41048  0.79182  1.0000 -0.1185043321
N   N109      1.0  0.12734  0.67036  0.79182  1.0000 -0.1185043321
N   N110      1.0  0.41048  0.79182  0.67036  1.0000 -0.1185043321
N   N111      1.0  0.41048  0.12734  0.79182  1.0000 -0.1185043321
N   N112      1.0  0.79182  0.67036  0.41048  1.0000 -0.1185043321
N   N113      1.0  0.41048  0.67036  0.79182  1.0000 -0.1185043321
N   N114      1.0  0.12266  0.45818  0.83952  1.0000 -0.1185043321
N   N115      1.0  0.67036  0.41048  0.12734  1.0000 -0.1185043321
N   N116      1.0  0.45818  0.12266  0.57964  1.0000 -0.1185043321
N   N117      1.0  0.57964  0.12266  0.83952  1.0000 -0.1185043321
N   N118      1.0  0.12734  0.79182  0.67036  1.0000 -0.1185043321
N   N119      1.0  0.45818  0.83952  0.12266  1.0000 -0.1185043321
N   N120      1.0  0.57964  0.45818  0.12266  1.0000 -0.1185043321
N   N121      1.0  0.79182  0.12734  0.41048  1.0000 -0.1185043321
N   N122      1.0  0.12266  0.83952  0.57964  1.0000 -0.1185043321
N   N123      1.0  0.79182  0.41048  0.67036  1.0000 -0.1185043321
N   N124      1.0  0.67036  0.79182  0.41048  1.0000 -0.1185043321
N   N125      1.0  0.79182  0.67036  0.12734  1.0000 -0.1185043321
N   N126      1.0  0.12734  0.67036  0.41048  1.0000 -0.1185043321
N   N127      1.0  0.41048  0.12734  0.67036  1.0000 -0.1185043321
N   N128      1.0  0.41048  0.79182  0.12734  1.0000 -0.1185043321
N   N129      1.0  0.67036  0.12734  0.79182  1.0000 -0.1185043321
N   N130      1.0  0.12734  0.41048  0.79182  1.0000 -0.1185043321
N   N131      1.0  0.83952  0.57964  0.12266  1.0000 -0.1185043321
N   N132      1.0  0.57964  0.83952  0.45818  1.0000 -0.1185043321
N   N133      1.0  0.12266  0.57964  0.45818  1.0000 -0.1185043321
N   N134      1.0  0.83952  0.45818  0.57964  1.0000 -0.1185043321
N   N135      1.0  0.83952  0.12266  0.45818  1.0000 -0.1185043321
N   N136      1.0  0.45818  0.57964  0.83952  1.0000 -0.1185043321
