# DDEC6 charges by PACMAN v1.1 (https://github.com/mtap-research/PACMAN-charge/)
data_2014[Cd][sra]3[ASR]1
_chemical_formula_sum              "Cd8 H224 C296 N32 O48"
_cell_length_a       10.4759
_cell_length_b       33.017
_cell_length_c       28.548
_cell_angle_alpha    90
_cell_angle_beta     97.288
_cell_angle_gamma    90

_symmetry_space_group_name_H-M    "P 1"
_symmetry_Int_Tables_number       1

loop_
  _symmetry_equiv_pos_as_xyz
  'x, y, z'

loop_
  _atom_site_type_symbol
  _atom_site_label
  _atom_site_symmetry_multiplicity
  _atom_site_fract_x
  _atom_site_fract_y
  _atom_site_fract_z
  _atom_site_occupancy
  _atom_site_charge
Cd  Cd1       1.0  0.90536  0.58718  0.80324  1.0000 0.8272418585
Cd  Cd2       1.0  0.09464  0.08718  0.69676  1.0000 0.8272418585
Cd  Cd3       1.0  0.09464  0.41282  0.19676  1.0000 0.8272418585
Cd  Cd4       1.0  0.90536  0.91282  0.30324  1.0000 0.8272418585
Cd  Cd5       1.0  0.08271  0.65511  0.32510  1.0000 0.8427745309
Cd  Cd6       1.0  0.91729  0.15511  0.17490  1.0000 0.8427745309
Cd  Cd7       1.0  0.91729  0.34489  0.67490  1.0000 0.8427745309
Cd  Cd8       1.0  0.08271  0.84489  0.82510  1.0000 0.8427745309
H   H1        1.0  0.79410  0.60170  0.64640  1.0000 0.3423350236
H   H2        1.0  0.20590  0.10170  0.85360  1.0000 0.3423350236
H   H3        1.0  0.20590  0.39830  0.35360  1.0000 0.3423350236
H   H4        1.0  0.79410  0.89830  0.14640  1.0000 0.3423350236
H   H5        1.0  0.26200  0.60760  0.46060  1.0000 0.3423350236
H   H6        1.0  0.73800  0.10760  0.03940  1.0000 0.3423350236
H   H7        1.0  0.73800  0.39240  0.53940  1.0000 0.3423350236
H   H8        1.0  0.26200  0.89240  0.96060  1.0000 0.3423350236
H   H9        1.0  0.82980  0.64220  0.93720  1.0000 0.3343722131
H   H10       1.0  0.17020  0.14220  0.56280  1.0000 0.3343722131
H   H11       1.0  0.17020  0.35780  0.06280  1.0000 0.3343722131
H   H12       1.0  0.82980  0.85780  0.43720  1.0000 0.3343722131
H   H13       1.0  0.90690  0.63980  0.19120  1.0000 0.3423350236
H   H14       1.0  0.09310  0.13980  0.30880  1.0000 0.3423350236
H   H15       1.0  0.09310  0.36020  0.80880  1.0000 0.3423350236
H   H16       1.0  0.90690  0.86020  0.69120  1.0000 0.3423350236
H   H17       1.0  0.51510  0.64320  0.73450  1.0000 0.136640897
H   H18       1.0  0.48490  0.14320  0.76550  1.0000 0.136640897
H   H19       1.0  0.48490  0.35680  0.26550  1.0000 0.136640897
H   H20       1.0  0.51510  0.85680  0.23450  1.0000 0.136640897
H   H21       1.0  0.28630  0.66240  0.71980  1.0000 0.111603876
H   H22       1.0  0.71370  0.16240  0.78020  1.0000 0.111603876
H   H23       1.0  0.71370  0.33760  0.28020  1.0000 0.111603876
H   H24       1.0  0.28630  0.83760  0.21980  1.0000 0.111603876
H   H25       1.0  0.09370  0.65900  0.66940  1.0000 0.111603876
H   H26       1.0  0.90630  0.15900  0.83060  1.0000 0.111603876
H   H27       1.0  0.90630  0.34100  0.33060  1.0000 0.111603876
H   H28       1.0  0.09370  0.84100  0.16940  1.0000 0.111603876
H   H29       1.0  0.10000  0.64910  0.58990  1.0000 0.1196850709
H   H30       1.0  0.90000  0.14910  0.91010  1.0000 0.1196850709
H   H31       1.0  0.90000  0.35090  0.41010  1.0000 0.1196850709
H   H32       1.0  0.10000  0.85090  0.08990  1.0000 0.1196850709
H   H33       1.0  0.28300  0.62970  0.56190  1.0000 0.1196850709
H   H34       1.0  0.71700  0.12970  0.93810  1.0000 0.1196850709
H   H35       1.0  0.71700  0.37030  0.43810  1.0000 0.1196850709
H   H36       1.0  0.28300  0.87030  0.06190  1.0000 0.1196850709
H   H37       1.0  0.61140  0.59770  0.55360  1.0000 0.111603876
H   H38       1.0  0.38860  0.09770  0.94640  1.0000 0.111603876
H   H39       1.0  0.38860  0.40230  0.44640  1.0000 0.111603876
H   H40       1.0  0.61140  0.90230  0.05360  1.0000 0.111603876
H   H41       1.0  0.46470  0.58720  0.54760  1.0000 0.111603876
H   H42       1.0  0.53530  0.08720  0.95240  1.0000 0.111603876
H   H43       1.0  0.53530  0.41280  0.45240  1.0000 0.111603876
H   H44       1.0  0.46470  0.91280  0.04760  1.0000 0.111603876
H   H45       1.0  0.43650  0.71920  0.42110  1.0000 0.1196850709
H   H46       1.0  0.56350  0.21920  0.07890  1.0000 0.1196850709
H   H47       1.0  0.56350  0.28080  0.57890  1.0000 0.1196850709
H   H48       1.0  0.43650  0.78080  0.92110  1.0000 0.1196850709
H   H49       1.0  0.63270  0.75660  0.45210  1.0000 0.1196850709
H   H50       1.0  0.36730  0.25660  0.04790  1.0000 0.1196850709
H   H51       1.0  0.36730  0.24340  0.54790  1.0000 0.1196850709
H   H52       1.0  0.63270  0.74340  0.95210  1.0000 0.1196850709
H   H53       1.0  0.81190  0.76320  0.50540  1.0000 0.111603876
H   H54       1.0  0.18810  0.26320  0.99460  1.0000 0.111603876
H   H55       1.0  0.18810  0.23680  0.49460  1.0000 0.111603876
H   H56       1.0  0.81190  0.73680  0.00540  1.0000 0.111603876
H   H57       1.0  0.85610  0.71610  0.56380  1.0000 0.111603876
H   H58       1.0  0.14390  0.21610  0.93620  1.0000 0.111603876
H   H59       1.0  0.14390  0.28390  0.43620  1.0000 0.111603876
H   H60       1.0  0.85610  0.78390  0.06380  1.0000 0.111603876
H   H61       1.0  0.72310  0.66190  0.57190  1.0000 0.1196850709
H   H62       1.0  0.27690  0.16190  0.92810  1.0000 0.1196850709
H   H63       1.0  0.27690  0.33810  0.42810  1.0000 0.1196850709
H   H64       1.0  0.72310  0.83810  0.07190  1.0000 0.1196850709
H   H65       1.0  0.08670  0.53820  0.95370  1.0000 0.1196850709
H   H66       1.0  0.91330  0.03820  0.54630  1.0000 0.1196850709
H   H67       1.0  0.91330  0.46180  0.04630  1.0000 0.1196850709
H   H68       1.0  0.08670  0.96180  0.45370  1.0000 0.1196850709
H   H69       1.0  0.20130  0.50070  0.02160  1.0000 0.1196850709
H   H70       1.0  0.79870  0.00070  0.47840  1.0000 0.1196850709
H   H71       1.0  0.79870  0.49930  0.97840  1.0000 0.1196850709
H   H72       1.0  0.20130  0.99930  0.52160  1.0000 0.1196850709
H   H73       1.0  0.24410  0.49440  0.10410  1.0000 0.111603876
H   H74       1.0  0.75590  0.99440  0.39590  1.0000 0.111603876
H   H75       1.0  0.75590  0.50560  0.89590  1.0000 0.111603876
H   H76       1.0  0.24410  0.00560  0.60410  1.0000 0.111603876
H   H77       1.0  0.15160  0.53750  0.15280  1.0000 0.0997924227
H   H78       1.0  0.84840  0.03750  0.34720  1.0000 0.0997924227
H   H79       1.0  0.84840  0.46250  0.84720  1.0000 0.0997924227
H   H80       1.0  0.15160  0.96250  0.65280  1.0000 0.0997924227
H   H81       1.0  0.02090  0.58840  0.12470  1.0000 0.111603876
H   H82       1.0  0.97910  0.08840  0.37530  1.0000 0.111603876
H   H83       1.0  0.97910  0.41160  0.87530  1.0000 0.111603876
H   H84       1.0  0.02090  0.91160  0.62470  1.0000 0.111603876
H   H85       1.0  0.83060  0.65920  0.04470  1.0000 0.111603876
H   H86       1.0  0.16940  0.15920  0.45530  1.0000 0.111603876
H   H87       1.0  0.16940  0.34080  0.95530  1.0000 0.111603876
H   H88       1.0  0.83060  0.84080  0.54470  1.0000 0.111603876
H   H89       1.0  0.83500  0.62650  0.08440  1.0000 0.111603876
H   H90       1.0  0.16500  0.12650  0.41560  1.0000 0.111603876
H   H91       1.0  0.16500  0.37350  0.91560  1.0000 0.111603876
H   H92       1.0  0.83500  0.87350  0.58440  1.0000 0.111603876
H   H93       1.0  0.20130  0.72970  0.18250  1.0000 0.1196850709
H   H94       1.0  0.79870  0.22970  0.31750  1.0000 0.1196850709
H   H95       1.0  0.79870  0.27030  0.81750  1.0000 0.1196850709
H   H96       1.0  0.20130  0.77030  0.68250  1.0000 0.1196850709
H   H97       1.0  0.01490  0.68720  0.00910  1.0000 0.111603876
H   H98       1.0  0.98510  0.18720  0.49090  1.0000 0.111603876
H   H99       1.0  0.98510  0.31280  0.99090  1.0000 0.111603876
H   H100      1.0  0.01490  0.81280  0.50910  1.0000 0.111603876
H   H101      1.0  0.15060  0.73350  0.98290  1.0000 0.111603876
H   H102      1.0  0.84940  0.23350  0.51710  1.0000 0.111603876
H   H103      1.0  0.84940  0.26650  0.01710  1.0000 0.111603876
H   H104      1.0  0.15060  0.76650  0.48290  1.0000 0.111603876
H   H105      1.0  0.28380  0.77170  0.03500  1.0000 0.1196850709
H   H106      1.0  0.71620  0.27170  0.46500  1.0000 0.1196850709
H   H107      1.0  0.71620  0.22830  0.96500  1.0000 0.1196850709
H   H108      1.0  0.28380  0.72830  0.53500  1.0000 0.1196850709
H   H109      1.0  0.28270  0.76230  0.11570  1.0000 0.1196850709
H   H110      1.0  0.71730  0.26230  0.38430  1.0000 0.1196850709
H   H111      1.0  0.71730  0.23770  0.88430  1.0000 0.1196850709
H   H112      1.0  0.28270  0.73770  0.61570  1.0000 0.1196850709
H   H113      1.0  0.99330  0.54470  0.70520  1.0000 0.1196850709
H   H114      1.0  0.00670  0.04470  0.79480  1.0000 0.1196850709
H   H115      1.0  0.00670  0.45530  0.29480  1.0000 0.1196850709
H   H116      1.0  0.99330  0.95530  0.20520  1.0000 0.1196850709
H   H117      1.0  0.17430  0.45730  0.77600  1.0000 0.1298671211
H   H118      1.0  0.82570  0.95730  0.72400  1.0000 0.1298671211
H   H119      1.0  0.82570  0.54270  0.22400  1.0000 0.1298671211
H   H120      1.0  0.17430  0.04270  0.27600  1.0000 0.1298671211
H   H121      1.0  0.08070  0.50120  0.83090  1.0000 0.136640897
H   H122      1.0  0.91930  0.00120  0.66910  1.0000 0.136640897
H   H123      1.0  0.91930  0.49880  0.16910  1.0000 0.136640897
H   H124      1.0  0.08070  0.99880  0.33090  1.0000 0.136640897
H   H125      1.0  0.10980  0.45070  0.68050  1.0000 0.1196850709
H   H126      1.0  0.89020  0.95070  0.81950  1.0000 0.1196850709
H   H127      1.0  0.89020  0.54930  0.31950  1.0000 0.1196850709
H   H128      1.0  0.10980  0.04930  0.18050  1.0000 0.1196850709
H   H129      1.0  0.08110  0.49250  0.65530  1.0000 0.1196850709
H   H130      1.0  0.91890  0.99250  0.84470  1.0000 0.1196850709
H   H131      1.0  0.91890  0.50750  0.34470  1.0000 0.1196850709
H   H132      1.0  0.08110  0.00750  0.15530  1.0000 0.1196850709
H   H133      1.0  0.27090  0.54210  0.66950  1.0000 0.1196850709
H   H134      1.0  0.72910  0.04210  0.83050  1.0000 0.1196850709
H   H135      1.0  0.72910  0.45790  0.33050  1.0000 0.1196850709
H   H136      1.0  0.27090  0.95790  0.16950  1.0000 0.1196850709
H   H137      1.0  0.48740  0.55220  0.67030  1.0000 0.1196850709
H   H138      1.0  0.51260  0.05220  0.82970  1.0000 0.1196850709
H   H139      1.0  0.51260  0.44780  0.32970  1.0000 0.1196850709
H   H140      1.0  0.48740  0.94780  0.17030  1.0000 0.1196850709
H   H141      1.0  0.53100  0.43570  0.68200  1.0000 0.1196850709
H   H142      1.0  0.46900  0.93570  0.81800  1.0000 0.1196850709
H   H143      1.0  0.46900  0.56430  0.31800  1.0000 0.1196850709
H   H144      1.0  0.53100  0.06430  0.18200  1.0000 0.1196850709
H   H145      1.0  0.32010  0.42800  0.68910  1.0000 0.1196850709
H   H146      1.0  0.67990  0.92800  0.81090  1.0000 0.1196850709
H   H147      1.0  0.67990  0.57200  0.31090  1.0000 0.1196850709
H   H148      1.0  0.32010  0.07200  0.18910  1.0000 0.1196850709
H   H149      1.0  0.70560  0.52510  0.68780  1.0000 0.1196850709
H   H150      1.0  0.29440  0.02510  0.81220  1.0000 0.1196850709
H   H151      1.0  0.29440  0.47490  0.31220  1.0000 0.1196850709
H   H152      1.0  0.70560  0.97490  0.18780  1.0000 0.1196850709
H   H153      1.0  0.68990  0.50430  0.63800  1.0000 0.1298671211
H   H154      1.0  0.31010  0.00430  0.86200  1.0000 0.1298671211
H   H155      1.0  0.31010  0.49570  0.36200  1.0000 0.1298671211
H   H156      1.0  0.68990  0.99570  0.13800  1.0000 0.1298671211
H   H157      1.0  0.77180  0.43050  0.63360  1.0000 0.1196850709
H   H158      1.0  0.22820  0.93050  0.86640  1.0000 0.1196850709
H   H159      1.0  0.22820  0.56950  0.36640  1.0000 0.1196850709
H   H160      1.0  0.77180  0.06950  0.13360  1.0000 0.1196850709
H   H161      1.0  0.88200  0.41070  0.76740  1.0000 0.1298671211
H   H162      1.0  0.11800  0.91070  0.73260  1.0000 0.1298671211
H   H163      1.0  0.11800  0.58930  0.23260  1.0000 0.1298671211
H   H164      1.0  0.88200  0.08930  0.26740  1.0000 0.1298671211
H   H165      1.0  0.77800  0.47570  0.76240  1.0000 0.1298671211
H   H166      1.0  0.22200  0.97570  0.73760  1.0000 0.1298671211
H   H167      1.0  0.22200  0.52430  0.23760  1.0000 0.1298671211
H   H168      1.0  0.77800  0.02430  0.26240  1.0000 0.1298671211
H   H169      1.0  0.88930  0.73080  0.28730  1.0000 0.1196850709
H   H170      1.0  0.11070  0.23080  0.21270  1.0000 0.1196850709
H   H171      1.0  0.11070  0.26920  0.71270  1.0000 0.1196850709
H   H172      1.0  0.88930  0.76920  0.78730  1.0000 0.111603876
H   H173      1.0  0.01960  0.71440  0.42060  1.0000 0.1298671211
H   H174      1.0  0.98040  0.21440  0.07940  1.0000 0.1298671211
H   H175      1.0  0.98040  0.28560  0.57940  1.0000 0.1298671211
H   H176      1.0  0.01960  0.78560  0.92060  1.0000 0.1298671211
H   H177      1.0  0.89070  0.77620  0.41500  1.0000 0.1298671211
H   H178      1.0  0.10930  0.27620  0.08500  1.0000 0.1298671211
H   H179      1.0  0.10930  0.22380  0.58500  1.0000 0.1298671211
H   H180      1.0  0.89070  0.72380  0.91500  1.0000 0.1298671211
H   H181      1.0  0.81130  0.82350  0.33450  1.0000 0.1298671211
H   H182      1.0  0.18870  0.32350  0.16550  1.0000 0.1298671211
H   H183      1.0  0.18870  0.17650  0.66550  1.0000 0.1298671211
H   H184      1.0  0.81130  0.67650  0.83450  1.0000 0.1298671211
H   H185      1.0  0.78030  0.79800  0.28800  1.0000 0.1196850709
H   H186      1.0  0.21970  0.29800  0.21200  1.0000 0.1196850709
H   H187      1.0  0.21970  0.20200  0.71200  1.0000 0.1196850709
H   H188      1.0  0.78030  0.70200  0.78800  1.0000 0.1196850709
H   H189      1.0  0.63560  0.84210  0.37150  1.0000 0.136640897
H   H190      1.0  0.36440  0.34210  0.12850  1.0000 0.136640897
H   H191      1.0  0.36440  0.15790  0.62850  1.0000 0.136640897
H   H192      1.0  0.63560  0.65790  0.87150  1.0000 0.136640897
H   H193      1.0  0.43020  0.83620  0.38670  1.0000 0.1196850709
H   H194      1.0  0.56980  0.33620  0.11330  1.0000 0.1196850709
H   H195      1.0  0.56980  0.16380  0.61330  1.0000 0.1196850709
H   H196      1.0  0.43020  0.66380  0.88670  1.0000 0.1196850709
H   H197      1.0  0.38770  0.73790  0.30690  1.0000 0.1459714975
H   H198      1.0  0.61230  0.23790  0.19310  1.0000 0.1459714975
H   H199      1.0  0.61230  0.26210  0.69310  1.0000 0.1459714975
H   H200      1.0  0.38770  0.76210  0.80690  1.0000 0.1459714975
H   H201      1.0  0.59710  0.74400  0.29170  1.0000 0.1196850709
H   H202      1.0  0.40290  0.24400  0.20830  1.0000 0.1196850709
H   H203      1.0  0.40290  0.25600  0.70830  1.0000 0.1196850709
H   H204      1.0  0.59710  0.75600  0.79170  1.0000 0.1196850709
H   H205      1.0  0.24330  0.78900  0.39100  1.0000 0.1196850709
H   H206      1.0  0.75670  0.28900  0.10900  1.0000 0.1196850709
H   H207      1.0  0.75670  0.21100  0.60900  1.0000 0.1196850709
H   H208      1.0  0.24330  0.71100  0.89100  1.0000 0.1196850709
H   H209      1.0  0.22290  0.75380  0.35390  1.0000 0.1298671211
H   H210      1.0  0.77710  0.25380  0.14610  1.0000 0.1298671211
H   H211      1.0  0.77710  0.24620  0.64610  1.0000 0.1298671211
H   H212      1.0  0.22290  0.74620  0.85390  1.0000 0.1298671211
H   H213      1.0  0.13370  0.85590  0.36710  1.0000 0.1196850709
H   H214      1.0  0.86630  0.35590  0.13290  1.0000 0.1196850709
H   H215      1.0  0.86630  0.14410  0.63290  1.0000 0.1196850709
H   H216      1.0  0.13370  0.64410  0.86710  1.0000 0.1196850709
H   H217      1.0  0.98850  0.83210  0.23850  1.0000 0.1196850709
H   H218      1.0  0.01150  0.33210  0.26150  1.0000 0.1196850709
H   H219      1.0  0.01150  0.16790  0.76150  1.0000 0.1196850709
H   H220      1.0  0.98850  0.66790  0.73850  1.0000 0.1196850709
H   H221      1.0  0.12560  0.77600  0.26480  1.0000 0.136640897
H   H222      1.0  0.87440  0.27600  0.23520  1.0000 0.136640897
H   H223      1.0  0.87440  0.22400  0.73520  1.0000 0.136640897
H   H224      1.0  0.12560  0.72400  0.76480  1.0000 0.136640897
C   C1        1.0  0.07040  0.68100  0.23080  1.0000 0.5494141237
C   C2        1.0  0.92960  0.18100  0.26920  1.0000 0.5494141237
C   C3        1.0  0.92960  0.31900  0.76920  1.0000 0.5494141237
C   C4        1.0  0.07040  0.81900  0.73080  1.0000 0.5494141237
C   C5        1.0  0.06640  0.68750  0.17890  1.0000 -0.1602899611
C   C6        1.0  0.93360  0.18750  0.32110  1.0000 -0.1602899611
C   C7        1.0  0.93360  0.31250  0.82110  1.0000 -0.1602899611
C   C8        1.0  0.06640  0.81250  0.67890  1.0000 -0.1602899611
C   C9        1.0  0.97970  0.66440  0.14570  1.0000 0.231177343
C   C10       1.0  0.02030  0.16440  0.35430  1.0000 0.231177343
C   C11       1.0  0.02030  0.33560  0.85430  1.0000 0.231177343
C   C12       1.0  0.97970  0.83560  0.64570  1.0000 0.231177343
C   C13       1.0  0.98180  0.66790  0.09700  1.0000 -0.0384329202
C   C14       1.0  0.01820  0.16790  0.40300  1.0000 -0.0384329202
C   C15       1.0  0.01820  0.33210  0.90300  1.0000 -0.0384329202
C   C16       1.0  0.98180  0.83210  0.59700  1.0000 -0.0384329202
C   C17       1.0  0.74220  0.61600  0.72370  1.0000 0.5494141237
C   C18       1.0  0.25780  0.11600  0.77630  1.0000 0.5494141237
C   C19       1.0  0.25780  0.38400  0.27630  1.0000 0.5494141237
C   C20       1.0  0.74220  0.88400  0.22370  1.0000 0.5494141237
C   C21       1.0  0.26930  0.66102  0.40560  1.0000 0.555238029
C   C22       1.0  0.73070  0.16102  0.09440  1.0000 0.555238029
C   C23       1.0  0.73070  0.33898  0.59440  1.0000 0.555238029
C   C24       1.0  0.26930  0.83898  0.90560  1.0000 0.555238029
C   C25       1.0  0.51590  0.63753  0.70270  1.0000 -0.1422212089
C   C26       1.0  0.48410  0.13753  0.79730  1.0000 -0.1422212089
C   C27       1.0  0.48410  0.36247  0.29730  1.0000 -0.1422212089
C   C28       1.0  0.51590  0.86247  0.20270  1.0000 -0.1422212089
C   C29       1.0  0.62640  0.62493  0.68770  1.0000 -0.1602899611
C   C30       1.0  0.37360  0.12493  0.81230  1.0000 -0.1602899611
C   C31       1.0  0.37360  0.37507  0.31230  1.0000 -0.1602899611
C   C32       1.0  0.62640  0.87507  0.18770  1.0000 -0.1602899611
C   C33       1.0  0.62920  0.61711  0.63890  1.0000 0.2071407642
C   C34       1.0  0.37080  0.11711  0.86110  1.0000 0.2071407642
C   C35       1.0  0.37080  0.38289  0.36110  1.0000 0.2071407642
C   C36       1.0  0.62920  0.88289  0.13890  1.0000 0.2071407642
C   C37       1.0  0.51970  0.62106  0.60630  1.0000 -0.0483422745
C   C38       1.0  0.48030  0.12106  0.89370  1.0000 -0.0483422745
C   C39       1.0  0.48030  0.37894  0.39370  1.0000 -0.0483422745
C   C40       1.0  0.51970  0.87894  0.10630  1.0000 -0.0483422745
C   C41       1.0  0.40530  0.63410  0.62290  1.0000 0.039947819
C   C42       1.0  0.59470  0.13410  0.87710  1.0000 0.039947819
C   C43       1.0  0.59470  0.36590  0.37710  1.0000 0.039947819
C   C44       1.0  0.40530  0.86590  0.12290  1.0000 0.039947819
C   C45       1.0  0.40440  0.64220  0.67200  1.0000 0.0499378093
C   C46       1.0  0.59560  0.14220  0.82800  1.0000 0.0499378093
C   C47       1.0  0.59560  0.35780  0.32800  1.0000 0.0499378093
C   C48       1.0  0.40440  0.85780  0.17200  1.0000 0.0499378093
C   C49       1.0  0.28620  0.65440  0.68850  1.0000 -0.1602899611
C   C50       1.0  0.71380  0.15440  0.81150  1.0000 -0.1602899611
C   C51       1.0  0.71380  0.34560  0.31150  1.0000 -0.1602899611
C   C52       1.0  0.28620  0.84560  0.18850  1.0000 -0.1602899611
C   C53       1.0  0.17170  0.65420  0.65800  1.0000 -0.1184848407
C   C54       1.0  0.82830  0.15420  0.84200  1.0000 -0.1184848407
C   C55       1.0  0.82830  0.34580  0.34200  1.0000 -0.1184848407
C   C56       1.0  0.17170  0.84580  0.15800  1.0000 -0.1184848407
C   C57       1.0  0.17530  0.64670  0.61070  1.0000 -0.1013962314
C   C58       1.0  0.82470  0.14670  0.88930  1.0000 -0.1013962314
C   C59       1.0  0.82470  0.35330  0.38930  1.0000 -0.1013962314
C   C60       1.0  0.17530  0.85330  0.11070  1.0000 -0.1013962314
C   C61       1.0  0.28590  0.63600  0.59380  1.0000 -0.1422212089
C   C62       1.0  0.71410  0.13600  0.90620  1.0000 -0.1422212089
C   C63       1.0  0.71410  0.36400  0.40620  1.0000 -0.1422212089
C   C64       1.0  0.28590  0.86400  0.09380  1.0000 -0.1422212089
C   C65       1.0  0.52650  0.60882  0.55560  1.0000 -0.2485936973
C   C66       1.0  0.47350  0.10882  0.94440  1.0000 -0.2485936973
C   C67       1.0  0.47350  0.39118  0.44440  1.0000 -0.2485936973
C   C68       1.0  0.52650  0.89118  0.05560  1.0000 -0.2485936973
C   C69       1.0  0.45470  0.70000  0.44490  1.0000 -0.1602899611
C   C70       1.0  0.54530  0.20000  0.05510  1.0000 -0.1602899611
C   C71       1.0  0.54530  0.30000  0.55510  1.0000 -0.1602899611
C   C72       1.0  0.45470  0.80000  0.94490  1.0000 -0.1602899611
C   C73       1.0  0.37570  0.66667  0.44530  1.0000 -0.1602899611
C   C74       1.0  0.62430  0.16667  0.05470  1.0000 -0.1602899611
C   C75       1.0  0.62430  0.33333  0.55470  1.0000 -0.1602899611
C   C76       1.0  0.37570  0.83333  0.94530  1.0000 -0.1602899611
C   C77       1.0  0.39790  0.63864  0.48298  1.0000 0.2022640724
C   C78       1.0  0.60210  0.13864  0.01702  1.0000 0.2022640724
C   C79       1.0  0.60210  0.36136  0.51702  1.0000 0.2022640724
C   C80       1.0  0.39790  0.86136  0.98298  1.0000 0.2022640724
C   C81       1.0  0.50060  0.64261  0.51770  1.0000 -0.0384329202
C   C82       1.0  0.49940  0.14261  0.98230  1.0000 -0.0384329202
C   C83       1.0  0.49940  0.35739  0.48230  1.0000 -0.0384329202
C   C84       1.0  0.50060  0.85739  0.01770  1.0000 -0.0384329202
C   C85       1.0  0.58570  0.67480  0.51590  1.0000 0.0499378093
C   C86       1.0  0.41430  0.17480  0.98410  1.0000 0.0499378093
C   C87       1.0  0.41430  0.32520  0.48410  1.0000 0.0499378093
C   C88       1.0  0.58570  0.82520  0.01590  1.0000 0.0499378093
C   C89       1.0  0.55990  0.70580  0.47850  1.0000 0.0706573688
C   C90       1.0  0.44010  0.20580  0.02150  1.0000 0.0706573688
C   C91       1.0  0.44010  0.29420  0.52150  1.0000 0.0706573688
C   C92       1.0  0.55990  0.79420  0.97850  1.0000 0.0706573688
C   C93       1.0  0.64860  0.73760  0.47610  1.0000 -0.1517017793
C   C94       1.0  0.35140  0.23760  0.02390  1.0000 -0.1517017793
C   C95       1.0  0.35140  0.26240  0.52390  1.0000 -0.1517017793
C   C96       1.0  0.64860  0.76240  0.97610  1.0000 -0.1517017793
C   C97       1.0  0.75610  0.74150  0.50750  1.0000 -0.1013962314
C   C98       1.0  0.24390  0.24150  0.99250  1.0000 -0.1013962314
C   C99       1.0  0.24390  0.25850  0.49250  1.0000 -0.1013962314
C   C100      1.0  0.75610  0.75850  0.00750  1.0000 -0.1013962314
C   C101      1.0  0.78170  0.71320  0.54250  1.0000 -0.1062315125
C   C102      1.0  0.21830  0.21320  0.95750  1.0000 -0.1062315125
C   C103      1.0  0.21830  0.28680  0.45750  1.0000 -0.1062315125
C   C104      1.0  0.78170  0.78680  0.04250  1.0000 -0.1062315125
C   C105      1.0  0.70140  0.68040  0.54770  1.0000 -0.1422212089
C   C106      1.0  0.29860  0.18040  0.95230  1.0000 -0.1422212089
C   C107      1.0  0.29860  0.31960  0.45230  1.0000 -0.1422212089
C   C108      1.0  0.70140  0.81960  0.04770  1.0000 -0.1422212089
C   C109      1.0  0.93730  0.58840  0.90200  1.0000 0.5494141237
C   C110      1.0  0.06270  0.08840  0.59800  1.0000 0.5494141237
C   C111      1.0  0.06270  0.41160  0.09800  1.0000 0.5494141237
C   C112      1.0  0.93730  0.91160  0.40200  1.0000 0.5494141237
C   C113      1.0  0.05170  0.55614  0.97360  1.0000 -0.1306859665
C   C114      1.0  0.94830  0.05614  0.52640  1.0000 -0.1306859665
C   C115      1.0  0.94830  0.44386  0.02640  1.0000 -0.1306859665
C   C116      1.0  0.05170  0.94386  0.47360  1.0000 -0.1306859665
C   C117      1.0  0.97180  0.58608  0.95420  1.0000 -0.1698378473
C   C118      1.0  0.02820  0.08608  0.54580  1.0000 -0.1698378473
C   C119      1.0  0.02820  0.41392  0.04580  1.0000 -0.1698378473
C   C120      1.0  0.97180  0.91392  0.45420  1.0000 -0.1698378473
C   C121      1.0  0.91760  0.61500  0.98530  1.0000 0.2220324334
C   C122      1.0  0.08240  0.11500  0.51470  1.0000 0.2220324334
C   C123      1.0  0.08240  0.38500  0.01470  1.0000 0.2220324334
C   C124      1.0  0.91760  0.88500  0.48530  1.0000 0.2220324334
C   C125      1.0  0.94520  0.61240  0.03450  1.0000 -0.0384329202
C   C126      1.0  0.05480  0.11240  0.46550  1.0000 -0.0384329202
C   C127      1.0  0.05480  0.38760  0.96550  1.0000 -0.0384329202
C   C128      1.0  0.94520  0.88760  0.53450  1.0000 -0.0384329202
C   C129      1.0  0.02770  0.57990  0.05380  1.0000 0.0499378093
C   C130      1.0  0.97230  0.07990  0.44620  1.0000 0.0499378093
C   C131      1.0  0.97230  0.42010  0.94620  1.0000 0.0499378093
C   C132      1.0  0.02770  0.92010  0.55380  1.0000 0.0499378093
C   C133      1.0  0.08290  0.55146  0.02270  1.0000 0.0590213057
C   C134      1.0  0.91710  0.05146  0.47730  1.0000 0.0590213057
C   C135      1.0  0.91710  0.44854  0.97730  1.0000 0.0590213057
C   C136      1.0  0.08290  0.94854  0.52270  1.0000 0.0590213057
C   C137      1.0  0.16560  0.51870  0.04150  1.0000 -0.1517017793
C   C138      1.0  0.83440  0.01870  0.45850  1.0000 -0.1517017793
C   C139      1.0  0.83440  0.48130  0.95850  1.0000 -0.1517017793
C   C140      1.0  0.16560  0.98130  0.54150  1.0000 -0.1517017793
C   C141      1.0  0.19000  0.51490  0.09090  1.0000 -0.0937984753
C   C142      1.0  0.81000  0.01490  0.40910  1.0000 -0.0937984753
C   C143      1.0  0.81000  0.48510  0.90910  1.0000 -0.0937984753
C   C144      1.0  0.19000  0.98510  0.59090  1.0000 -0.0937984753
C   C145      1.0  0.13470  0.54110  0.12030  1.0000 -0.1184848407
C   C146      1.0  0.86530  0.04110  0.37970  1.0000 -0.1184848407
C   C147      1.0  0.86530  0.45890  0.87970  1.0000 -0.1184848407
C   C148      1.0  0.13470  0.95890  0.62030  1.0000 -0.1184848407
C   C149      1.0  0.05680  0.57190  0.10340  1.0000 -0.1517017793
C   C150      1.0  0.94320  0.07190  0.39660  1.0000 -0.1517017793
C   C151      1.0  0.94320  0.42810  0.89660  1.0000 -0.1517017793
C   C152      1.0  0.05680  0.92810  0.60340  1.0000 -0.1517017793
C   C153      1.0  0.88750  0.64150  0.06480  1.0000 -0.2485936973
C   C154      1.0  0.11250  0.14150  0.43520  1.0000 -0.2562165949
C   C155      1.0  0.11250  0.35850  0.93520  1.0000 -0.2562165949
C   C156      1.0  0.88750  0.85850  0.56480  1.0000 -0.2562165949
C   C157      1.0  0.14570  0.71430  0.16160  1.0000 -0.1422212089
C   C158      1.0  0.85430  0.21430  0.33840  1.0000 -0.1422212089
C   C159      1.0  0.85430  0.28570  0.83840  1.0000 -0.1422212089
C   C160      1.0  0.14570  0.78570  0.66160  1.0000 -0.1422212089
C   C161      1.0  0.14630  0.71950  0.11170  1.0000 0.0590213057
C   C162      1.0  0.85370  0.21950  0.38830  1.0000 0.0590213057
C   C163      1.0  0.85370  0.28050  0.88830  1.0000 0.0590213057
C   C164      1.0  0.14630  0.78050  0.61170  1.0000 0.0590213057
C   C165      1.0  0.06460  0.69570  0.08070  1.0000 0.039947819
C   C166      1.0  0.93540  0.19570  0.41930  1.0000 0.039947819
C   C167      1.0  0.93540  0.30430  0.91930  1.0000 0.039947819
C   C168      1.0  0.06460  0.80430  0.58070  1.0000 0.039947819
C   C169      1.0  0.06870  0.70230  0.03090  1.0000 -0.1517017793
C   C170      1.0  0.93130  0.20230  0.46910  1.0000 -0.1517017793
C   C171      1.0  0.93130  0.29770  0.96910  1.0000 -0.1517017793
C   C172      1.0  0.06870  0.79770  0.53090  1.0000 -0.1517017793
C   C173      1.0  0.14980  0.73010  0.01520  1.0000 -0.1013962314
C   C174      1.0  0.85020  0.23010  0.48480  1.0000 -0.1013962314
C   C175      1.0  0.85020  0.26990  0.98480  1.0000 -0.1013962314
C   C176      1.0  0.14980  0.76990  0.51520  1.0000 -0.1013962314
C   C177      1.0  0.22910  0.75270  0.04590  1.0000 -0.1013962314
C   C178      1.0  0.77090  0.25270  0.45410  1.0000 -0.1013962314
C   C179      1.0  0.77090  0.24730  0.95410  1.0000 -0.1013962314
C   C180      1.0  0.22910  0.74730  0.54590  1.0000 -0.1013962314
C   C181      1.0  0.22750  0.74710  0.09450  1.0000 -0.1422212089
C   C182      1.0  0.77250  0.24710  0.40550  1.0000 -0.1422212089
C   C183      1.0  0.77250  0.25290  0.90550  1.0000 -0.1422212089
C   C184      1.0  0.22750  0.75290  0.59450  1.0000 -0.1422212089
C   C185      1.0  0.02720  0.52830  0.73020  1.0000 0.0888852983
C   C186      1.0  0.97280  0.02830  0.76980  1.0000 0.0888852983
C   C187      1.0  0.97280  0.47170  0.26980  1.0000 0.0888852983
C   C188      1.0  0.02720  0.97170  0.23020  1.0000 0.0888852983
C   C189      1.0  0.12590  0.48050  0.76820  1.0000 -0.1062315125
C   C190      1.0  0.87410  0.98050  0.73180  1.0000 -0.1062315125
C   C191      1.0  0.87410  0.51950  0.23180  1.0000 -0.1062315125
C   C192      1.0  0.12590  0.01950  0.26820  1.0000 -0.1062315125
C   C193      1.0  0.07420  0.50494  0.79840  1.0000 -0.0384329202
C   C194      1.0  0.92580  0.00494  0.70160  1.0000 -0.0384329202
C   C195      1.0  0.92580  0.49506  0.20160  1.0000 -0.0384329202
C   C196      1.0  0.07420  0.99506  0.29840  1.0000 -0.0384329202
C   C197      1.0  0.13100  0.47930  0.68200  1.0000 -0.1927973759
C   C198      1.0  0.86900  0.97930  0.81800  1.0000 -0.1927973759
C   C199      1.0  0.86900  0.52070  0.31800  1.0000 -0.1927973759
C   C200      1.0  0.13100  0.02070  0.18200  1.0000 -0.1927973759
C   C201      1.0  0.26990  0.48420  0.67780  1.0000 0.0888852983
C   C202      1.0  0.73010  0.98420  0.82220  1.0000 0.0841948148
C   C203      1.0  0.73010  0.51580  0.32220  1.0000 0.0841948148
C   C204      1.0  0.26990  0.01580  0.17780  1.0000 0.0841948148
C   C205      1.0  0.32440  0.51950  0.67280  1.0000 -0.1698378473
C   C206      1.0  0.67560  0.01950  0.82720  1.0000 -0.1698378473
C   C207      1.0  0.67560  0.48050  0.32720  1.0000 -0.1698378473
C   C208      1.0  0.32440  0.98050  0.17280  1.0000 -0.1698378473
C   C209      1.0  0.45580  0.52600  0.67200  1.0000 -0.1602899611
C   C210      1.0  0.54420  0.02600  0.82800  1.0000 -0.1602899611
C   C211      1.0  0.54420  0.47400  0.32800  1.0000 -0.1602899611
C   C212      1.0  0.45580  0.97400  0.17200  1.0000 -0.1602899611
C   C213      1.0  0.53500  0.49474  0.67350  1.0000 0.0997924227
C   C214      1.0  0.46500  0.99474  0.82650  1.0000 0.0997924227
C   C215      1.0  0.46500  0.50526  0.32650  1.0000 0.0997924227
C   C216      1.0  0.53500  0.00526  0.17350  1.0000 0.0997924227
C   C217      1.0  0.47910  0.45860  0.67970  1.0000 -0.1698378473
C   C218      1.0  0.52090  0.95860  0.82030  1.0000 -0.1698378473
C   C219      1.0  0.52090  0.54140  0.32030  1.0000 -0.1761029775
C   C220      1.0  0.47910  0.04140  0.17970  1.0000 -0.1761029775
C   C221      1.0  0.35070  0.45370  0.68300  1.0000 -0.1698378473
C   C222      1.0  0.64930  0.95370  0.81700  1.0000 -0.1698378473
C   C223      1.0  0.64930  0.54630  0.31700  1.0000 -0.1602899611
C   C224      1.0  0.35070  0.04630  0.18300  1.0000 -0.1602899611
C   C225      1.0  0.67670  0.50068  0.67080  1.0000 -0.1698378473
C   C226      1.0  0.32330  0.00068  0.82920  1.0000 -0.1698378473
C   C227      1.0  0.32330  0.49932  0.32920  1.0000 -0.1761029775
C   C228      1.0  0.67670  0.99932  0.17080  1.0000 -0.1698378473
C   C229      1.0  0.78760  0.43317  0.66620  1.0000 0.0888852983
C   C230      1.0  0.21240  0.93317  0.83380  1.0000 0.0841948148
C   C231      1.0  0.21240  0.56683  0.33380  1.0000 0.0888852983
C   C232      1.0  0.78760  0.06683  0.16620  1.0000 0.0888852983
C   C233      1.0  0.84600  0.42309  0.73950  1.0000 -0.0658414988
C   C234      1.0  0.15400  0.92309  0.76050  1.0000 -0.0658414988
C   C235      1.0  0.15400  0.57691  0.26050  1.0000 -0.0658414988
C   C236      1.0  0.84600  0.07691  0.23950  1.0000 -0.0658414988
C   C237      1.0  0.79030  0.45883  0.73730  1.0000 -0.1062315125
C   C238      1.0  0.20970  0.95883  0.76270  1.0000 -0.1062315125
C   C239      1.0  0.20970  0.54117  0.26270  1.0000 -0.1062315125
C   C240      1.0  0.79030  0.04117  0.23730  1.0000 -0.1062315125
C   C241      1.0  0.90480  0.73412  0.31990  1.0000 0.0888852983
C   C242      1.0  0.09520  0.23412  0.18010  1.0000 0.0888852983
C   C243      1.0  0.09520  0.26588  0.68010  1.0000 0.0888852983
C   C244      1.0  0.90480  0.76588  0.81990  1.0000 0.0888852983
C   C245      1.0  0.97650  0.72522  0.39290  1.0000 -0.0384329202
C   C246      1.0  0.02350  0.22522  0.10710  1.0000 -0.0384329202
C   C247      1.0  0.02350  0.27478  0.60710  1.0000 -0.0384329202
C   C248      1.0  0.97650  0.77478  0.89290  1.0000 -0.0384329202
C   C249      1.0  0.90550  0.75944  0.39010  1.0000 -0.1184848407
C   C250      1.0  0.09450  0.25944  0.10990  1.0000 -0.1184848407
C   C251      1.0  0.09450  0.24056  0.60990  1.0000 -0.1184848407
C   C252      1.0  0.90550  0.74056  0.89010  1.0000 -0.1184848407
C   C253      1.0  0.77750  0.79779  0.32190  1.0000 -0.1698378473
C   C254      1.0  0.22250  0.29779  0.17810  1.0000 -0.1698378473
C   C255      1.0  0.22250  0.20221  0.67810  1.0000 -0.1698378473
C   C256      1.0  0.77750  0.70221  0.82190  1.0000 -0.1698378473
C   C257      1.0  0.64060  0.79352  0.33120  1.0000 0.0888852983
C   C258      1.0  0.35940  0.29352  0.16880  1.0000 0.0888852983
C   C259      1.0  0.35940  0.20648  0.66880  1.0000 0.0888852983
C   C260      1.0  0.64060  0.70648  0.83120  1.0000 0.0888852983
C   C261      1.0  0.58640  0.82050  0.35850  1.0000 -0.1306859665
C   C262      1.0  0.41360  0.32050  0.14150  1.0000 -0.1306859665
C   C263      1.0  0.41360  0.17950  0.64150  1.0000 -0.1306859665
C   C264      1.0  0.58640  0.67950  0.85850  1.0000 -0.1306859665
C   C265      1.0  0.46290  0.81710  0.36750  1.0000 -0.1517017793
C   C266      1.0  0.53710  0.31710  0.13250  1.0000 -0.1517017793
C   C267      1.0  0.53710  0.18290  0.63250  1.0000 -0.1517017793
C   C268      1.0  0.46290  0.68290  0.86750  1.0000 -0.1517017793
C   C269      1.0  0.38470  0.78606  0.34900  1.0000 0.0888852983
C   C270      1.0  0.61530  0.28606  0.15100  1.0000 0.0888852983
C   C271      1.0  0.61530  0.21394  0.65100  1.0000 0.0888852983
C   C272      1.0  0.38470  0.71394  0.84900  1.0000 0.0888852983
C   C273      1.0  0.43780  0.75910  0.32050  1.0000 -0.1422212089
C   C274      1.0  0.56220  0.25910  0.17950  1.0000 -0.1422212089
C   C275      1.0  0.56220  0.24090  0.67950  1.0000 -0.1422212089
C   C276      1.0  0.43780  0.74090  0.82050  1.0000 -0.1422212089
C   C277      1.0  0.56390  0.76260  0.31140  1.0000 -0.1422212089
C   C278      1.0  0.43610  0.26260  0.18860  1.0000 -0.1422212089
C   C279      1.0  0.43610  0.23740  0.68860  1.0000 -0.1422212089
C   C280      1.0  0.56390  0.73740  0.81140  1.0000 -0.1422212089
C   C281      1.0  0.24900  0.78190  0.35830  1.0000 -0.1761029775
C   C282      1.0  0.75100  0.28190  0.14170  1.0000 -0.1761029775
C   C283      1.0  0.75100  0.21810  0.64170  1.0000 -0.1761029775
C   C284      1.0  0.24900  0.71810  0.85830  1.0000 -0.1761029775
C   C285      1.0  0.11480  0.84307  0.33810  1.0000 0.0888852983
C   C286      1.0  0.88520  0.34307  0.16190  1.0000 0.0888852983
C   C287      1.0  0.88520  0.15693  0.66190  1.0000 0.0888852983
C   C288      1.0  0.11480  0.65693  0.83810  1.0000 0.0888852983
C   C289      1.0  0.03630  0.82996  0.26810  1.0000 -0.0384329202
C   C290      1.0  0.96370  0.32996  0.23190  1.0000 -0.0384329202
C   C291      1.0  0.96370  0.17004  0.73190  1.0000 -0.0384329202
C   C292      1.0  0.03630  0.67004  0.76810  1.0000 -0.0384329202
C   C293      1.0  0.11050  0.79887  0.28220  1.0000 -0.1184848407
C   C294      1.0  0.88950  0.29887  0.21780  1.0000 -0.1184848407
C   C295      1.0  0.88950  0.20113  0.71780  1.0000 -0.1184848407
C   C296      1.0  0.11050  0.70113  0.78220  1.0000 -0.1184848407
N   N1        1.0  0.01170  0.53561  0.77451  1.0000 -0.2895626668
N   N2        1.0  0.98830  0.03561  0.72549  1.0000 -0.2895626668
N   N3        1.0  0.98830  0.46439  0.22549  1.0000 -0.2895626668
N   N4        1.0  0.01170  0.96439  0.27451  1.0000 -0.2895626668
N   N5        1.0  0.09490  0.49578  0.72480  1.0000 0.039947819
N   N6        1.0  0.90510  0.99578  0.77520  1.0000 0.039947819
N   N7        1.0  0.90510  0.50422  0.27520  1.0000 0.039947819
N   N8        1.0  0.09490  0.00422  0.22480  1.0000 0.039947819
N   N9        1.0  0.75460  0.46604  0.69065  1.0000 0.039947819
N   N10       1.0  0.24540  0.96604  0.80935  1.0000 0.039947819
N   N11       1.0  0.24540  0.53396  0.30935  1.0000 0.039947819
N   N12       1.0  0.75460  0.03396  0.19065  1.0000 0.039947819
N   N13       1.0  0.84410  0.40611  0.69434  1.0000 -0.2982946429
N   N14       1.0  0.15590  0.90611  0.80566  1.0000 -0.2982946429
N   N15       1.0  0.15590  0.59389  0.30566  1.0000 -0.2982946429
N   N16       1.0  0.84410  0.09389  0.19434  1.0000 -0.2982946429
N   N17       1.0  0.97520  0.70896  0.34884  1.0000 -0.2982946429
N   N18       1.0  0.02480  0.20896  0.15116  1.0000 -0.2982946429
N   N19       1.0  0.02480  0.29104  0.65116  1.0000 -0.2982946429
N   N20       1.0  0.97520  0.79104  0.84884  1.0000 -0.2982946429
N   N21       1.0  0.85920  0.76469  0.34326  1.0000 0.0499378093
N   N22       1.0  0.14080  0.26469  0.15674  1.0000 0.0499378093
N   N23       1.0  0.14080  0.23531  0.65674  1.0000 0.0499378093
N   N24       1.0  0.85920  0.73531  0.84326  1.0000 0.0499378093
N   N25       1.0  0.16080  0.80722  0.32779  1.0000 0.0499378093
N   N26       1.0  0.83920  0.30722  0.17221  1.0000 0.0499378093
N   N27       1.0  0.83920  0.19278  0.67221  1.0000 0.0499378093
N   N28       1.0  0.16080  0.69278  0.82779  1.0000 0.0499378093
N   N29       1.0  0.03860  0.85813  0.30199  1.0000 -0.2829730306
N   N30       1.0  0.96140  0.35813  0.19801  1.0000 -0.2829730306
N   N31       1.0  0.96140  0.14187  0.69801  1.0000 -0.2829730306
N   N32       1.0  0.03860  0.64187  0.80199  1.0000 -0.2829730306
O   O1        1.0  0.15800  0.69653  0.25831  1.0000 -0.5269247685
O   O2        1.0  0.84200  0.19653  0.24169  1.0000 -0.5269247685
O   O3        1.0  0.84200  0.30347  0.74169  1.0000 -0.5269247685
O   O4        1.0  0.15800  0.80347  0.75831  1.0000 -0.5269247685
O   O5        1.0  0.98430  0.65917  0.24488  1.0000 -0.557272518
O   O6        1.0  0.01570  0.15917  0.25512  1.0000 -0.557272518
O   O7        1.0  0.01570  0.34083  0.75512  1.0000 -0.557272518
O   O8        1.0  0.98430  0.84083  0.74488  1.0000 -0.557272518
O   O9        1.0  0.73770  0.62392  0.76563  1.0000 -0.5103183085
O   O10       1.0  0.26230  0.12392  0.73437  1.0000 -0.5103183085
O   O11       1.0  0.26230  0.37608  0.23437  1.0000 -0.5103183085
O   O12       1.0  0.73770  0.87608  0.26563  1.0000 -0.5103183085
O   O13       1.0  0.83860  0.59992  0.70841  1.0000 -0.5928363297
O   O14       1.0  0.16140  0.09992  0.79159  1.0000 -0.5928363297
O   O15       1.0  0.16140  0.40008  0.29159  1.0000 -0.5928363297
O   O16       1.0  0.83860  0.90008  0.20841  1.0000 -0.5928363297
O   O17       1.0  0.18350  0.63446  0.40963  1.0000 -0.5782749299
O   O18       1.0  0.81650  0.13446  0.09037  1.0000 -0.5782749299
O   O19       1.0  0.81650  0.36554  0.59037  1.0000 -0.5782749299
O   O20       1.0  0.18350  0.86554  0.90963  1.0000 -0.5782749299
O   O21       1.0  0.26670  0.68112  0.36897  1.0000 -0.5103183085
O   O22       1.0  0.73330  0.18112  0.13103  1.0000 -0.5103183085
O   O23       1.0  0.73330  0.31888  0.63103  1.0000 -0.5103183085
O   O24       1.0  0.26670  0.81888  0.86897  1.0000 -0.5103183085
O   O25       1.0  0.73680  0.60287  0.62403  1.0000 -0.4179218765
O   O26       1.0  0.26320  0.10287  0.87597  1.0000 -0.4179218765
O   O27       1.0  0.26320  0.39713  0.37597  1.0000 -0.4179218765
O   O28       1.0  0.73680  0.89713  0.12403  1.0000 -0.4179218765
O   O29       1.0  0.31770  0.60646  0.48352  1.0000 -0.4179218765
O   O30       1.0  0.68230  0.10646  0.01648  1.0000 -0.4179218765
O   O31       1.0  0.68230  0.39354  0.51648  1.0000 -0.4179218765
O   O32       1.0  0.31770  0.89354  0.98352  1.0000 -0.4179218765
O   O33       1.0  0.99500  0.56621  0.87751  1.0000 -0.5103183085
O   O34       1.0  0.00500  0.06621  0.62249  1.0000 -0.5103183085
O   O35       1.0  0.00500  0.43379  0.12249  1.0000 -0.5103183085
O   O36       1.0  0.99500  0.93379  0.37751  1.0000 -0.5103183085
O   O37       1.0  0.85380  0.61370  0.88525  1.0000 -0.5683743153
O   O38       1.0  0.14620  0.11370  0.61475  1.0000 -0.5683743153
O   O39       1.0  0.14620  0.38630  0.11475  1.0000 -0.5683743153
O   O40       1.0  0.85380  0.88630  0.38525  1.0000 -0.5683743153
O   O41       1.0  0.83820  0.64427  0.96600  1.0000 -0.4278557915
O   O42       1.0  0.16180  0.14427  0.53400  1.0000 -0.4278557915
O   O43       1.0  0.16180  0.35573  0.03400  1.0000 -0.4278557915
O   O44       1.0  0.83820  0.85573  0.46600  1.0000 -0.4278557915
O   O45       1.0  0.89720  0.63895  0.16228  1.0000 -0.4010836724
O   O46       1.0  0.10280  0.13895  0.33772  1.0000 -0.4010836724
O   O47       1.0  0.10280  0.36105  0.83772  1.0000 -0.4010836724
O   O48       1.0  0.89720  0.86105  0.66228  1.0000 -0.4010836724
