# DDEC6 charges by PACMAN v1.1 (https://github.com/mtap-research/PACMAN-charge/)
data_2014[Cu][nts]3[ASR]2
_chemical_formula_sum              "Cu24 H216 C432 N72 O96"
_cell_length_a       37.7153
_cell_length_b       37.7153
_cell_length_c       37.7153
_cell_angle_alpha    121.621
_cell_angle_beta     121.621
_cell_angle_gamma    87.2149

_symmetry_space_group_name_H-M    "P 1"
_symmetry_Int_Tables_number       1

loop_
  _symmetry_equiv_pos_as_xyz
  'x, y, z'

loop_
  _atom_site_type_symbol
  _atom_site_label
  _atom_site_symmetry_multiplicity
  _atom_site_fract_x
  _atom_site_fract_y
  _atom_site_fract_z
  _atom_site_occupancy
  _atom_site_charge
Cu  Cu1       1.0  0.46482  0.54166  0.79854  1.0000 0.8697743909
Cu  Cu2       1.0  0.54166  0.74312  0.07684  1.0000 0.8697743909
Cu  Cu3       1.0  0.74312  0.66628  0.20146  1.0000 0.8697743909
Cu  Cu4       1.0  0.66628  0.46482  0.92316  1.0000 0.8697743909
Cu  Cu5       1.0  0.53518  0.45834  0.20146  1.0000 0.8697743909
Cu  Cu6       1.0  0.45834  0.25688  0.92316  1.0000 0.8697743909
Cu  Cu7       1.0  0.25688  0.33372  0.79854  1.0000 0.8697743909
Cu  Cu8       1.0  0.33372  0.53518  0.07684  1.0000 0.8697743909
Cu  Cu9       1.0  0.45204  0.55443  0.73025  1.0000 0.8697743909
Cu  Cu10      1.0  0.55443  0.82418  0.10239  1.0000 0.8697743909
Cu  Cu11      1.0  0.82418  0.72179  0.26975  1.0000 0.8697743909
Cu  Cu12      1.0  0.72179  0.45204  0.89761  1.0000 0.8697743909
Cu  Cu13      1.0  0.54796  0.44557  0.26975  1.0000 0.8697743909
Cu  Cu14      1.0  0.44557  0.17582  0.89761  1.0000 0.8697743909
Cu  Cu15      1.0  0.17582  0.27821  0.73025  1.0000 0.8697743909
Cu  Cu16      1.0  0.27821  0.54796  0.10239  1.0000 0.8697743909
Cu  Cu17      1.0  0.77039  0.40057  0.17096  1.0000 0.8697743909
Cu  Cu18      1.0  0.40057  0.22961  0.63018  1.0000 0.8697743909
Cu  Cu19      1.0  0.22961  0.59943  0.82904  1.0000 0.8753829307
Cu  Cu20      1.0  0.59943  0.77039  0.36982  1.0000 0.8697743909
Cu  Cu21      1.0  0.70238  0.42499  0.12737  1.0000 0.8590145117
Cu  Cu22      1.0  0.42499  0.29762  0.72261  1.0000 0.8590145117
Cu  Cu23      1.0  0.29762  0.57501  0.87263  1.0000 0.8590145117
Cu  Cu24      1.0  0.57501  0.70238  0.27739  1.0000 0.8590145117
H   H1        1.0  0.34840  0.56410  0.79250  1.0000 0.1413361198
H   H2        1.0  0.56410  0.77160  0.21570  1.0000 0.1413361198
H   H3        1.0  0.77160  0.55590  0.20750  1.0000 0.1413361198
H   H4        1.0  0.55590  0.34840  0.78430  1.0000 0.1413361198
H   H5        1.0  0.65160  0.43590  0.20750  1.0000 0.1413361198
H   H6        1.0  0.43590  0.22840  0.78430  1.0000 0.1413361198
H   H7        1.0  0.22840  0.44410  0.79250  1.0000 0.1413361198
H   H8        1.0  0.44410  0.65160  0.21570  1.0000 0.1413361198
H   H9        1.0  0.22850  0.56200  0.69750  1.0000 0.1413361198
H   H10       1.0  0.56200  0.86450  0.33350  1.0000 0.1413361198
H   H11       1.0  0.86450  0.53100  0.30250  1.0000 0.1413361198
H   H12       1.0  0.53100  0.22850  0.66650  1.0000 0.1413361198
H   H13       1.0  0.77150  0.43800  0.30250  1.0000 0.1413361198
H   H14       1.0  0.43800  0.13550  0.66650  1.0000 0.1413361198
H   H15       1.0  0.13550  0.46900  0.69750  1.0000 0.1413361198
H   H16       1.0  0.46900  0.77150  0.33350  1.0000 0.1413361198
H   H17       1.0  0.31670  0.54770  0.66320  1.0000 0.1306906349
H   H18       1.0  0.54770  0.88450  0.23100  1.0000 0.1306906349
H   H19       1.0  0.88450  0.65350  0.33680  1.0000 0.1306906349
H   H20       1.0  0.65350  0.31670  0.76900  1.0000 0.1306906349
H   H21       1.0  0.68330  0.45230  0.33680  1.0000 0.1306906349
H   H22       1.0  0.45230  0.11550  0.76900  1.0000 0.1306906349
H   H23       1.0  0.11550  0.34650  0.66320  1.0000 0.1306906349
H   H24       1.0  0.34650  0.68330  0.23100  1.0000 0.1306906349
H   H25       1.0  0.26410  0.52380  0.58790  1.0000 0.1195942372
H   H26       1.0  0.52380  0.93590  0.25970  1.0000 0.1195942372
H   H27       1.0  0.93590  0.67620  0.41210  1.0000 0.1195942372
H   H28       1.0  0.67620  0.26410  0.74030  1.0000 0.1195942372
H   H29       1.0  0.73590  0.47620  0.41210  1.0000 0.1195942372
H   H30       1.0  0.47620  0.06410  0.74030  1.0000 0.1195942372
H   H31       1.0  0.06410  0.32380  0.58790  1.0000 0.1195942372
H   H32       1.0  0.32380  0.73590  0.25970  1.0000 0.1195942372
H   H33       1.0  0.13160  0.51670  0.46810  1.0000 0.1195942372
H   H34       1.0  0.51670  0.04860  0.38510  1.0000 0.1195942372
H   H35       1.0  0.04860  0.66350  0.53190  1.0000 0.1195942372
H   H36       1.0  0.66350  0.13160  0.61490  1.0000 0.1195942372
H   H37       1.0  0.86840  0.48330  0.53190  1.0000 0.1195942372
H   H38       1.0  0.48330  0.95140  0.61490  1.0000 0.1195942372
H   H39       1.0  0.95140  0.33650  0.46810  1.0000 0.1195942372
H   H40       1.0  0.33650  0.86840  0.38510  1.0000 0.1195942372
H   H41       1.0  0.11340  0.49460  0.39000  1.0000 0.1195942372
H   H42       1.0  0.49460  0.10460  0.38120  1.0000 0.1195942372
H   H43       1.0  0.10460  0.72340  0.61000  1.0000 0.1195942372
H   H44       1.0  0.72340  0.11340  0.61880  1.0000 0.1195942372
H   H45       1.0  0.88660  0.50540  0.61000  1.0000 0.1195942372
H   H46       1.0  0.50540  0.89540  0.61880  1.0000 0.1195942372
H   H47       1.0  0.89540  0.27660  0.39000  1.0000 0.1195942372
H   H48       1.0  0.27660  0.88660  0.38120  1.0000 0.1195942372
H   H49       1.0  0.22230  0.45990  0.42280  1.0000 0.1195942372
H   H50       1.0  0.45990  0.03710  0.23760  1.0000 0.1195942372
H   H51       1.0  0.03710  0.79950  0.57720  1.0000 0.1195942372
H   H52       1.0  0.79950  0.22230  0.76240  1.0000 0.1195942372
H   H53       1.0  0.77770  0.54010  0.57720  1.0000 0.1195942372
H   H54       1.0  0.54010  0.96290  0.76240  1.0000 0.1195942372
H   H55       1.0  0.96290  0.20050  0.42280  1.0000 0.1195942372
H   H56       1.0  0.20050  0.77770  0.23760  1.0000 0.1195942372
H   H57       1.0  0.23870  0.48710  0.50300  1.0000 0.1195942372
H   H58       1.0  0.48710  0.98410  0.24840  1.0000 0.1195942372
H   H59       1.0  0.98410  0.73570  0.49700  1.0000 0.1195942372
H   H60       1.0  0.73570  0.23870  0.75160  1.0000 0.1195942372
H   H61       1.0  0.76130  0.51290  0.49700  1.0000 0.1195942372
H   H62       1.0  0.51290  0.01590  0.75160  1.0000 0.1195942372
H   H63       1.0  0.01590  0.26430  0.50300  1.0000 0.1195942372
H   H64       1.0  0.26430  0.76130  0.24840  1.0000 0.1195942372
H   H65       1.0  0.09020  0.43990  0.30510  1.0000 0.1087926661
H   H66       1.0  0.43990  0.13480  0.34970  1.0000 0.1087926661
H   H67       1.0  0.13480  0.78510  0.69490  1.0000 0.1087926661
H   H68       1.0  0.78510  0.09020  0.65030  1.0000 0.1087926661
H   H69       1.0  0.90980  0.56010  0.69490  1.0000 0.1087926661
H   H70       1.0  0.56010  0.86520  0.65030  1.0000 0.1087926661
H   H71       1.0  0.86520  0.21490  0.30510  1.0000 0.1087926661
H   H72       1.0  0.21490  0.90980  0.34970  1.0000 0.1087926661
H   H73       1.0  0.13370  0.43620  0.22690  1.0000 0.1087926661
H   H74       1.0  0.43620  0.20930  0.30250  1.0000 0.1087926661
H   H75       1.0  0.20930  0.90680  0.77310  1.0000 0.1087926661
H   H76       1.0  0.90680  0.13370  0.69750  1.0000 0.1087926661
H   H77       1.0  0.86630  0.56380  0.77310  1.0000 0.1087926661
H   H78       1.0  0.56380  0.79070  0.69750  1.0000 0.1087926661
H   H79       1.0  0.79070  0.09320  0.22690  1.0000 0.1087926661
H   H80       1.0  0.09320  0.86630  0.30250  1.0000 0.1087926661
H   H81       1.0  0.21980  0.47620  0.37280  1.0000 0.1087926661
H   H82       1.0  0.47620  0.10340  0.25640  1.0000 0.1087926661
H   H83       1.0  0.10340  0.84700  0.62720  1.0000 0.1087926661
H   H84       1.0  0.84700  0.21980  0.74360  1.0000 0.1087926661
H   H85       1.0  0.78020  0.52380  0.62720  1.0000 0.1087926661
H   H86       1.0  0.52380  0.89660  0.74360  1.0000 0.1087926661
H   H87       1.0  0.89660  0.15300  0.37280  1.0000 0.1087926661
H   H88       1.0  0.15300  0.78020  0.25640  1.0000 0.1087926661
H   H89       1.0  0.03110  0.42460  0.24670  1.0000 0.1195942372
H   H90       1.0  0.42460  0.17790  0.39350  1.0000 0.1195942372
H   H91       1.0  0.17790  0.78440  0.75330  1.0000 0.1195942372
H   H92       1.0  0.78440  0.03110  0.60650  1.0000 0.1195942372
H   H93       1.0  0.96890  0.57540  0.75330  1.0000 0.1195942372
H   H94       1.0  0.57540  0.82210  0.60650  1.0000 0.1195942372
H   H95       1.0  0.82210  0.21560  0.24670  1.0000 0.1195942372
H   H96       1.0  0.21560  0.96890  0.39350  1.0000 0.1195942372
H   H97       1.0  0.96270  0.42120  0.18490  1.0000 0.1195942372
H   H98       1.0  0.42120  0.23630  0.45850  1.0000 0.1195942372
H   H99       1.0  0.23630  0.77780  0.81510  1.0000 0.1195942372
H   H100      1.0  0.77780  0.96270  0.54150  1.0000 0.1195942372
H   H101      1.0  0.03730  0.57880  0.81510  1.0000 0.1195942372
H   H102      1.0  0.57880  0.76370  0.54150  1.0000 0.1195942372
H   H103      1.0  0.76370  0.22220  0.18490  1.0000 0.1195942372
H   H104      1.0  0.22220  0.03730  0.45850  1.0000 0.1195942372
H   H105      1.0  0.99600  0.37250  0.09230  1.0000 0.1306906349
H   H106      1.0  0.37250  0.28020  0.37650  1.0000 0.1195942372
H   H107      1.0  0.28020  0.90370  0.90770  1.0000 0.1306906349
H   H108      1.0  0.90370  0.99600  0.62350  1.0000 0.1306906349
H   H109      1.0  0.00400  0.62750  0.90770  1.0000 0.1306906349
H   H110      1.0  0.62750  0.71980  0.62350  1.0000 0.1306906349
H   H111      1.0  0.71980  0.09630  0.09230  1.0000 0.1306906349
H   H112      1.0  0.09630  0.00400  0.37650  1.0000 0.1306906349
H   H113      1.0  0.06630  0.39970  0.15900  1.0000 0.1306906349
H   H114      1.0  0.39970  0.24070  0.33340  1.0000 0.1306906349
H   H115      1.0  0.24070  0.90730  0.84100  1.0000 0.1306906349
H   H116      1.0  0.90730  0.06630  0.66667  1.0000 0.1306906349
H   H117      1.0  0.93370  0.60030  0.84100  1.0000 0.1306906349
H   H118      1.0  0.60030  0.75930  0.66667  1.0000 0.1306906349
H   H119      1.0  0.75930  0.09270  0.15900  1.0000 0.1306906349
H   H120      1.0  0.09270  0.93370  0.33340  1.0000 0.1306906349
H   H121      1.0  0.89380  0.40550  0.12390  1.0000 0.1195942372
H   H122      1.0  0.40550  0.28160  0.51170  1.0000 0.1195942372
H   H123      1.0  0.28160  0.76990  0.87610  1.0000 0.1195942372
H   H124      1.0  0.76990  0.89380  0.48830  1.0000 0.1195942372
H   H125      1.0  0.10620  0.59450  0.87610  1.0000 0.1195942372
H   H126      1.0  0.59450  0.71840  0.48830  1.0000 0.1195942372
H   H127      1.0  0.71840  0.23010  0.12390  1.0000 0.1195942372
H   H128      1.0  0.23010  0.10620  0.51170  1.0000 0.1195942372
H   H129      1.0  0.81890  0.38460  0.08710  1.0000 0.1413361198
H   H130      1.0  0.38460  0.29750  0.56570  1.0000 0.1413361198
H   H131      1.0  0.29750  0.73180  0.91290  1.0000 0.1413361198
H   H132      1.0  0.73180  0.81890  0.43430  1.0000 0.1413361198
H   H133      1.0  0.18110  0.61540  0.91290  1.0000 0.1413361198
H   H134      1.0  0.61540  0.70250  0.43430  1.0000 0.1413361198
H   H135      1.0  0.70250  0.26820  0.08710  1.0000 0.1413361198
H   H136      1.0  0.26820  0.18110  0.56570  1.0000 0.1413361198
H   H137      1.0  0.71370  0.41590  0.01480  1.0000 0.1413361198
H   H138      1.0  0.41590  0.40110  0.70220  1.0000 0.1413361198
H   H139      1.0  0.40110  0.69890  0.98520  1.0000 0.1413361198
H   H140      1.0  0.69890  0.71370  0.29780  1.0000 0.1413361198
H   H141      1.0  0.28630  0.58410  0.98520  1.0000 0.1413361198
H   H142      1.0  0.58410  0.59890  0.29780  1.0000 0.1413361198
H   H143      1.0  0.59890  0.30110  0.01480  1.0000 0.1413361198
H   H144      1.0  0.30110  0.28630  0.70220  1.0000 0.1413361198
H   H145      1.0  0.80440  0.40550  0.98610  1.0000 0.1413361198
H   H146      1.0  0.40550  0.41940  0.60110  1.0000 0.1413361198
H   H147      1.0  0.41940  0.81830  0.01390  1.0000 0.1413361198
H   H148      1.0  0.81830  0.80440  0.39890  1.0000 0.1413361198
H   H149      1.0  0.19560  0.59450  0.01390  1.0000 0.1413361198
H   H150      1.0  0.59450  0.58060  0.39890  1.0000 0.1413361198
H   H151      1.0  0.58060  0.18170  0.98610  1.0000 0.1413361198
H   H152      1.0  0.18170  0.19560  0.60110  1.0000 0.1413361198
H   H153      1.0  0.18690  0.46840  0.23990  1.0000 0.1195942372
H   H154      1.0  0.46840  0.22850  0.28150  1.0000 0.1195942372
H   H155      1.0  0.22850  0.94700  0.76010  1.0000 0.1195942372
H   H156      1.0  0.94700  0.18690  0.71850  1.0000 0.1195942372
H   H157      1.0  0.81310  0.53160  0.76010  1.0000 0.1195942372
H   H158      1.0  0.53160  0.77150  0.71850  1.0000 0.1195942372
H   H159      1.0  0.77150  0.05300  0.23990  1.0000 0.1195942372
H   H160      1.0  0.05300  0.81310  0.28150  1.0000 0.1195942372
H   H161      1.0  0.23990  0.46580  0.22510  1.0000 0.1195942372
H   H162      1.0  0.46580  0.24070  0.22590  1.0000 0.1195942372
H   H163      1.0  0.24070  0.01480  0.77490  1.0000 0.1195942372
H   H164      1.0  0.01480  0.23990  0.77410  1.0000 0.1195942372
H   H165      1.0  0.76010  0.53420  0.77490  1.0000 0.1195942372
H   H166      1.0  0.53420  0.75930  0.77410  1.0000 0.1195942372
H   H167      1.0  0.75930  0.98520  0.22510  1.0000 0.1195942372
H   H168      1.0  0.98520  0.76010  0.22590  1.0000 0.1195942372
H   H169      1.0  0.31340  0.43680  0.32480  1.0000 0.1195942372
H   H170      1.0  0.43680  0.11200  0.12340  1.0000 0.1195942372
H   H171      1.0  0.11200  0.98860  0.67520  1.0000 0.1195942372
H   H172      1.0  0.98860  0.31340  0.87660  1.0000 0.1195942372
H   H173      1.0  0.68660  0.56320  0.67520  1.0000 0.1195942372
H   H174      1.0  0.56320  0.88800  0.87660  1.0000 0.1195942372
H   H175      1.0  0.88800  0.01140  0.32480  1.0000 0.1195942372
H   H176      1.0  0.01140  0.68660  0.12340  1.0000 0.1195942372
H   H177      1.0  0.25760  0.43570  0.33730  1.0000 0.1195942372
H   H178      1.0  0.43570  0.09840  0.17810  1.0000 0.1195942372
H   H179      1.0  0.09840  0.92030  0.66270  1.0000 0.1195942372
H   H180      1.0  0.92030  0.25760  0.82190  1.0000 0.1195942372
H   H181      1.0  0.74240  0.56430  0.66270  1.0000 0.1195942372
H   H182      1.0  0.56430  0.90160  0.82190  1.0000 0.1195942372
H   H183      1.0  0.90160  0.07970  0.33730  1.0000 0.1195942372
H   H184      1.0  0.07970  0.74240  0.17810  1.0000 0.1195942372
H   H185      1.0  0.29570  0.47310  0.21840  1.0000 0.1195942372
H   H186      1.0  0.47310  0.25470  0.17740  1.0000 0.1195942372
H   H187      1.0  0.25470  0.07730  0.78160  1.0000 0.1195942372
H   H188      1.0  0.07730  0.29570  0.82260  1.0000 0.1195942372
H   H189      1.0  0.70430  0.52690  0.78160  1.0000 0.1195942372
H   H190      1.0  0.52690  0.74530  0.82260  1.0000 0.1195942372
H   H191      1.0  0.74530  0.92270  0.21840  1.0000 0.1195942372
H   H192      1.0  0.92270  0.70430  0.17740  1.0000 0.1195942372
H   H193      1.0  0.32320  0.49310  0.18870  1.0000 0.1413361198
H   H194      1.0  0.49310  0.30440  0.16990  1.0000 0.1413361198
H   H195      1.0  0.30440  0.13450  0.81130  1.0000 0.1413361198
H   H196      1.0  0.13450  0.32320  0.83010  1.0000 0.1413361198
H   H197      1.0  0.67680  0.50690  0.81130  1.0000 0.1413361198
H   H198      1.0  0.50690  0.69560  0.83010  1.0000 0.1413361198
H   H199      1.0  0.69560  0.86550  0.18870  1.0000 0.1413361198
H   H200      1.0  0.86550  0.67680  0.16990  1.0000 0.1413361198
H   H201      1.0  0.41320  0.48450  0.15850  1.0000 0.1413361198
H   H202      1.0  0.48450  0.32600  0.07130  1.0000 0.1413361198
H   H203      1.0  0.32600  0.25470  0.84150  1.0000 0.1413361198
H   H204      1.0  0.25470  0.41320  0.92870  1.0000 0.1413361198
H   H205      1.0  0.58680  0.51550  0.84150  1.0000 0.1413361198
H   H206      1.0  0.51550  0.67400  0.92870  1.0000 0.1413361198
H   H207      1.0  0.67400  0.74530  0.15850  1.0000 0.1413361198
H   H208      1.0  0.74530  0.58680  0.07130  1.0000 0.1413361198
H   H209      1.0  0.42600  0.45300  0.25200  1.0000 0.1413361198
H   H210      1.0  0.45300  0.20100  0.02700  1.0000 0.1413361198
H   H211      1.0  0.20100  0.17400  0.74800  1.0000 0.1413361198
H   H212      1.0  0.17400  0.42600  0.97300  1.0000 0.1413361198
H   H213      1.0  0.57400  0.54700  0.74800  1.0000 0.1413361198
H   H214      1.0  0.54700  0.79900  0.97300  1.0000 0.1413361198
H   H215      1.0  0.79900  0.82600  0.25200  1.0000 0.1413361198
H   H216      1.0  0.82600  0.57400  0.02700  1.0000 0.1413361198
C   C1        1.0  0.38461  0.55428  0.74411  1.0000 0.5865415531
C   C2        1.0  0.55428  0.81017  0.16967  1.0000 0.5865415531
C   C3        1.0  0.81017  0.64050  0.25589  1.0000 0.5865415531
C   C4        1.0  0.64050  0.38461  0.83033  1.0000 0.5865415531
C   C5        1.0  0.61539  0.44572  0.25589  1.0000 0.5865415531
C   C6        1.0  0.44572  0.18983  0.83033  1.0000 0.5865415531
C   C7        1.0  0.18983  0.35950  0.74411  1.0000 0.5865415531
C   C8        1.0  0.35950  0.61539  0.16967  1.0000 0.5865415531
C   C9        1.0  0.33986  0.55682  0.73022  1.0000 -0.0014950093
C   C10       1.0  0.55682  0.82660  0.21696  1.0000 -0.0014950093
C   C11       1.0  0.82660  0.60964  0.26978  1.0000 -0.0014950093
C   C12       1.0  0.60964  0.33986  0.78304  1.0000 -0.0014950093
C   C13       1.0  0.66014  0.44318  0.26978  1.0000 -0.0014950093
C   C14       1.0  0.44318  0.17340  0.78304  1.0000 -0.0014950093
C   C15       1.0  0.17340  0.39036  0.73022  1.0000 -0.0014950093
C   C16       1.0  0.39036  0.66014  0.21696  1.0000 -0.0014950093
C   C17       1.0  0.32808  0.56267  0.76249  1.0000 -0.1103890623
C   C18       1.0  0.56267  0.80018  0.23459  1.0000 -0.1103890623
C   C19       1.0  0.80018  0.56559  0.23751  1.0000 -0.1103890623
C   C20       1.0  0.56559  0.32808  0.76541  1.0000 -0.1103890623
C   C21       1.0  0.67192  0.43733  0.23751  1.0000 -0.1103890623
C   C22       1.0  0.43733  0.19982  0.76541  1.0000 -0.1103890623
C   C23       1.0  0.19982  0.43441  0.76249  1.0000 -0.1103890623
C   C24       1.0  0.43441  0.67192  0.23459  1.0000 -0.1103890623
C   C25       1.0  0.28783  0.56629  0.75104  1.0000 -0.011525157
C   C26       1.0  0.56629  0.81525  0.27846  1.0000 -0.011525157
C   C27       1.0  0.81525  0.53679  0.24896  1.0000 -0.011525157
C   C28       1.0  0.53679  0.28783  0.72154  1.0000 -0.011525157
C   C29       1.0  0.71217  0.43371  0.24896  1.0000 -0.011525157
C   C30       1.0  0.43371  0.18475  0.72154  1.0000 -0.011525157
C   C31       1.0  0.18475  0.46321  0.75104  1.0000 -0.011525157
C   C32       1.0  0.46321  0.71217  0.27846  1.0000 -0.011525157
C   C33       1.0  0.25695  0.56076  0.70617  1.0000 -0.1470096249
C   C34       1.0  0.56076  0.85459  0.30381  1.0000 -0.1470096249
C   C35       1.0  0.85459  0.55078  0.29383  1.0000 -0.1470096249
C   C36       1.0  0.55078  0.25695  0.69619  1.0000 -0.1470096249
C   C37       1.0  0.74305  0.43924  0.29383  1.0000 -0.1470096249
C   C38       1.0  0.43924  0.14541  0.69619  1.0000 -0.1470096249
C   C39       1.0  0.14541  0.44922  0.70617  1.0000 -0.1470096249
C   C40       1.0  0.44922  0.74305  0.30381  1.0000 -0.1470096249
C   C41       1.0  0.26799  0.55315  0.67256  1.0000 0.1306906349
C   C42       1.0  0.55315  0.88059  0.28516  1.0000 0.1306906349
C   C43       1.0  0.88059  0.59543  0.32744  1.0000 0.1306906349
C   C44       1.0  0.59543  0.26799  0.71484  1.0000 0.1306906349
C   C45       1.0  0.73201  0.44685  0.32744  1.0000 0.1306906349
C   C46       1.0  0.44685  0.11941  0.71484  1.0000 0.1306906349
C   C47       1.0  0.11941  0.40457  0.67256  1.0000 0.1306906349
C   C48       1.0  0.40457  0.73201  0.28516  1.0000 0.1306906349
C   C49       1.0  0.30941  0.55196  0.68543  1.0000 -0.168850834
C   C50       1.0  0.55196  0.86653  0.24255  1.0000 -0.168850834
C   C51       1.0  0.86653  0.62398  0.31457  1.0000 -0.168850834
C   C52       1.0  0.62398  0.30941  0.75745  1.0000 -0.168850834
C   C53       1.0  0.69059  0.44804  0.31457  1.0000 -0.168850834
C   C54       1.0  0.44804  0.13347  0.75745  1.0000 -0.168850834
C   C55       1.0  0.13347  0.37602  0.68543  1.0000 -0.168850834
C   C56       1.0  0.37602  0.69059  0.24255  1.0000 -0.168850834
C   C57       1.0  0.27877  0.57522  0.78855  1.0000 0.5814328957
C   C58       1.0  0.57522  0.78667  0.29645  1.0000 0.5814328957
C   C59       1.0  0.78667  0.49022  0.21145  1.0000 0.5814328957
C   C60       1.0  0.49022  0.27877  0.70355  1.0000 0.5814328957
C   C61       1.0  0.72123  0.42478  0.21145  1.0000 0.5814328957
C   C62       1.0  0.42478  0.21333  0.70355  1.0000 0.5814328957
C   C63       1.0  0.21333  0.50978  0.78855  1.0000 0.5814328957
C   C64       1.0  0.50978  0.72123  0.29645  1.0000 0.5814328957
C   C65       1.0  0.23990  0.53184  0.58806  1.0000 -0.1103890623
C   C66       1.0  0.53184  0.94378  0.29194  1.0000 -0.1103890623
C   C67       1.0  0.94378  0.65184  0.41194  1.0000 -0.1103890623
C   C68       1.0  0.65184  0.23990  0.70806  1.0000 -0.1103890623
C   C69       1.0  0.76010  0.46816  0.41194  1.0000 -0.1103890623
C   C70       1.0  0.46816  0.05622  0.70806  1.0000 -0.1103890623
C   C71       1.0  0.05622  0.34816  0.58806  1.0000 -0.1103890623
C   C72       1.0  0.34816  0.76010  0.29194  1.0000 -0.1103890623
C   C73       1.0  0.20352  0.52920  0.54932  1.0000 0.0987669925
C   C74       1.0  0.52920  0.97988  0.32568  1.0000 0.0987669925
C   C75       1.0  0.97988  0.65420  0.45068  1.0000 0.0987669925
C   C76       1.0  0.65420  0.20352  0.67432  1.0000 0.0987669925
C   C77       1.0  0.79648  0.47080  0.45068  1.0000 0.0987669925
C   C78       1.0  0.47080  0.02012  0.67432  1.0000 0.0987669925
C   C79       1.0  0.02012  0.34580  0.54932  1.0000 0.0987669925
C   C80       1.0  0.34580  0.79648  0.32568  1.0000 0.0987669925
C   C81       1.0  0.18739  0.50758  0.49401  1.0000 0.0475522704
C   C82       1.0  0.50758  0.01357  0.32019  1.0000 0.0475522704
C   C83       1.0  0.01357  0.69338  0.50599  1.0000 0.0475522704
C   C84       1.0  0.69338  0.18739  0.67981  1.0000 0.0475522704
C   C85       1.0  0.81261  0.49242  0.50599  1.0000 0.0475522704
C   C86       1.0  0.49242  0.98643  0.67981  1.0000 0.0475522704
C   C87       1.0  0.98643  0.30662  0.49401  1.0000 0.0475522704
C   C88       1.0  0.30662  0.81261  0.32019  1.0000 0.0475522704
C   C89       1.0  0.15187  0.50710  0.46017  1.0000 -0.1222154643
C   C90       1.0  0.50710  0.04693  0.35523  1.0000 -0.1222154643
C   C91       1.0  0.04693  0.69170  0.53983  1.0000 -0.1222154643
C   C92       1.0  0.69170  0.15187  0.64477  1.0000 -0.1222154643
C   C93       1.0  0.84813  0.49290  0.53983  1.0000 -0.1222154643
C   C94       1.0  0.49290  0.95307  0.64477  1.0000 -0.1222154643
C   C95       1.0  0.95307  0.30830  0.46017  1.0000 -0.1222154643
C   C96       1.0  0.30830  0.84813  0.35523  1.0000 -0.1222154643
C   C97       1.0  0.14063  0.49370  0.41293  1.0000 -0.1470096249
C   C98       1.0  0.49370  0.08077  0.35307  1.0000 -0.1470096249
C   C99       1.0  0.08077  0.72770  0.58707  1.0000 -0.1470096249
C   C100      1.0  0.72770  0.14063  0.64693  1.0000 -0.1470096249
C   C101      1.0  0.85937  0.50630  0.58707  1.0000 -0.1470096249
C   C102      1.0  0.50630  0.91923  0.64693  1.0000 -0.1470096249
C   C103      1.0  0.91923  0.27230  0.41293  1.0000 -0.1470096249
C   C104      1.0  0.27230  0.85937  0.35307  1.0000 -0.1470096249
C   C105      1.0  0.16717  0.47927  0.39850  1.0000 0.0704787392
C   C106      1.0  0.47927  0.08077  0.31210  1.0000 0.0704787392
C   C107      1.0  0.08077  0.76867  0.60150  1.0000 0.0704787392
C   C108      1.0  0.76867  0.16717  0.68790  1.0000 0.0704787392
C   C109      1.0  0.83283  0.52073  0.60150  1.0000 0.0704787392
C   C110      1.0  0.52073  0.91923  0.68790  1.0000 0.0704787392
C   C111      1.0  0.91923  0.23133  0.39850  1.0000 0.0704787392
C   C112      1.0  0.23133  0.83283  0.31210  1.0000 0.0704787392
C   C113      1.0  0.20404  0.47388  0.43216  1.0000 -0.1470096249
C   C114      1.0  0.47388  0.04172  0.26984  1.0000 -0.1470096249
C   C115      1.0  0.04172  0.77188  0.56784  1.0000 -0.1470096249
C   C116      1.0  0.77188  0.20404  0.73016  1.0000 -0.1470096249
C   C117      1.0  0.79596  0.52612  0.56784  1.0000 -0.1470096249
C   C118      1.0  0.52612  0.95828  0.73016  1.0000 -0.1470096249
C   C119      1.0  0.95828  0.22812  0.43216  1.0000 -0.1470096249
C   C120      1.0  0.22812  0.79596  0.26984  1.0000 -0.1470096249
C   C121      1.0  0.21305  0.48945  0.47960  1.0000 -0.1765148285
C   C122      1.0  0.48945  0.00985  0.27640  1.0000 -0.1765148285
C   C123      1.0  0.00985  0.73345  0.52040  1.0000 -0.1765148285
C   C124      1.0  0.73345  0.21305  0.72360  1.0000 -0.168850834
C   C125      1.0  0.78695  0.51055  0.52040  1.0000 -0.168850834
C   C126      1.0  0.51055  0.99015  0.72360  1.0000 -0.168850834
C   C127      1.0  0.99015  0.26655  0.47960  1.0000 -0.1765148285
C   C128      1.0  0.26655  0.78695  0.27640  1.0000 -0.1765148285
C   C129      1.0  0.15674  0.46367  0.34727  1.0000 0.0810771206
C   C130      1.0  0.46367  0.11640  0.30693  1.0000 0.0810771206
C   C131      1.0  0.11640  0.80947  0.65273  1.0000 0.0810771206
C   C132      1.0  0.80947  0.15674  0.69307  1.0000 0.0810771206
C   C133      1.0  0.84326  0.53633  0.65273  1.0000 0.0810771206
C   C134      1.0  0.53633  0.88360  0.69307  1.0000 0.0810771206
C   C135      1.0  0.88360  0.19053  0.34727  1.0000 0.0810771206
C   C136      1.0  0.19053  0.84326  0.30693  1.0000 0.0810771206
C   C137      1.0  0.11339  0.44570  0.30349  1.0000 -0.1924564152
C   C138      1.0  0.44570  0.14221  0.33231  1.0000 -0.1924564152
C   C139      1.0  0.14221  0.80990  0.69651  1.0000 -0.1924564152
C   C140      1.0  0.80990  0.11339  0.66769  1.0000 -0.1924564152
C   C141      1.0  0.88661  0.55430  0.69651  1.0000 -0.1924564152
C   C142      1.0  0.55430  0.85779  0.66769  1.0000 -0.1924564152
C   C143      1.0  0.85779  0.19010  0.30349  1.0000 -0.1924564152
C   C144      1.0  0.19010  0.88661  0.33231  1.0000 -0.1924564152
C   C145      1.0  0.10383  0.43657  0.25926  1.0000 0.0810771206
C   C146      1.0  0.43657  0.17731  0.33274  1.0000 0.0810771206
C   C147      1.0  0.17731  0.84457  0.74074  1.0000 0.0810771206
C   C148      1.0  0.84457  0.10383  0.66726  1.0000 0.0810771206
C   C149      1.0  0.89617  0.56343  0.74074  1.0000 0.0810771206
C   C150      1.0  0.56343  0.82269  0.66726  1.0000 0.0810771206
C   C151      1.0  0.82269  0.15543  0.25926  1.0000 0.0810771206
C   C152      1.0  0.15543  0.89617  0.33274  1.0000 0.0810771206
C   C153      1.0  0.13904  0.43930  0.25614  1.0000 -0.1924564152
C   C154      1.0  0.43930  0.18316  0.30026  1.0000 -0.1924564152
C   C155      1.0  0.18316  0.88290  0.74386  1.0000 -0.1924564152
C   C156      1.0  0.88290  0.13904  0.69974  1.0000 -0.1924564152
C   C157      1.0  0.86096  0.56070  0.74386  1.0000 -0.1924564152
C   C158      1.0  0.56070  0.81684  0.69974  1.0000 -0.1924564152
C   C159      1.0  0.81684  0.11710  0.25614  1.0000 -0.1924564152
C   C160      1.0  0.11710  0.86096  0.30026  1.0000 -0.1924564152
C   C161      1.0  0.18004  0.44615  0.29329  1.0000 0.0810771206
C   C162      1.0  0.44615  0.15286  0.26611  1.0000 0.0810771206
C   C163      1.0  0.15286  0.88675  0.70671  1.0000 0.0810771206
C   C164      1.0  0.88675  0.18004  0.73389  1.0000 0.0810771206
C   C165      1.0  0.81996  0.55385  0.70671  1.0000 0.0810771206
C   C166      1.0  0.55385  0.84714  0.73389  1.0000 0.0810771206
C   C167      1.0  0.84714  0.11325  0.29329  1.0000 0.0810771206
C   C168      1.0  0.11325  0.81996  0.26611  1.0000 0.0810771206
C   C169      1.0  0.19027  0.46424  0.34343  1.0000 -0.2034732726
C   C170      1.0  0.46424  0.12081  0.27397  1.0000 -0.2034732726
C   C171      1.0  0.12081  0.84684  0.65657  1.0000 -0.2034732726
C   C172      1.0  0.84684  0.19027  0.72603  1.0000 -0.2034732726
C   C173      1.0  0.80973  0.53576  0.65657  1.0000 -0.2034732726
C   C174      1.0  0.53576  0.87919  0.72603  1.0000 -0.2068201382
C   C175      1.0  0.87919  0.15316  0.34343  1.0000 -0.2034732726
C   C176      1.0  0.15316  0.80973  0.27397  1.0000 -0.2034732726
C   C177      1.0  0.05993  0.42365  0.21588  1.0000 0.0704787392
C   C178      1.0  0.42365  0.20777  0.36372  1.0000 0.0704787392
C   C179      1.0  0.20777  0.84405  0.78412  1.0000 0.0704787392
C   C180      1.0  0.84405  0.05993  0.63628  1.0000 0.0704787392
C   C181      1.0  0.94007  0.57635  0.78412  1.0000 0.0704787392
C   C182      1.0  0.57635  0.79223  0.63628  1.0000 0.0704787392
C   C183      1.0  0.79223  0.15595  0.21588  1.0000 0.0704787392
C   C184      1.0  0.15595  0.94007  0.36372  1.0000 0.0704787392
C   C185      1.0  0.02673  0.42153  0.21800  1.0000 -0.159228721
C   C186      1.0  0.42153  0.20353  0.39480  1.0000 -0.159228721
C   C187      1.0  0.20353  0.80873  0.78200  1.0000 -0.159228721
C   C188      1.0  0.80873  0.02673  0.60520  1.0000 -0.159228721
C   C189      1.0  0.97327  0.57847  0.78200  1.0000 -0.159228721
C   C190      1.0  0.57847  0.79647  0.60520  1.0000 -0.159228721
C   C191      1.0  0.79647  0.19127  0.21800  1.0000 -0.159228721
C   C192      1.0  0.19127  0.97327  0.39480  1.0000 -0.159228721
C   C193      1.0  0.98380  0.41453  0.17767  1.0000 -0.1470096249
C   C194      1.0  0.41453  0.23686  0.43073  1.0000 -0.1423422216
C   C195      1.0  0.23686  0.80613  0.82233  1.0000 -0.1470096249
C   C196      1.0  0.80613  0.98380  0.56927  1.0000 -0.1470096249
C   C197      1.0  0.01620  0.58547  0.82233  1.0000 -0.1423422216
C   C198      1.0  0.58547  0.76314  0.56927  1.0000 -0.1470096249
C   C199      1.0  0.76314  0.19387  0.17767  1.0000 -0.1470096249
C   C200      1.0  0.19387  0.01620  0.43073  1.0000 -0.1470096249
C   C201      1.0  0.97185  0.40002  0.13283  1.0000 0.0475522704
C   C202      1.0  0.40002  0.26719  0.42817  1.0000 0.0475522704
C   C203      1.0  0.26719  0.83902  0.86717  1.0000 0.0475522704
C   C204      1.0  0.83902  0.97185  0.57183  1.0000 0.0475522704
C   C205      1.0  0.02815  0.59998  0.86717  1.0000 0.0475522704
C   C206      1.0  0.59998  0.73281  0.57183  1.0000 0.0475522704
C   C207      1.0  0.73281  0.16098  0.13283  1.0000 0.0475522704
C   C208      1.0  0.16098  0.02815  0.42817  1.0000 0.0444469309
C   C209      1.0  0.00340  0.38990  0.12610  1.0000 -0.1222154643
C   C210      1.0  0.38990  0.26380  0.38650  1.0000 -0.1222154643
C   C211      1.0  0.26380  0.87730  0.87390  1.0000 -0.1222154643
C   C212      1.0  0.87730  0.00340  0.61350  1.0000 -0.1222154643
C   C213      1.0  0.99660  0.61010  0.87390  1.0000 -0.1222154643
C   C214      1.0  0.61010  0.73620  0.61350  1.0000 -0.1222154643
C   C215      1.0  0.73620  0.12270  0.12610  1.0000 -0.1222154643
C   C216      1.0  0.12270  0.99660  0.38650  1.0000 -0.1222154643
C   C217      1.0  0.04500  0.40390  0.16590  1.0000 -0.159228721
C   C218      1.0  0.40390  0.23800  0.35890  1.0000 -0.159228721
C   C219      1.0  0.23800  0.87910  0.83410  1.0000 -0.159228721
C   C220      1.0  0.87910  0.04500  0.64110  1.0000 -0.159228721
C   C221      1.0  0.95500  0.59610  0.83410  1.0000 -0.159228721
C   C222      1.0  0.59610  0.76200  0.64110  1.0000 -0.159228721
C   C223      1.0  0.76200  0.12090  0.16590  1.0000 -0.159228721
C   C224      1.0  0.12090  0.95500  0.35890  1.0000 -0.159228721
C   C225      1.0  0.92653  0.39210  0.09243  1.0000 0.1195942372
C   C226      1.0  0.39210  0.29967  0.46557  1.0000 0.1195942372
C   C227      1.0  0.29967  0.83410  0.90757  1.0000 0.1195942372
C   C228      1.0  0.83410  0.92653  0.53443  1.0000 0.1195942372
C   C229      1.0  0.07347  0.60790  0.90757  1.0000 0.1195942372
C   C230      1.0  0.60790  0.70033  0.53443  1.0000 0.1195942372
C   C231      1.0  0.70033  0.16590  0.09243  1.0000 0.1195942372
C   C232      1.0  0.16590  0.07347  0.46557  1.0000 0.1195942372
C   C233      1.0  0.89389  0.39728  0.09543  1.0000 -0.159228721
C   C234      1.0  0.39728  0.30185  0.50339  1.0000 -0.159228721
C   C235      1.0  0.30185  0.79846  0.90457  1.0000 -0.159228721
C   C236      1.0  0.79846  0.89389  0.49661  1.0000 -0.159228721
C   C237      1.0  0.10611  0.60272  0.90457  1.0000 -0.159228721
C   C238      1.0  0.60272  0.69815  0.49661  1.0000 -0.159228721
C   C239      1.0  0.69815  0.20154  0.09543  1.0000 -0.159228721
C   C240      1.0  0.20154  0.10611  0.50339  1.0000 -0.159228721
C   C241      1.0  0.81743  0.39427  0.03836  1.0000 0.1413361198
C   C242      1.0  0.39427  0.35591  0.57684  1.0000 0.1306906349
C   C243      1.0  0.35591  0.77907  0.96164  1.0000 0.1306906349
C   C244      1.0  0.77907  0.81743  0.42316  1.0000 0.1306906349
C   C245      1.0  0.18257  0.60573  0.96164  1.0000 0.1306906349
C   C246      1.0  0.60573  0.64409  0.42316  1.0000 0.1306906349
C   C247      1.0  0.64409  0.22093  0.03836  1.0000 0.1306906349
C   C248      1.0  0.22093  0.18257  0.57684  1.0000 0.1306906349
C   C249      1.0  0.80263  0.39198  0.06373  1.0000 -0.159228721
C   C250      1.0  0.39198  0.32825  0.58935  1.0000 -0.159228721
C   C251      1.0  0.32825  0.73890  0.93627  1.0000 -0.159228721
C   C252      1.0  0.73890  0.80263  0.41065  1.0000 -0.159228721
C   C253      1.0  0.19737  0.60802  0.93627  1.0000 -0.159228721
C   C254      1.0  0.60802  0.67175  0.41065  1.0000 -0.159228721
C   C255      1.0  0.67175  0.26110  0.06373  1.0000 -0.159228721
C   C256      1.0  0.26110  0.19737  0.58935  1.0000 -0.159228721
C   C257      1.0  0.76463  0.40034  0.05521  1.0000 -0.0014950093
C   C258      1.0  0.40034  0.34513  0.63571  1.0000 -0.0014950093
C   C259      1.0  0.34513  0.70942  0.94479  1.0000 -0.0014950093
C   C260      1.0  0.70942  0.76463  0.36429  1.0000 -0.0014950093
C   C261      1.0  0.23537  0.59966  0.94479  1.0000 -0.0014950093
C   C262      1.0  0.59966  0.65487  0.36429  1.0000 -0.0014950093
C   C263      1.0  0.65487  0.29058  0.05521  1.0000 -0.0014950093
C   C264      1.0  0.29058  0.23537  0.63571  1.0000 -0.0014950093
C   C265      1.0  0.74036  0.41030  0.02062  1.0000 -0.1103890623
C   C266      1.0  0.41030  0.38968  0.66994  1.0000 -0.1103890623
C   C267      1.0  0.38968  0.71974  0.97938  1.0000 -0.1103890623
C   C268      1.0  0.71974  0.74036  0.33006  1.0000 -0.1103890623
C   C269      1.0  0.25964  0.58970  0.97938  1.0000 -0.1103890623
C   C270      1.0  0.58970  0.61032  0.33006  1.0000 -0.1103890623
C   C271      1.0  0.61032  0.28026  0.02062  1.0000 -0.1103890623
C   C272      1.0  0.28026  0.25964  0.66994  1.0000 -0.1103890623
C   C273      1.0  0.75508  0.41230  0.99408  1.0000 -0.011525157
C   C274      1.0  0.41230  0.41822  0.65722  1.0000 -0.011525157
C   C275      1.0  0.41822  0.76100  0.00592  1.0000 -0.011525157
C   C276      1.0  0.76100  0.75508  0.34278  1.0000 -0.011525157
C   C277      1.0  0.24492  0.58770  0.00592  1.0000 -0.011525157
C   C278      1.0  0.58770  0.58178  0.34278  1.0000 -0.011525157
C   C279      1.0  0.58178  0.23900  0.99408  1.0000 -0.011525157
C   C280      1.0  0.23900  0.24492  0.65722  1.0000 -0.011525157
C   C281      1.0  0.79374  0.40428  0.00346  1.0000 -0.1423422216
C   C282      1.0  0.40428  0.40082  0.61054  1.0000 -0.1423422216
C   C283      1.0  0.40082  0.79028  0.99654  1.0000 -0.1423422216
C   C284      1.0  0.79028  0.79374  0.38946  1.0000 -0.1423422216
C   C285      1.0  0.20626  0.59572  0.99654  1.0000 -0.1423422216
C   C286      1.0  0.59572  0.59918  0.38946  1.0000 -0.1423422216
C   C287      1.0  0.59918  0.20972  0.00346  1.0000 -0.1423422216
C   C288      1.0  0.20972  0.20626  0.61054  1.0000 -0.1423422216
C   C289      1.0  0.75046  0.40327  0.08721  1.0000 0.5865415531
C   C290      1.0  0.40327  0.31606  0.65281  1.0000 0.5865415531
C   C291      1.0  0.31606  0.66325  0.91279  1.0000 0.5865415531
C   C292      1.0  0.66325  0.75046  0.34719  1.0000 0.5865415531
C   C293      1.0  0.24954  0.59673  0.91279  1.0000 0.5865415531
C   C294      1.0  0.59673  0.68394  0.34719  1.0000 0.5865415531
C   C295      1.0  0.68394  0.33675  0.08721  1.0000 0.5865415531
C   C296      1.0  0.33675  0.24954  0.65281  1.0000 0.5865415531
C   C297      1.0  0.73137  0.42722  0.96073  1.0000 0.5865415531
C   C298      1.0  0.42722  0.46649  0.69585  1.0000 0.5865415531
C   C299      1.0  0.46649  0.77064  0.03927  1.0000 0.5814328957
C   C300      1.0  0.77064  0.73137  0.30415  1.0000 0.5814328957
C   C301      1.0  0.26863  0.57278  0.03927  1.0000 0.5865415531
C   C302      1.0  0.57278  0.53351  0.30415  1.0000 0.5865415531
C   C303      1.0  0.53351  0.22936  0.96073  1.0000 0.5865415531
C   C304      1.0  0.22936  0.26863  0.69585  1.0000 0.5865415531
C   C305      1.0  0.21653  0.45101  0.28792  1.0000 0.0704787392
C   C306      1.0  0.45101  0.16309  0.23448  1.0000 0.0704787392
C   C307      1.0  0.16309  0.92861  0.71208  1.0000 0.0704787392
C   C308      1.0  0.92861  0.21653  0.76552  1.0000 0.0704787392
C   C309      1.0  0.78347  0.54899  0.71208  1.0000 0.0704787392
C   C310      1.0  0.54899  0.83691  0.76552  1.0000 0.0704787392
C   C311      1.0  0.83691  0.07139  0.28792  1.0000 0.0704787392
C   C312      1.0  0.07139  0.78347  0.23448  1.0000 0.0704787392
C   C313      1.0  0.21239  0.46174  0.25725  1.0000 -0.1423422216
C   C314      1.0  0.46174  0.20449  0.24935  1.0000 -0.1423422216
C   C315      1.0  0.20449  0.95514  0.74275  1.0000 -0.1423422216
C   C316      1.0  0.95514  0.21239  0.75065  1.0000 -0.1423422216
C   C317      1.0  0.78761  0.53826  0.74275  1.0000 -0.1423422216
C   C318      1.0  0.53826  0.79551  0.75065  1.0000 -0.1423422216
C   C319      1.0  0.79551  0.04486  0.25725  1.0000 -0.1423422216
C   C320      1.0  0.04486  0.78761  0.24935  1.0000 -0.1423422216
C   C321      1.0  0.24527  0.46309  0.25098  1.0000 -0.1308002217
C   C322      1.0  0.46309  0.21211  0.21782  1.0000 -0.1308002217
C   C323      1.0  0.21211  0.99429  0.74902  1.0000 -0.1308002217
C   C324      1.0  0.99429  0.24527  0.78218  1.0000 -0.1308002217
C   C325      1.0  0.75473  0.53691  0.74902  1.0000 -0.1308002217
C   C326      1.0  0.53691  0.78789  0.78218  1.0000 -0.1308002217
C   C327      1.0  0.78789  0.00571  0.25098  1.0000 -0.1308002217
C   C328      1.0  0.00571  0.75473  0.21782  1.0000 -0.1308002217
C   C329      1.0  0.28413  0.46073  0.28020  1.0000 0.056288162
C   C330      1.0  0.46073  0.18053  0.17660  1.0000 0.056288162
C   C331      1.0  0.18053  0.00393  0.71980  1.0000 0.056288162
C   C332      1.0  0.00393  0.28413  0.82340  1.0000 0.056288162
C   C333      1.0  0.71587  0.53927  0.71980  1.0000 0.056288162
C   C334      1.0  0.53927  0.81947  0.82340  1.0000 0.056288162
C   C335      1.0  0.81947  0.99607  0.28020  1.0000 0.056288162
C   C336      1.0  0.99607  0.71587  0.17660  1.0000 0.056288162
C   C337      1.0  0.28849  0.44508  0.30961  1.0000 -0.1103890623
C   C338      1.0  0.44508  0.13547  0.15659  1.0000 -0.1103890623
C   C339      1.0  0.13547  0.97888  0.69039  1.0000 -0.1103890623
C   C340      1.0  0.97888  0.28849  0.84341  1.0000 -0.1103890623
C   C341      1.0  0.71151  0.55492  0.69039  1.0000 -0.1103890623
C   C342      1.0  0.55492  0.86453  0.84341  1.0000 -0.1103890623
C   C343      1.0  0.86453  0.02112  0.30961  1.0000 -0.1103890623
C   C344      1.0  0.02112  0.71151  0.15659  1.0000 -0.1103890623
C   C345      1.0  0.25459  0.44270  0.31529  1.0000 -0.159228721
C   C346      1.0  0.44270  0.12741  0.18811  1.0000 -0.159228721
C   C347      1.0  0.12741  0.93930  0.68471  1.0000 -0.159228721
C   C348      1.0  0.93930  0.25459  0.81189  1.0000 -0.159228721
C   C349      1.0  0.74541  0.55730  0.68471  1.0000 -0.159228721
C   C350      1.0  0.55730  0.87259  0.81189  1.0000 -0.159228721
C   C351      1.0  0.87259  0.06070  0.31529  1.0000 -0.159228721
C   C352      1.0  0.06070  0.74541  0.18811  1.0000 -0.159228721
C   C353      1.0  0.31936  0.46269  0.27367  1.0000 0.1195942372
C   C354      1.0  0.46269  0.18902  0.14333  1.0000 0.1306906349
C   C355      1.0  0.18902  0.04569  0.72633  1.0000 0.1306906349
C   C356      1.0  0.04569  0.31936  0.85667  1.0000 0.1306906349
C   C357      1.0  0.68064  0.53731  0.72633  1.0000 0.1306906349
C   C358      1.0  0.53731  0.81098  0.85667  1.0000 0.1306906349
C   C359      1.0  0.81098  0.95431  0.27367  1.0000 0.1306906349
C   C360      1.0  0.95431  0.68064  0.14333  1.0000 0.1306906349
C   C361      1.0  0.31909  0.46907  0.24202  1.0000 -0.159228721
C   C362      1.0  0.46907  0.22705  0.14998  1.0000 -0.159228721
C   C363      1.0  0.22705  0.07707  0.75798  1.0000 -0.159228721
C   C364      1.0  0.07707  0.31909  0.85002  1.0000 -0.159228721
C   C365      1.0  0.68091  0.53093  0.75798  1.0000 -0.159228721
C   C366      1.0  0.53093  0.77295  0.85002  1.0000 -0.159228721
C   C367      1.0  0.77295  0.92293  0.24202  1.0000 -0.159228721
C   C368      1.0  0.92293  0.68091  0.14998  1.0000 -0.159228721
C   C369      1.0  0.37229  0.47310  0.22397  1.0000 0.1505975506
C   C370      1.0  0.47310  0.24913  0.10081  1.0000 0.1505975506
C   C371      1.0  0.24913  0.14832  0.77603  1.0000 0.1505975506
C   C372      1.0  0.14832  0.37229  0.89919  1.0000 0.1505975506
C   C373      1.0  0.62771  0.52690  0.77603  1.0000 0.1505975506
C   C374      1.0  0.52690  0.75087  0.89919  1.0000 0.1505975506
C   C375      1.0  0.75087  0.85168  0.22397  1.0000 0.1505975506
C   C376      1.0  0.85168  0.62771  0.10081  1.0000 0.1505975506
C   C377      1.0  0.34933  0.48685  0.19332  1.0000 -0.1765148285
C   C378      1.0  0.48685  0.29353  0.13752  1.0000 -0.1765148285
C   C379      1.0  0.29353  0.15601  0.80668  1.0000 -0.168850834
C   C380      1.0  0.15601  0.34933  0.86248  1.0000 -0.1765148285
C   C381      1.0  0.65067  0.51315  0.80668  1.0000 -0.1765148285
C   C382      1.0  0.51315  0.70647  0.86248  1.0000 -0.1765148285
C   C383      1.0  0.70647  0.84399  0.19332  1.0000 -0.1765148285
C   C384      1.0  0.84399  0.65067  0.13752  1.0000 -0.1765148285
C   C385      1.0  0.36457  0.49159  0.16908  1.0000 -0.0220428252
C   C386      1.0  0.49159  0.32251  0.12702  1.0000 -0.0220428252
C   C387      1.0  0.32251  0.19549  0.83092  1.0000 -0.0220428252
C   C388      1.0  0.19549  0.36457  0.87298  1.0000 -0.0220428252
C   C389      1.0  0.63543  0.50841  0.83092  1.0000 -0.0220428252
C   C390      1.0  0.50841  0.67749  0.87298  1.0000 -0.0220428252
C   C391      1.0  0.67749  0.80451  0.16908  1.0000 -0.0220428252
C   C392      1.0  0.80451  0.63543  0.12702  1.0000 -0.0220428252
C   C393      1.0  0.40298  0.48191  0.17557  1.0000 -0.1103890623
C   C394      1.0  0.48191  0.30634  0.07893  1.0000 -0.1103890623
C   C395      1.0  0.30634  0.22741  0.82443  1.0000 -0.1103890623
C   C396      1.0  0.22741  0.40298  0.92107  1.0000 -0.1103890623
C   C397      1.0  0.59702  0.51809  0.82443  1.0000 -0.1103890623
C   C398      1.0  0.51809  0.69366  0.92107  1.0000 -0.1103890623
C   C399      1.0  0.69366  0.77259  0.17557  1.0000 -0.1103890623
C   C400      1.0  0.77259  0.59702  0.07893  1.0000 -0.1103890623
C   C401      1.0  0.42592  0.46858  0.20686  1.0000 0.0101929439
C   C402      1.0  0.46858  0.26172  0.04266  1.0000 0.0101929439
C   C403      1.0  0.26172  0.21906  0.79314  1.0000 0.0101929439
C   C404      1.0  0.21906  0.42592  0.95734  1.0000 0.0101929439
C   C405      1.0  0.57408  0.53142  0.79314  1.0000 0.0101929439
C   C406      1.0  0.53142  0.73828  0.95734  1.0000 0.0101929439
C   C407      1.0  0.73828  0.78094  0.20686  1.0000 0.0101929439
C   C408      1.0  0.78094  0.57408  0.04266  1.0000 0.0101929439
C   C409      1.0  0.41073  0.46308  0.23137  1.0000 -0.168850834
C   C410      1.0  0.46308  0.23171  0.05235  1.0000 -0.168850834
C   C411      1.0  0.23171  0.17936  0.76863  1.0000 -0.168850834
C   C412      1.0  0.17936  0.41073  0.94765  1.0000 -0.168850834
C   C413      1.0  0.58927  0.53692  0.76863  1.0000 -0.168850834
C   C414      1.0  0.53692  0.76829  0.94765  1.0000 -0.168850834
C   C415      1.0  0.76829  0.82064  0.23137  1.0000 -0.168850834
C   C416      1.0  0.82064  0.58927  0.05235  1.0000 -0.168850834
C   C417      1.0  0.34220  0.50857  0.13879  1.0000 0.5814328957
C   C418      1.0  0.50857  0.36978  0.16637  1.0000 0.5814328957
C   C419      1.0  0.36978  0.20341  0.86121  1.0000 0.5814328957
C   C420      1.0  0.20341  0.34220  0.83363  1.0000 0.5814328957
C   C421      1.0  0.65780  0.49143  0.86121  1.0000 0.5814328957
C   C422      1.0  0.49143  0.63022  0.83363  1.0000 0.5814328957
C   C423      1.0  0.63022  0.79659  0.13879  1.0000 0.5814328957
C   C424      1.0  0.79659  0.65780  0.16637  1.0000 0.5814328957
C   C425      1.0  0.46964  0.46029  0.21787  1.0000 0.5814328957
C   C426      1.0  0.46029  0.24242  0.99065  1.0000 0.5814328957
C   C427      1.0  0.24242  0.25177  0.78213  1.0000 0.5814328957
C   C428      1.0  0.25177  0.46964  0.00935  1.0000 0.5814328957
C   C429      1.0  0.53036  0.53971  0.78213  1.0000 0.5814328957
C   C430      1.0  0.53971  0.75758  0.00935  1.0000 0.5814328957
C   C431      1.0  0.75758  0.74823  0.21787  1.0000 0.5814328957
C   C432      1.0  0.74823  0.53036  0.99065  1.0000 0.5814328957
N   N1        1.0  0.23712  0.54666  0.62446  1.0000 0.1306906349
N   N2        1.0  0.54666  0.92220  0.30954  1.0000 0.1306906349
N   N3        1.0  0.92220  0.61266  0.37554  1.0000 0.1413361198
N   N4        1.0  0.61266  0.23712  0.69046  1.0000 0.1413361198
N   N5        1.0  0.76288  0.45334  0.37554  1.0000 0.1413361198
N   N6        1.0  0.45334  0.07780  0.69046  1.0000 0.1306906349
N   N7        1.0  0.07780  0.38734  0.62446  1.0000 0.1306906349
N   N8        1.0  0.38734  0.76288  0.30954  1.0000 0.1306906349
N   N9        1.0  0.20194  0.55782  0.61372  1.0000 -0.1103890623
N   N10       1.0  0.55782  0.94410  0.35588  1.0000 -0.1103890623
N   N11       1.0  0.94410  0.58822  0.38628  1.0000 -0.1103890623
N   N12       1.0  0.58822  0.20194  0.64412  1.0000 -0.1103890623
N   N13       1.0  0.79806  0.44218  0.38628  1.0000 -0.1103890623
N   N14       1.0  0.44218  0.05590  0.64412  1.0000 -0.1103890623
N   N15       1.0  0.05590  0.41178  0.61372  1.0000 -0.1103890623
N   N16       1.0  0.41178  0.79806  0.35588  1.0000 -0.1103890623
N   N17       1.0  0.18115  0.54663  0.56792  1.0000 -0.2068201382
N   N18       1.0  0.54663  0.97871  0.36548  1.0000 -0.2068201382
N   N19       1.0  0.97871  0.61323  0.43208  1.0000 -0.2068201382
N   N20       1.0  0.61323  0.18115  0.63452  1.0000 -0.2068201382
N   N21       1.0  0.81885  0.45337  0.43208  1.0000 -0.2068201382
N   N22       1.0  0.45337  0.02129  0.63452  1.0000 -0.2068201382
N   N23       1.0  0.02129  0.38677  0.56792  1.0000 -0.2034732726
N   N24       1.0  0.38677  0.81885  0.36548  1.0000 -0.2034732726
N   N25       1.0  0.86006  0.38874  0.05068  1.0000 0.1621386032
N   N26       1.0  0.38874  0.33806  0.52868  1.0000 0.1621386032
N   N27       1.0  0.33806  0.80938  0.94932  1.0000 0.1690761652
N   N28       1.0  0.80938  0.86006  0.47132  1.0000 0.1621386032
N   N29       1.0  0.13994  0.61126  0.94932  1.0000 0.1690761652
N   N30       1.0  0.61126  0.66194  0.47132  1.0000 0.1690761652
N   N31       1.0  0.66194  0.19062  0.05068  1.0000 0.1621386032
N   N32       1.0  0.19062  0.13994  0.52868  1.0000 0.1621386032
N   N33       1.0  0.87097  0.37569  0.01898  1.0000 -0.1222154643
N   N34       1.0  0.37569  0.35671  0.50472  1.0000 -0.1222154643
N   N35       1.0  0.35671  0.85199  0.98102  1.0000 -0.1222154643
N   N36       1.0  0.85199  0.87097  0.49528  1.0000 -0.1308002217
N   N37       1.0  0.12903  0.62431  0.98102  1.0000 -0.1222154643
N   N38       1.0  0.62431  0.64329  0.49528  1.0000 -0.1308002217
N   N39       1.0  0.64329  0.14801  0.01898  1.0000 -0.1308002217
N   N40       1.0  0.14801  0.12903  0.50472  1.0000 -0.1308002217
N   N41       1.0  0.91136  0.37588  0.04468  1.0000 -0.2203084857
N   N42       1.0  0.37588  0.33120  0.46452  1.0000 -0.2203084857
N   N43       1.0  0.33120  0.86668  0.95532  1.0000 -0.2203084857
N   N44       1.0  0.86668  0.91136  0.53548  1.0000 -0.2203084857
N   N45       1.0  0.08864  0.62412  0.95532  1.0000 -0.2203084857
N   N46       1.0  0.62412  0.66880  0.53548  1.0000 -0.2203084857
N   N47       1.0  0.66880  0.13332  0.04468  1.0000 -0.2203084857
N   N48       1.0  0.13332  0.08864  0.46452  1.0000 -0.2203084857
N   N49       1.0  0.35716  0.46869  0.24947  1.0000 0.1505975506
N   N50       1.0  0.46869  0.21922  0.11153  1.0000 0.1505975506
N   N51       1.0  0.21922  0.10769  0.75053  1.0000 0.1505975506
N   N52       1.0  0.10769  0.35716  0.88847  1.0000 0.1505975506
N   N53       1.0  0.64284  0.53131  0.75053  1.0000 0.1621386032
N   N54       1.0  0.53131  0.78078  0.88847  1.0000 0.1505975506
N   N55       1.0  0.78078  0.89231  0.24947  1.0000 0.1621386032
N   N56       1.0  0.89231  0.64284  0.11153  1.0000 0.1505975506
N   N57       1.0  0.38055  0.45852  0.28203  1.0000 -0.1222154643
N   N58       1.0  0.45852  0.17649  0.07797  1.0000 -0.1222154643
N   N59       1.0  0.17649  0.09852  0.71797  1.0000 -0.1222154643
N   N60       1.0  0.09852  0.38055  0.92203  1.0000 -0.1222154643
N   N61       1.0  0.61945  0.54148  0.71797  1.0000 -0.1222154643
N   N62       1.0  0.54148  0.82351  0.92203  1.0000 -0.1222154643
N   N63       1.0  0.82351  0.90148  0.28203  1.0000 -0.1222154643
N   N64       1.0  0.90148  0.61945  0.07797  1.0000 -0.1222154643
N   N65       1.0  0.35704  0.45668  0.29776  1.0000 -0.2310931937
N   N66       1.0  0.45668  0.15892  0.09964  1.0000 -0.2310931937
N   N67       1.0  0.15892  0.05928  0.70224  1.0000 -0.2310931937
N   N68       1.0  0.05928  0.35704  0.90036  1.0000 -0.2310931937
N   N69       1.0  0.64296  0.54332  0.70224  1.0000 -0.2310931937
N   N70       1.0  0.54332  0.84108  0.90036  1.0000 -0.2310931937
N   N71       1.0  0.84108  0.94072  0.29776  1.0000 -0.2310931937
N   N72       1.0  0.94072  0.64296  0.09964  1.0000 -0.2310931937
O   O1        1.0  0.39476  0.55408  0.71684  1.0000 -0.5273947383
O   O2        1.0  0.55408  0.83724  0.15932  1.0000 -0.5273947383
O   O3        1.0  0.83724  0.67792  0.28316  1.0000 -0.5273947383
O   O4        1.0  0.67792  0.39476  0.84068  1.0000 -0.5273947383
O   O5        1.0  0.60524  0.44592  0.28316  1.0000 -0.5273947383
O   O6        1.0  0.44592  0.16276  0.84068  1.0000 -0.5273947383
O   O7        1.0  0.16276  0.32208  0.71684  1.0000 -0.5273947383
O   O8        1.0  0.32208  0.60524  0.15932  1.0000 -0.5273947383
O   O9        1.0  0.40842  0.55053  0.78065  1.0000 -0.5221982605
O   O10       1.0  0.55053  0.76988  0.14211  1.0000 -0.5221982605
O   O11       1.0  0.76988  0.62777  0.21935  1.0000 -0.5221982605
O   O12       1.0  0.62777  0.40842  0.85789  1.0000 -0.5221982605
O   O13       1.0  0.59158  0.44947  0.21935  1.0000 -0.5221982605
O   O14       1.0  0.44947  0.23012  0.85789  1.0000 -0.5221982605
O   O15       1.0  0.23012  0.37223  0.78065  1.0000 -0.5221982605
O   O16       1.0  0.37223  0.59158  0.14211  1.0000 -0.5221982605
O   O17       1.0  0.30343  0.56871  0.82158  1.0000 -0.5100031116
O   O18       1.0  0.56871  0.74713  0.26528  1.0000 -0.5100031116
O   O19       1.0  0.74713  0.48185  0.17842  1.0000 -0.5100031116
O   O20       1.0  0.48185  0.30343  0.73472  1.0000 -0.5100031116
O   O21       1.0  0.69657  0.43129  0.17842  1.0000 -0.5100031116
O   O22       1.0  0.43129  0.25287  0.73472  1.0000 -0.5100031116
O   O23       1.0  0.25287  0.51815  0.82158  1.0000 -0.5100031116
O   O24       1.0  0.51815  0.69657  0.26528  1.0000 -0.5100031116
O   O25       1.0  0.24441  0.58710  0.78205  1.0000 -0.5273947383
O   O26       1.0  0.58710  0.80505  0.34269  1.0000 -0.5273947383
O   O27       1.0  0.80505  0.46236  0.21795  1.0000 -0.5273947383
O   O28       1.0  0.46236  0.24441  0.65731  1.0000 -0.5273947383
O   O29       1.0  0.75559  0.41290  0.21795  1.0000 -0.5273947383
O   O30       1.0  0.41290  0.19495  0.65731  1.0000 -0.5273947383
O   O31       1.0  0.19495  0.53764  0.78205  1.0000 -0.5273947383
O   O32       1.0  0.53764  0.75559  0.34269  1.0000 -0.5273947383
O   O33       1.0  0.77512  0.39442  0.11882  1.0000 -0.535108655
O   O34       1.0  0.39442  0.27560  0.61930  1.0000 -0.535108655
O   O35       1.0  0.27560  0.65630  0.88118  1.0000 -0.535108655
O   O36       1.0  0.65630  0.77512  0.38070  1.0000 -0.5273947383
O   O37       1.0  0.22488  0.60558  0.88118  1.0000 -0.535108655
O   O38       1.0  0.60558  0.72440  0.38070  1.0000 -0.535108655
O   O39       1.0  0.72440  0.34370  0.11882  1.0000 -0.535108655
O   O40       1.0  0.34370  0.22488  0.61930  1.0000 -0.535108655
O   O41       1.0  0.71740  0.41398  0.08130  1.0000 -0.4867544838
O   O42       1.0  0.41398  0.33268  0.69658  1.0000 -0.4867544838
O   O43       1.0  0.33268  0.63610  0.91870  1.0000 -0.4867544838
O   O44       1.0  0.63610  0.71740  0.30342  1.0000 -0.4867544838
O   O45       1.0  0.28260  0.58602  0.91870  1.0000 -0.4867544838
O   O46       1.0  0.58602  0.66732  0.30342  1.0000 -0.4867544838
O   O47       1.0  0.66732  0.36390  0.08130  1.0000 -0.4867544838
O   O48       1.0  0.36390  0.28260  0.69658  1.0000 -0.4867544838
O   O49       1.0  0.69640  0.43546  0.95478  1.0000 -0.5273947383
O   O50       1.0  0.43546  0.48068  0.73906  1.0000 -0.5273947383
O   O51       1.0  0.48068  0.74162  0.04522  1.0000 -0.5273947383
O   O52       1.0  0.74162  0.69640  0.26094  1.0000 -0.5273947383
O   O53       1.0  0.30360  0.56454  0.04522  1.0000 -0.5273947383
O   O54       1.0  0.56454  0.51932  0.26094  1.0000 -0.5273947383
O   O55       1.0  0.51932  0.25838  0.95478  1.0000 -0.5273947383
O   O56       1.0  0.25838  0.30360  0.73906  1.0000 -0.5273947383
O   O57       1.0  0.74805  0.43054  0.94035  1.0000 -0.5221982605
O   O58       1.0  0.43054  0.49019  0.68249  1.0000 -0.5221982605
O   O59       1.0  0.49019  0.80770  0.05965  1.0000 -0.5221982605
O   O60       1.0  0.80770  0.74805  0.31751  1.0000 -0.5221982605
O   O61       1.0  0.25195  0.56946  0.05965  1.0000 -0.5221982605
O   O62       1.0  0.56946  0.50981  0.31751  1.0000 -0.5273947383
O   O63       1.0  0.50981  0.19230  0.94035  1.0000 -0.5221982605
O   O64       1.0  0.19230  0.25195  0.68249  1.0000 -0.5221982605
O   O65       1.0  0.31154  0.52336  0.13988  1.0000 -0.5273947383
O   O66       1.0  0.52336  0.38348  0.21182  1.0000 -0.5273947383
O   O67       1.0  0.38348  0.17166  0.86012  1.0000 -0.5273947383
O   O68       1.0  0.17166  0.31154  0.78818  1.0000 -0.5273947383
O   O69       1.0  0.68846  0.47664  0.86012  1.0000 -0.5273947383
O   O70       1.0  0.47664  0.61652  0.78818  1.0000 -0.5273947383
O   O71       1.0  0.61652  0.82834  0.13988  1.0000 -0.5273947383
O   O72       1.0  0.82834  0.68846  0.21182  1.0000 -0.5273947383
O   O73       1.0  0.35430  0.50723  0.11269  1.0000 -0.5221982605
O   O74       1.0  0.50723  0.39454  0.15293  1.0000 -0.5221982605
O   O75       1.0  0.39454  0.24161  0.88731  1.0000 -0.5221982605
O   O76       1.0  0.24161  0.35430  0.84707  1.0000 -0.5221982605
O   O77       1.0  0.64570  0.49277  0.88731  1.0000 -0.5221982605
O   O78       1.0  0.49277  0.60546  0.84707  1.0000 -0.5221982605
O   O79       1.0  0.60546  0.75839  0.11269  1.0000 -0.5221982605
O   O80       1.0  0.75839  0.64570  0.15293  1.0000 -0.5221982605
O   O81       1.0  0.48076  0.46612  0.19432  1.0000 -0.5273947383
O   O82       1.0  0.46612  0.27180  0.98536  1.0000 -0.5273947383
O   O83       1.0  0.27180  0.28644  0.80568  1.0000 -0.5273947383
O   O84       1.0  0.28644  0.48076  0.01464  1.0000 -0.5273947383
O   O85       1.0  0.51924  0.53388  0.80568  1.0000 -0.5273947383
O   O86       1.0  0.53388  0.72820  0.01464  1.0000 -0.5273947383
O   O87       1.0  0.72820  0.71356  0.19432  1.0000 -0.5273947383
O   O88       1.0  0.71356  0.51924  0.98536  1.0000 -0.5273947383
O   O89       1.0  0.48886  0.44822  0.24630  1.0000 -0.5100031116
O   O90       1.0  0.44822  0.20192  0.95936  1.0000 -0.5100031116
O   O91       1.0  0.20192  0.24256  0.75370  1.0000 -0.5100031116
O   O92       1.0  0.24256  0.48886  0.04064  1.0000 -0.5100031116
O   O93       1.0  0.51114  0.55178  0.75370  1.0000 -0.5100031116
O   O94       1.0  0.55178  0.79808  0.04064  1.0000 -0.5100031116
O   O95       1.0  0.79808  0.75744  0.24630  1.0000 -0.5100031116
O   O96       1.0  0.75744  0.51114  0.95936  1.0000 -0.5100031116
