# DDEC6 charges by PACMAN v1.1 (https://github.com/mtap-research/PACMAN-charge/)
data_2014[Al][nan]3[ASR]5
_chemical_formula_sum              "Al8 H32 C64 O40"
_cell_length_a       14.8047
_cell_length_b       14.8047
_cell_length_c       11.8017
_cell_angle_alpha    90
_cell_angle_beta     90
_cell_angle_gamma    90

_symmetry_space_group_name_H-M    "P 1"
_symmetry_Int_Tables_number       1

loop_
  _symmetry_equiv_pos_as_xyz
  'x, y, z'

loop_
  _atom_site_type_symbol
  _atom_site_label
  _atom_site_symmetry_multiplicity
  _atom_site_fract_x
  _atom_site_fract_y
  _atom_site_fract_z
  _atom_site_occupancy
  _atom_site_charge
Al  Al1       1.0  0.69267  0.30733  0.50000  1.0000 1.6620004492
Al  Al2       1.0  0.80733  0.19267  0.00000  1.0000 1.6620004492
Al  Al3       1.0  0.69267  0.19267  0.75000  1.0000 1.6620004492
Al  Al4       1.0  0.80733  0.30733  0.25000  1.0000 1.6620004492
Al  Al5       1.0  0.19267  0.80733  0.00000  1.0000 1.6620004492
Al  Al6       1.0  0.30733  0.69267  0.50000  1.0000 1.6620004492
Al  Al7       1.0  0.19267  0.69267  0.25000  1.0000 1.6620004492
Al  Al8       1.0  0.30733  0.80733  0.75000  1.0000 1.6620004492
H   H1        1.0  0.81544  0.25000  0.62500  1.0000 0.4173836427
H   H2        1.0  0.68456  0.25000  0.12500  1.0000 0.4173836427
H   H3        1.0  0.75000  0.31544  0.87500  1.0000 0.4173836427
H   H4        1.0  0.75000  0.18456  0.37500  1.0000 0.4173836427
H   H5        1.0  0.31544  0.75000  0.12500  1.0000 0.4173836427
H   H6        1.0  0.18456  0.75000  0.62500  1.0000 0.4173836427
H   H7        1.0  0.25000  0.81544  0.37500  1.0000 0.4173836427
H   H8        1.0  0.25000  0.68456  0.87500  1.0000 0.4173836427
H   H9        1.0  0.50000  0.50000  0.60635  1.0000 0.127696188
H   H10       1.0  0.00000  0.00000  0.10635  1.0000 0.127696188
H   H11       1.0  0.50000  0.00000  0.85635  1.0000 0.127696188
H   H12       1.0  0.00000  0.50000  0.35635  1.0000 0.127696188
H   H13       1.0  0.00000  0.50000  0.14365  1.0000 0.127696188
H   H14       1.0  0.50000  0.00000  0.64365  1.0000 0.127696188
H   H15       1.0  0.00000  0.00000  0.89365  1.0000 0.127696188
H   H16       1.0  0.50000  0.50000  0.39365  1.0000 0.127696188
H   H17       1.0  0.57252  0.37263  0.92332  1.0000 0.1072304164
H   H18       1.0  0.92748  0.12737  0.42332  1.0000 0.1072304164
H   H19       1.0  0.62737  0.07252  0.17332  1.0000 0.1072304164
H   H20       1.0  0.87263  0.42748  0.67332  1.0000 0.1072304164
H   H21       1.0  0.92748  0.37263  0.82668  1.0000 0.1072304164
H   H22       1.0  0.57252  0.12737  0.32668  1.0000 0.1072304164
H   H23       1.0  0.87263  0.07252  0.57668  1.0000 0.1072304164
H   H24       1.0  0.62737  0.42748  0.07668  1.0000 0.1072304164
H   H25       1.0  0.07252  0.87263  0.42332  1.0000 0.1072304164
H   H26       1.0  0.42748  0.62737  0.92332  1.0000 0.1072304164
H   H27       1.0  0.12737  0.57252  0.67332  1.0000 0.1072304164
H   H28       1.0  0.37263  0.92748  0.17332  1.0000 0.1072304164
H   H29       1.0  0.42748  0.87263  0.32668  1.0000 0.1072304164
H   H30       1.0  0.07252  0.62737  0.82668  1.0000 0.1072304164
H   H31       1.0  0.37263  0.57252  0.07668  1.0000 0.1072304164
H   H32       1.0  0.12737  0.92748  0.57668  1.0000 0.1072304164
C   C1        1.0  0.59446  0.35861  0.70087  1.0000 0.6467182952
C   C2        1.0  0.90554  0.14139  0.20087  1.0000 0.6467182952
C   C3        1.0  0.64139  0.09446  0.95087  1.0000 0.6467182952
C   C4        1.0  0.85861  0.40554  0.45087  1.0000 0.6467182952
C   C5        1.0  0.90554  0.35861  0.04913  1.0000 0.6467182952
C   C6        1.0  0.59446  0.14139  0.54913  1.0000 0.6467182952
C   C7        1.0  0.85861  0.09446  0.79913  1.0000 0.6467182952
C   C8        1.0  0.64139  0.40554  0.29913  1.0000 0.6467182952
C   C9        1.0  0.09446  0.85861  0.20087  1.0000 0.6467182952
C   C10       1.0  0.40554  0.64139  0.70087  1.0000 0.6467182952
C   C11       1.0  0.14139  0.59446  0.45087  1.0000 0.6467182952
C   C12       1.0  0.35861  0.90554  0.95087  1.0000 0.6467182952
C   C13       1.0  0.40554  0.85861  0.54913  1.0000 0.6467182952
C   C14       1.0  0.09446  0.64139  0.04913  1.0000 0.6467182952
C   C15       1.0  0.35861  0.59446  0.29913  1.0000 0.6467182952
C   C16       1.0  0.14139  0.90554  0.79913  1.0000 0.6467182952
C   C17       1.0  0.54308  0.43089  0.75981  1.0000 -0.0425928718
C   C18       1.0  0.95692  0.06911  0.25981  1.0000 -0.0425928718
C   C19       1.0  0.56911  0.04308  0.00981  1.0000 -0.0425928718
C   C20       1.0  0.93089  0.45692  0.50981  1.0000 -0.0425928718
C   C21       1.0  0.95692  0.43089  0.99019  1.0000 -0.0425928718
C   C22       1.0  0.54308  0.06911  0.49019  1.0000 -0.0425928718
C   C23       1.0  0.93089  0.04308  0.74019  1.0000 -0.0425928718
C   C24       1.0  0.56911  0.45692  0.24019  1.0000 -0.0425928718
C   C25       1.0  0.04308  0.93089  0.25981  1.0000 -0.0425928718
C   C26       1.0  0.45692  0.56911  0.75981  1.0000 -0.0425928718
C   C27       1.0  0.06911  0.54308  0.50981  1.0000 -0.0425928718
C   C28       1.0  0.43089  0.95692  0.00981  1.0000 -0.0425928718
C   C29       1.0  0.45692  0.93089  0.49019  1.0000 -0.0425928718
C   C30       1.0  0.04308  0.56911  0.99019  1.0000 -0.0425928718
C   C31       1.0  0.43089  0.54308  0.24019  1.0000 -0.0425928718
C   C32       1.0  0.06911  0.95692  0.74019  1.0000 -0.0425928718
C   C33       1.0  0.50000  0.50000  0.69902  1.0000 -0.0931080926
C   C34       1.0  0.00000  0.00000  0.19902  1.0000 -0.0931080926
C   C35       1.0  0.50000  0.00000  0.94902  1.0000 -0.0931080926
C   C36       1.0  0.00000  0.50000  0.44902  1.0000 -0.0931080926
C   C37       1.0  0.00000  0.50000  0.05098  1.0000 -0.0931080926
C   C38       1.0  0.50000  0.00000  0.55098  1.0000 -0.0931080926
C   C39       1.0  0.00000  0.00000  0.80098  1.0000 -0.0931080926
C   C40       1.0  0.50000  0.50000  0.30098  1.0000 -0.0931080926
C   C41       1.0  0.54123  0.42961  0.87836  1.0000 -0.123454502
C   C42       1.0  0.95877  0.07039  0.37836  1.0000 -0.123454502
C   C43       1.0  0.57039  0.04123  0.12836  1.0000 -0.123454502
C   C44       1.0  0.92961  0.45877  0.62836  1.0000 -0.123454502
C   C45       1.0  0.95877  0.42961  0.87164  1.0000 -0.123454502
C   C46       1.0  0.54123  0.07039  0.37164  1.0000 -0.123454502
C   C47       1.0  0.92961  0.04123  0.62164  1.0000 -0.123454502
C   C48       1.0  0.57039  0.45877  0.12164  1.0000 -0.123454502
C   C49       1.0  0.04123  0.92961  0.37836  1.0000 -0.123454502
C   C50       1.0  0.45877  0.57039  0.87836  1.0000 -0.123454502
C   C51       1.0  0.07039  0.54123  0.62836  1.0000 -0.123454502
C   C52       1.0  0.42961  0.95877  0.12836  1.0000 -0.123454502
C   C53       1.0  0.45877  0.92961  0.37164  1.0000 -0.123454502
C   C54       1.0  0.04123  0.57039  0.87164  1.0000 -0.123454502
C   C55       1.0  0.42961  0.54123  0.12164  1.0000 -0.123454502
C   C56       1.0  0.07039  0.95877  0.62164  1.0000 -0.123454502
C   C57       1.0  0.50000  0.50000  0.93824  1.0000 0.0654246145
C   C58       1.0  0.00000  0.00000  0.43824  1.0000 0.0654246145
C   C59       1.0  0.50000  0.00000  0.18824  1.0000 0.0654246145
C   C60       1.0  0.00000  0.50000  0.68824  1.0000 0.0654246145
C   C61       1.0  0.00000  0.50000  0.81176  1.0000 0.0654246145
C   C62       1.0  0.50000  0.00000  0.31176  1.0000 0.0654246145
C   C63       1.0  0.00000  0.00000  0.56176  1.0000 0.0654246145
C   C64       1.0  0.50000  0.50000  0.06176  1.0000 0.0654246145
O   O1        1.0  0.74985  0.25000  0.62500  1.0000 -1.0125190896
O   O2        1.0  0.75015  0.25000  0.12500  1.0000 -1.0125190896
O   O3        1.0  0.75000  0.24985  0.87500  1.0000 -1.0125190896
O   O4        1.0  0.75000  0.25015  0.37500  1.0000 -1.0125190896
O   O5        1.0  0.24985  0.75000  0.12500  1.0000 -1.0125190896
O   O6        1.0  0.25015  0.75000  0.62500  1.0000 -1.0125190896
O   O7        1.0  0.25000  0.74985  0.37500  1.0000 -1.0125190896
O   O8        1.0  0.25000  0.75015  0.87500  1.0000 -1.0125190896
O   O9        1.0  0.62593  0.37770  0.60370  1.0000 -0.5706840885
O   O10       1.0  0.87407  0.12230  0.10370  1.0000 -0.5706840885
O   O11       1.0  0.62230  0.12593  0.85370  1.0000 -0.5706840885
O   O12       1.0  0.87770  0.37407  0.35370  1.0000 -0.5706840885
O   O13       1.0  0.87407  0.37770  0.14630  1.0000 -0.5706840885
O   O14       1.0  0.62593  0.12230  0.64630  1.0000 -0.5706840885
O   O15       1.0  0.87770  0.12593  0.89630  1.0000 -0.5706840885
O   O16       1.0  0.62230  0.37407  0.39630  1.0000 -0.5706840885
O   O17       1.0  0.12593  0.87770  0.10370  1.0000 -0.5706840885
O   O18       1.0  0.37407  0.62230  0.60370  1.0000 -0.5706840885
O   O19       1.0  0.12230  0.62593  0.35370  1.0000 -0.5706840885
O   O20       1.0  0.37770  0.87407  0.85370  1.0000 -0.5706840885
O   O21       1.0  0.37407  0.87770  0.64630  1.0000 -0.5706840885
O   O22       1.0  0.12593  0.62230  0.14630  1.0000 -0.5706840885
O   O23       1.0  0.37770  0.62593  0.39630  1.0000 -0.5706840885
O   O24       1.0  0.12230  0.87407  0.89630  1.0000 -0.5706840885
O   O25       1.0  0.60491  0.28394  0.75455  1.0000 -0.6006561054
O   O26       1.0  0.89509  0.21606  0.25455  1.0000 -0.6006561054
O   O27       1.0  0.71606  0.10491  0.00455  1.0000 -0.6006561054
O   O28       1.0  0.78394  0.39509  0.50455  1.0000 -0.6006561054
O   O29       1.0  0.89509  0.28394  0.99545  1.0000 -0.6006561054
O   O30       1.0  0.60491  0.21606  0.49545  1.0000 -0.6006561054
O   O31       1.0  0.78394  0.10491  0.74545  1.0000 -0.6006561054
O   O32       1.0  0.71606  0.39509  0.24545  1.0000 -0.6006561054
O   O33       1.0  0.10491  0.78394  0.25455  1.0000 -0.6006561054
O   O34       1.0  0.39509  0.71606  0.75455  1.0000 -0.6006561054
O   O35       1.0  0.21606  0.60491  0.50455  1.0000 -0.6006561054
O   O36       1.0  0.28394  0.89509  0.00455  1.0000 -0.6006561054
O   O37       1.0  0.39509  0.78394  0.49545  1.0000 -0.6006561054
O   O38       1.0  0.10491  0.71606  0.99545  1.0000 -0.6006561054
O   O39       1.0  0.28394  0.60491  0.24545  1.0000 -0.6006561054
O   O40       1.0  0.21606  0.89509  0.74545  1.0000 -0.6006561054
