# DDEC6 charges by PACMAN v1.1 (https://github.com/mtap-research/PACMAN-charge/)
data_2014[Ni][ant]3[ASR]1
_chemical_formula_sum              "Ni8 H56 C104 N8 O32"
_cell_length_a       17.298
_cell_length_b       13.402
_cell_length_c       18.056
_cell_angle_alpha    90
_cell_angle_beta     96.196
_cell_angle_gamma    90

_symmetry_space_group_name_H-M    "P 1"
_symmetry_Int_Tables_number       1

loop_
  _symmetry_equiv_pos_as_xyz
  'x, y, z'

loop_
  _atom_site_type_symbol
  _atom_site_label
  _atom_site_symmetry_multiplicity
  _atom_site_fract_x
  _atom_site_fract_y
  _atom_site_fract_z
  _atom_site_occupancy
  _atom_site_charge
Ni  Ni1       1.0  0.04587  0.30097  0.17086  1.0000 0.8120811744
Ni  Ni2       1.0  0.95413  0.69903  0.82914  1.0000 0.8120811744
Ni  Ni3       1.0  0.95413  0.30097  0.32914  1.0000 0.8120811744
Ni  Ni4       1.0  0.04587  0.69903  0.67086  1.0000 0.8120811744
Ni  Ni5       1.0  0.54587  0.80097  0.17086  1.0000 0.8120811744
Ni  Ni6       1.0  0.45413  0.19903  0.82914  1.0000 0.8120811744
Ni  Ni7       1.0  0.45413  0.80097  0.32914  1.0000 0.8120811744
Ni  Ni8       1.0  0.54587  0.19903  0.67086  1.0000 0.8120811744
H   H1        1.0  0.72308  0.88481  0.08197  1.0000 0.1018022501
H   H2        1.0  0.27692  0.11519  0.91803  1.0000 0.1018022501
H   H3        1.0  0.27692  0.88481  0.41803  1.0000 0.1018022501
H   H4        1.0  0.72308  0.11519  0.58197  1.0000 0.1018022501
H   H5        1.0  0.22308  0.38481  0.08197  1.0000 0.1018022501
H   H6        1.0  0.77692  0.61519  0.91803  1.0000 0.1018022501
H   H7        1.0  0.77692  0.38481  0.41803  1.0000 0.1018022501
H   H8        1.0  0.22308  0.61519  0.58197  1.0000 0.1018022501
H   H9        1.0  0.75810  0.11965  0.24394  1.0000 0.1192619349
H   H10       1.0  0.24190  0.88035  0.75606  1.0000 0.1192619349
H   H11       1.0  0.24190  0.11965  0.25606  1.0000 0.1192619349
H   H12       1.0  0.75810  0.88035  0.74394  1.0000 0.1192619349
H   H13       1.0  0.25810  0.61965  0.24394  1.0000 0.1192619349
H   H14       1.0  0.74190  0.38035  0.75606  1.0000 0.1192619349
H   H15       1.0  0.74190  0.61965  0.25606  1.0000 0.1192619349
H   H16       1.0  0.25810  0.38035  0.74394  1.0000 0.1192619349
H   H17       1.0  0.93048  0.06781  0.09191  1.0000 0.1018022501
H   H18       1.0  0.06952  0.93219  0.90809  1.0000 0.1018022501
H   H19       1.0  0.06952  0.06781  0.40809  1.0000 0.1018022501
H   H20       1.0  0.93048  0.93219  0.59191  1.0000 0.1018022501
H   H21       1.0  0.43048  0.56781  0.09191  1.0000 0.1018022501
H   H22       1.0  0.56952  0.43219  0.90809  1.0000 0.1018022501
H   H23       1.0  0.56952  0.56781  0.40809  1.0000 0.1018022501
H   H24       1.0  0.43048  0.43219  0.59191  1.0000 0.1018022501
H   H25       1.0  0.74805  0.88417  0.95550  1.0000 0.1282322672
H   H26       1.0  0.25195  0.11583  0.04450  1.0000 0.1282322672
H   H27       1.0  0.25195  0.88417  0.54450  1.0000 0.1282322672
H   H28       1.0  0.74805  0.11583  0.45550  1.0000 0.1282322672
H   H29       1.0  0.24805  0.38417  0.95550  1.0000 0.1282322672
H   H30       1.0  0.75195  0.61583  0.04450  1.0000 0.1282322672
H   H31       1.0  0.75195  0.38417  0.54450  1.0000 0.1282322672
H   H32       1.0  0.24805  0.61583  0.45550  1.0000 0.1282322672
H   H33       1.0  0.80482  0.77183  0.86382  1.0000 0.1018022501
H   H34       1.0  0.19518  0.22817  0.13618  1.0000 0.1018022501
H   H35       1.0  0.19518  0.77183  0.63618  1.0000 0.1018022501
H   H36       1.0  0.80482  0.22817  0.36382  1.0000 0.1018022501
H   H37       1.0  0.30482  0.27183  0.86382  1.0000 0.1018022501
H   H38       1.0  0.69518  0.72817  0.13618  1.0000 0.1018022501
H   H39       1.0  0.69518  0.27183  0.63618  1.0000 0.1018022501
H   H40       1.0  0.30482  0.72817  0.36382  1.0000 0.1018022501
H   H41       1.0  0.02707  0.79798  0.97297  1.0000 0.0946545466
H   H42       1.0  0.97293  0.20202  0.02703  1.0000 0.0946545466
H   H43       1.0  0.97293  0.79798  0.52703  1.0000 0.0946545466
H   H44       1.0  0.02707  0.20202  0.47297  1.0000 0.0946545466
H   H45       1.0  0.52707  0.29798  0.97297  1.0000 0.0946545466
H   H46       1.0  0.47293  0.70202  0.02703  1.0000 0.0946545466
H   H47       1.0  0.47293  0.29798  0.52703  1.0000 0.0946545466
H   H48       1.0  0.52707  0.70202  0.47297  1.0000 0.0946545466
H   H49       1.0  0.98127  0.91069  0.07101  1.0000 0.1282322672
H   H50       1.0  0.01873  0.08931  0.92899  1.0000 0.1282322672
H   H51       1.0  0.01873  0.91069  0.42899  1.0000 0.1282322672
H   H52       1.0  0.98127  0.08931  0.57101  1.0000 0.1282322672
H   H53       1.0  0.48127  0.41069  0.07101  1.0000 0.1282322672
H   H54       1.0  0.51873  0.58931  0.92899  1.0000 0.1282322672
H   H55       1.0  0.51873  0.41069  0.42899  1.0000 0.1282322672
H   H56       1.0  0.48127  0.58931  0.57101  1.0000 0.1282322672
C   C1        1.0  0.83024  0.96863  0.07989  1.0000 0.0491913385
C   C2        1.0  0.16976  0.03137  0.92011  1.0000 0.0491913385
C   C3        1.0  0.16976  0.96863  0.42011  1.0000 0.0491913385
C   C4        1.0  0.83024  0.03137  0.57989  1.0000 0.0491913385
C   C5        1.0  0.33024  0.46863  0.07989  1.0000 0.0491913385
C   C6        1.0  0.66976  0.53137  0.92011  1.0000 0.0491913385
C   C7        1.0  0.66976  0.46863  0.42011  1.0000 0.0491913385
C   C8        1.0  0.33024  0.53137  0.57989  1.0000 0.0491913385
C   C9        1.0  0.75822  0.94710  0.10585  1.0000 -0.1253022612
C   C10       1.0  0.24178  0.05290  0.89415  1.0000 -0.1253022612
C   C11       1.0  0.24178  0.94710  0.39415  1.0000 -0.1253022612
C   C12       1.0  0.75822  0.05290  0.60585  1.0000 -0.1253022612
C   C13       1.0  0.25822  0.44710  0.10585  1.0000 -0.1253022612
C   C14       1.0  0.74178  0.55290  0.89415  1.0000 -0.1253022612
C   C15       1.0  0.74178  0.44710  0.39415  1.0000 -0.1253022612
C   C16       1.0  0.25822  0.55290  0.60585  1.0000 -0.1253022612
C   C17       1.0  0.73178  0.00063  0.16495  1.0000 -0.0056613185
C   C18       1.0  0.26822  0.99937  0.83505  1.0000 -0.0044200914
C   C19       1.0  0.26822  0.00063  0.33505  1.0000 -0.0044200914
C   C20       1.0  0.73178  0.99937  0.66495  1.0000 -0.0044200914
C   C21       1.0  0.23178  0.50063  0.16495  1.0000 -0.0056613185
C   C22       1.0  0.76822  0.49937  0.83505  1.0000 -0.0056613185
C   C23       1.0  0.76822  0.50063  0.33505  1.0000 -0.0056613185
C   C24       1.0  0.23178  0.49937  0.66495  1.0000 -0.0056613185
C   C25       1.0  0.77798  0.07902  0.19717  1.0000 -0.1000230373
C   C26       1.0  0.22202  0.92098  0.80283  1.0000 -0.1000230373
C   C27       1.0  0.22202  0.07902  0.30283  1.0000 -0.1000230373
C   C28       1.0  0.77798  0.92098  0.69717  1.0000 -0.1000230373
C   C29       1.0  0.27798  0.57902  0.19717  1.0000 -0.1000230373
C   C30       1.0  0.72202  0.42098  0.80283  1.0000 -0.1000230373
C   C31       1.0  0.72202  0.57902  0.30283  1.0000 -0.1000230373
C   C32       1.0  0.27798  0.42098  0.69717  1.0000 -0.1000230373
C   C33       1.0  0.84882  0.10430  0.16957  1.0000 -0.0206951825
C   C34       1.0  0.15118  0.89570  0.83043  1.0000 -0.0206951825
C   C35       1.0  0.15118  0.10430  0.33043  1.0000 -0.0206951825
C   C36       1.0  0.84882  0.89570  0.66957  1.0000 -0.0206951825
C   C37       1.0  0.34882  0.60430  0.16957  1.0000 -0.0206951825
C   C38       1.0  0.65118  0.39570  0.83043  1.0000 -0.0206951825
C   C39       1.0  0.65118  0.60430  0.33043  1.0000 -0.0206951825
C   C40       1.0  0.34882  0.39570  0.66957  1.0000 -0.0206951825
C   C41       1.0  0.87495  0.04794  0.11189  1.0000 -0.1378049538
C   C42       1.0  0.12505  0.95206  0.88811  1.0000 -0.1378049538
C   C43       1.0  0.12505  0.04794  0.38811  1.0000 -0.1378049538
C   C44       1.0  0.87495  0.95206  0.61189  1.0000 -0.1378049538
C   C45       1.0  0.37495  0.54794  0.11189  1.0000 -0.1378049538
C   C46       1.0  0.62505  0.45206  0.88811  1.0000 -0.1378049538
C   C47       1.0  0.62505  0.54794  0.38811  1.0000 -0.1378049538
C   C48       1.0  0.37495  0.45206  0.61189  1.0000 -0.1378049538
C   C49       1.0  0.86004  0.90624  0.02223  1.0000 0.1282322672
C   C50       1.0  0.13996  0.09376  0.97777  1.0000 0.1282322672
C   C51       1.0  0.13996  0.90624  0.47777  1.0000 0.1282322672
C   C52       1.0  0.86004  0.09376  0.52223  1.0000 0.1282322672
C   C53       1.0  0.36004  0.40624  0.02223  1.0000 0.1282322672
C   C54       1.0  0.63996  0.59376  0.97777  1.0000 0.1282322672
C   C55       1.0  0.63996  0.40624  0.47777  1.0000 0.1282322672
C   C56       1.0  0.36004  0.59376  0.52223  1.0000 0.1282322672
C   C57       1.0  0.81023  0.86571  0.96269  1.0000 -0.1805281234
C   C58       1.0  0.18977  0.13429  0.03731  1.0000 -0.1805281234
C   C59       1.0  0.18977  0.86571  0.53731  1.0000 -0.1805281234
C   C60       1.0  0.81023  0.13429  0.46269  1.0000 -0.1805281234
C   C61       1.0  0.31023  0.36571  0.96269  1.0000 -0.1805281234
C   C62       1.0  0.68977  0.63429  0.03731  1.0000 -0.1805281234
C   C63       1.0  0.68977  0.36571  0.53731  1.0000 -0.1805281234
C   C64       1.0  0.31023  0.63429  0.46269  1.0000 -0.1805281234
C   C65       1.0  0.84087  0.80335  0.91166  1.0000 0.1120299413
C   C66       1.0  0.15913  0.19665  0.08834  1.0000 0.1120299413
C   C67       1.0  0.15913  0.80335  0.58834  1.0000 0.1120299413
C   C68       1.0  0.84087  0.19665  0.41166  1.0000 0.1120299413
C   C69       1.0  0.34087  0.30335  0.91166  1.0000 0.1120299413
C   C70       1.0  0.65913  0.69665  0.08834  1.0000 0.1120299413
C   C71       1.0  0.65913  0.30335  0.58834  1.0000 0.1120299413
C   C72       1.0  0.34087  0.69665  0.41166  1.0000 0.1120299413
C   C73       1.0  0.96573  0.81893  0.97235  1.0000 0.1018022501
C   C74       1.0  0.03427  0.18107  0.02765  1.0000 0.1018022501
C   C75       1.0  0.03427  0.81893  0.52765  1.0000 0.1018022501
C   C76       1.0  0.96573  0.18107  0.47235  1.0000 0.1018022501
C   C77       1.0  0.46573  0.31893  0.97235  1.0000 0.1018022501
C   C78       1.0  0.53427  0.68107  0.02765  1.0000 0.1018022501
C   C79       1.0  0.53427  0.31893  0.52765  1.0000 0.1018022501
C   C80       1.0  0.46573  0.68107  0.47235  1.0000 0.1018022501
C   C81       1.0  0.93988  0.88221  0.02557  1.0000 -0.1892817677
C   C82       1.0  0.06012  0.11779  0.97443  1.0000 -0.1892817677
C   C83       1.0  0.06012  0.88221  0.47443  1.0000 -0.1892817677
C   C84       1.0  0.93988  0.11779  0.52557  1.0000 -0.1892817677
C   C85       1.0  0.43988  0.38221  0.02557  1.0000 -0.1892817677
C   C86       1.0  0.56012  0.61779  0.97443  1.0000 -0.1892817677
C   C87       1.0  0.56012  0.38221  0.47443  1.0000 -0.1892817677
C   C88       1.0  0.43988  0.61779  0.52557  1.0000 -0.1892817677
C   C89       1.0  0.65624  0.96750  0.19516  1.0000 0.5696630492
C   C90       1.0  0.34376  0.03250  0.80484  1.0000 0.5696630492
C   C91       1.0  0.34376  0.96750  0.30484  1.0000 0.5696630492
C   C92       1.0  0.65624  0.03250  0.69516  1.0000 0.5696630492
C   C93       1.0  0.15624  0.46750  0.19516  1.0000 0.5696630492
C   C94       1.0  0.84376  0.53250  0.80484  1.0000 0.5696630492
C   C95       1.0  0.84376  0.46750  0.30484  1.0000 0.5696630492
C   C96       1.0  0.15624  0.53250  0.69516  1.0000 0.5696630492
C   C97       1.0  0.89939  0.19008  0.19896  1.0000 0.5938559337
C   C98       1.0  0.10061  0.80992  0.80104  1.0000 0.5938559337
C   C99       1.0  0.10061  0.19008  0.30104  1.0000 0.5938559337
C   C100      1.0  0.89939  0.80992  0.69896  1.0000 0.5938559337
C   C101      1.0  0.39939  0.69008  0.19896  1.0000 0.5938559337
C   C102      1.0  0.60061  0.30992  0.80104  1.0000 0.5938559337
C   C103      1.0  0.60061  0.69008  0.30104  1.0000 0.5938559337
C   C104      1.0  0.39939  0.30992  0.69896  1.0000 0.5938559337
N   N1        1.0  0.91748  0.77880  0.91605  1.0000 -0.2123051831
N   N2        1.0  0.08252  0.22120  0.08395  1.0000 -0.2123051831
N   N3        1.0  0.08252  0.77880  0.58395  1.0000 -0.2123051831
N   N4        1.0  0.91748  0.22120  0.41605  1.0000 -0.2123051831
N   N5        1.0  0.41748  0.27880  0.91605  1.0000 -0.2123051831
N   N6        1.0  0.58252  0.72120  0.08395  1.0000 -0.2123051831
N   N7        1.0  0.58252  0.27880  0.58395  1.0000 -0.2123051831
N   N8        1.0  0.41748  0.72120  0.41605  1.0000 -0.2123051831
O   O1        1.0  0.61759  0.90037  0.15061  1.0000 -0.5725973831
O   O2        1.0  0.38241  0.09963  0.84939  1.0000 -0.5725973831
O   O3        1.0  0.38241  0.90037  0.34939  1.0000 -0.5725973831
O   O4        1.0  0.61759  0.09963  0.65061  1.0000 -0.5725973831
O   O5        1.0  0.11759  0.40037  0.15061  1.0000 -0.5725973831
O   O6        1.0  0.88241  0.59963  0.84939  1.0000 -0.5725973831
O   O7        1.0  0.88241  0.40037  0.34939  1.0000 -0.5725973831
O   O8        1.0  0.11759  0.59963  0.65061  1.0000 -0.5725973831
O   O9        1.0  0.63738  0.00113  0.25449  1.0000 -0.5112540038
O   O10       1.0  0.36262  0.99887  0.74551  1.0000 -0.5112540038
O   O11       1.0  0.36262  0.00113  0.24551  1.0000 -0.5112540038
O   O12       1.0  0.63738  0.99887  0.75449  1.0000 -0.5112540038
O   O13       1.0  0.13738  0.50113  0.25449  1.0000 -0.5112540038
O   O14       1.0  0.86262  0.49887  0.74551  1.0000 -0.5112540038
O   O15       1.0  0.86262  0.50113  0.24551  1.0000 -0.5112540038
O   O16       1.0  0.13738  0.49887  0.75449  1.0000 -0.5112540038
O   O17       1.0  0.95821  0.21206  0.16322  1.0000 -0.5764019625
O   O18       1.0  0.04179  0.78794  0.83678  1.0000 -0.5764019625
O   O19       1.0  0.04179  0.21206  0.33678  1.0000 -0.5764019625
O   O20       1.0  0.95821  0.78794  0.66322  1.0000 -0.5764019625
O   O21       1.0  0.45821  0.71206  0.16322  1.0000 -0.5764019625
O   O22       1.0  0.54179  0.28794  0.83678  1.0000 -0.5764019625
O   O23       1.0  0.54179  0.71206  0.33678  1.0000 -0.5764019625
O   O24       1.0  0.45821  0.28794  0.66322  1.0000 -0.5764019625
O   O25       1.0  0.87982  0.23501  0.25618  1.0000 -0.5112540038
O   O26       1.0  0.12018  0.76499  0.74382  1.0000 -0.5112540038
O   O27       1.0  0.12018  0.23501  0.24382  1.0000 -0.5112540038
O   O28       1.0  0.87982  0.76499  0.75618  1.0000 -0.5112540038
O   O29       1.0  0.37982  0.73501  0.25618  1.0000 -0.5112540038
O   O30       1.0  0.62018  0.26499  0.74382  1.0000 -0.5112540038
O   O31       1.0  0.62018  0.73501  0.24382  1.0000 -0.5112540038
O   O32       1.0  0.37982  0.26499  0.75618  1.0000 -0.5112540038
