# DDEC6 charges by PACMAN v1.1 (https://github.com/mtap-research/PACMAN-charge/)
data_2014[Mg][rob]3[ASR]1
_chemical_formula_sum              "Mg12 H96 C168 O60"
_cell_length_a       11.3748
_cell_length_b       22.0842
_cell_length_c       23.7111
_cell_angle_alpha    90
_cell_angle_beta     90
_cell_angle_gamma    90

_symmetry_space_group_name_H-M    "P 1"
_symmetry_Int_Tables_number       1

loop_
  _symmetry_equiv_pos_as_xyz
  'x, y, z'

loop_
  _atom_site_type_symbol
  _atom_site_label
  _atom_site_symmetry_multiplicity
  _atom_site_fract_x
  _atom_site_fract_y
  _atom_site_fract_z
  _atom_site_occupancy
  _atom_site_charge
Mg  Mg1       1.0  0.50000  0.00000  0.50000  1.0000 1.406198956
Mg  Mg2       1.0  0.00000  0.00000  0.00000  1.0000 1.406198956
Mg  Mg3       1.0  0.00000  0.50000  0.50000  1.0000 1.406198956
Mg  Mg4       1.0  0.50000  0.50000  0.00000  1.0000 1.406198956
Mg  Mg5       1.0  0.21110  0.00243  0.44058  1.0000 1.3458104058
Mg  Mg6       1.0  0.28890  0.00243  0.05942  1.0000 1.3458104058
Mg  Mg7       1.0  0.71110  0.49757  0.55942  1.0000 1.3458104058
Mg  Mg8       1.0  0.78890  0.49757  0.94058  1.0000 1.3458104058
Mg  Mg9       1.0  0.78890  0.99757  0.55942  1.0000 1.3458104058
Mg  Mg10      1.0  0.71110  0.99757  0.94058  1.0000 1.3458104058
Mg  Mg11      1.0  0.28890  0.50243  0.44058  1.0000 1.3458104058
Mg  Mg12      1.0  0.21110  0.50243  0.05942  1.0000 1.3458104058
H   H1        1.0  0.37550  0.82190  0.23220  1.0000 0.1202316975
H   H2        1.0  0.12450  0.82190  0.26780  1.0000 0.1202316975
H   H3        1.0  0.87550  0.67810  0.76780  1.0000 0.1202316975
H   H4        1.0  0.62450  0.67810  0.73220  1.0000 0.1202316975
H   H5        1.0  0.62450  0.17810  0.76780  1.0000 0.1202316975
H   H6        1.0  0.87550  0.17810  0.73220  1.0000 0.1202316975
H   H7        1.0  0.12450  0.32190  0.23220  1.0000 0.1202316975
H   H8        1.0  0.37550  0.32190  0.26780  1.0000 0.1202316975
H   H9        1.0  0.30770  0.88470  0.30310  1.0000 0.1202316975
H   H10       1.0  0.19230  0.88470  0.19690  1.0000 0.1202316975
H   H11       1.0  0.80770  0.61530  0.69690  1.0000 0.1202316975
H   H12       1.0  0.69230  0.61530  0.80310  1.0000 0.1202316975
H   H13       1.0  0.69230  0.11530  0.69690  1.0000 0.1202316975
H   H14       1.0  0.80770  0.11530  0.80310  1.0000 0.1202316975
H   H15       1.0  0.19230  0.38470  0.30310  1.0000 0.1202316975
H   H16       1.0  0.30770  0.38470  0.19690  1.0000 0.1202316975
H   H17       1.0  0.61480  0.86980  0.38360  1.0000 0.1202316975
H   H18       1.0  0.88520  0.86980  0.11640  1.0000 0.1202316975
H   H19       1.0  0.11480  0.63020  0.61640  1.0000 0.1202316975
H   H20       1.0  0.38520  0.63020  0.88360  1.0000 0.1202316975
H   H21       1.0  0.38520  0.13020  0.61640  1.0000 0.1202316975
H   H22       1.0  0.11480  0.13020  0.88360  1.0000 0.1202316975
H   H23       1.0  0.88520  0.36980  0.38360  1.0000 0.1202316975
H   H24       1.0  0.61480  0.36980  0.11640  1.0000 0.1202316975
H   H25       1.0  0.68140  0.80470  0.31470  1.0000 0.1393040418
H   H26       1.0  0.81860  0.80470  0.18530  1.0000 0.1393040418
H   H27       1.0  0.18140  0.69530  0.68530  1.0000 0.1393040418
H   H28       1.0  0.31860  0.69530  0.81470  1.0000 0.1393040418
H   H29       1.0  0.31860  0.19530  0.68530  1.0000 0.1393040418
H   H30       1.0  0.18140  0.19530  0.81470  1.0000 0.1393040418
H   H31       1.0  0.81860  0.30470  0.31470  1.0000 0.1393040418
H   H32       1.0  0.68140  0.30470  0.18530  1.0000 0.1393040418
H   H33       1.0  0.63690  0.75050  0.12410  1.0000 0.1295382632
H   H34       1.0  0.86310  0.75050  0.37590  1.0000 0.1295382632
H   H35       1.0  0.13690  0.74950  0.87590  1.0000 0.1295382632
H   H36       1.0  0.36310  0.74950  0.62410  1.0000 0.1295382632
H   H37       1.0  0.36310  0.24950  0.87590  1.0000 0.1295382632
H   H38       1.0  0.13690  0.24950  0.62410  1.0000 0.1295382632
H   H39       1.0  0.86310  0.25050  0.12410  1.0000 0.1295382632
H   H40       1.0  0.63690  0.25050  0.37590  1.0000 0.1295382632
H   H41       1.0  0.56110  0.67520  0.06640  1.0000 0.1202316975
H   H42       1.0  0.93890  0.67520  0.43360  1.0000 0.1202316975
H   H43       1.0  0.06110  0.82480  0.93360  1.0000 0.1202316975
H   H44       1.0  0.43890  0.82480  0.56640  1.0000 0.1202316975
H   H45       1.0  0.43890  0.32480  0.93360  1.0000 0.1202316975
H   H46       1.0  0.06110  0.32480  0.56640  1.0000 0.1202316975
H   H47       1.0  0.93890  0.17520  0.06640  1.0000 0.1202316975
H   H48       1.0  0.56110  0.17520  0.43360  1.0000 0.1202316975
H   H49       1.0  0.32920  0.63160  0.18620  1.0000 0.1202316975
H   H50       1.0  0.17080  0.63160  0.31380  1.0000 0.1202316975
H   H51       1.0  0.82920  0.86840  0.81380  1.0000 0.1202316975
H   H52       1.0  0.67080  0.86840  0.68620  1.0000 0.1202316975
H   H53       1.0  0.67080  0.36840  0.81380  1.0000 0.1202316975
H   H54       1.0  0.82920  0.36840  0.68620  1.0000 0.1202316975
H   H55       1.0  0.17080  0.13160  0.18620  1.0000 0.1202316975
H   H56       1.0  0.32920  0.13160  0.31380  1.0000 0.1202316975
H   H57       1.0  0.40730  0.70440  0.24490  1.0000 0.1202316975
H   H58       1.0  0.09270  0.70440  0.25510  1.0000 0.1295382632
H   H59       1.0  0.90730  0.79560  0.75510  1.0000 0.1202316975
H   H60       1.0  0.59270  0.79560  0.74490  1.0000 0.1202316975
H   H61       1.0  0.59270  0.29560  0.75510  1.0000 0.1202316975
H   H62       1.0  0.90730  0.29560  0.74490  1.0000 0.1202316975
H   H63       1.0  0.09270  0.20440  0.24490  1.0000 0.1295382632
H   H64       1.0  0.40730  0.20440  0.25510  1.0000 0.1202316975
H   H65       1.0  0.10140  0.82940  0.67180  1.0000 0.1295382632
H   H66       1.0  0.39860  0.82940  0.82820  1.0000 0.1295382632
H   H67       1.0  0.60140  0.67060  0.32820  1.0000 0.1295382632
H   H68       1.0  0.89860  0.67060  0.17180  1.0000 0.1295382632
H   H69       1.0  0.89860  0.17060  0.32820  1.0000 0.1295382632
H   H70       1.0  0.60140  0.17060  0.17180  1.0000 0.1295382632
H   H71       1.0  0.39860  0.32940  0.67180  1.0000 0.1295382632
H   H72       1.0  0.10140  0.32940  0.82820  1.0000 0.1295382632
H   H73       1.0  0.09630  0.87370  0.58330  1.0000 0.1202316975
H   H74       1.0  0.40370  0.87370  0.91670  1.0000 0.1202316975
H   H75       1.0  0.59630  0.62630  0.41670  1.0000 0.1202316975
H   H76       1.0  0.90370  0.62630  0.08330  1.0000 0.1202316975
H   H77       1.0  0.90370  0.12630  0.41670  1.0000 0.1202316975
H   H78       1.0  0.59630  0.12630  0.08330  1.0000 0.1202316975
H   H79       1.0  0.40370  0.37370  0.58330  1.0000 0.1202316975
H   H80       1.0  0.09630  0.37370  0.91670  1.0000 0.1202316975
H   H81       1.0  0.37210  0.97760  0.62330  1.0000 0.1202316975
H   H82       1.0  0.12790  0.97760  0.87670  1.0000 0.1202316975
H   H83       1.0  0.87210  0.52240  0.37670  1.0000 0.1202316975
H   H84       1.0  0.62790  0.52240  0.12330  1.0000 0.1202316975
H   H85       1.0  0.62790  0.02240  0.37670  1.0000 0.1202316975
H   H86       1.0  0.87210  0.02240  0.12330  1.0000 0.1202316975
H   H87       1.0  0.12790  0.47760  0.62330  1.0000 0.1202316975
H   H88       1.0  0.37210  0.47760  0.87670  1.0000 0.1202316975
H   H89       1.0  0.37830  0.93210  0.71230  1.0000 0.1295382632
H   H90       1.0  0.12170  0.93210  0.78770  1.0000 0.1295382632
H   H91       1.0  0.87830  0.56790  0.28770  1.0000 0.1295382632
H   H92       1.0  0.62170  0.56790  0.21230  1.0000 0.1295382632
H   H93       1.0  0.62170  0.06790  0.28770  1.0000 0.1295382632
H   H94       1.0  0.87830  0.06790  0.21230  1.0000 0.1295382632
H   H95       1.0  0.12170  0.43210  0.71230  1.0000 0.1295382632
H   H96       1.0  0.37830  0.43210  0.78770  1.0000 0.1295382632
C   C1        1.0  0.53620  0.80840  0.26650  1.0000 0.2453031167
C   C2        1.0  0.96380  0.80840  0.23350  1.0000 0.2453031167
C   C3        1.0  0.03620  0.69160  0.73350  1.0000 0.2453031167
C   C4        1.0  0.46380  0.69160  0.76650  1.0000 0.2453031167
C   C5        1.0  0.46380  0.19160  0.73350  1.0000 0.2453031167
C   C6        1.0  0.03620  0.19160  0.76650  1.0000 0.2453031167
C   C7        1.0  0.96380  0.30840  0.26650  1.0000 0.2453031167
C   C8        1.0  0.53620  0.30840  0.23350  1.0000 0.2453031167
C   C9        1.0  0.42350  0.83160  0.26270  1.0000 -0.2203449322
C   C10       1.0  0.07650  0.83160  0.23730  1.0000 -0.2203449322
C   C11       1.0  0.92350  0.66840  0.73730  1.0000 -0.2203449322
C   C12       1.0  0.57650  0.66840  0.76270  1.0000 -0.2203449322
C   C13       1.0  0.57650  0.16840  0.73730  1.0000 -0.2203449322
C   C14       1.0  0.92350  0.16840  0.76270  1.0000 -0.2203449322
C   C15       1.0  0.07650  0.33160  0.26270  1.0000 -0.2203449322
C   C16       1.0  0.42350  0.33160  0.23730  1.0000 -0.2203449322
C   C17       1.0  0.38370  0.86940  0.30509  1.0000 -0.0778062316
C   C18       1.0  0.11630  0.86940  0.19491  1.0000 -0.0778062316
C   C19       1.0  0.88370  0.63060  0.69491  1.0000 -0.0778062316
C   C20       1.0  0.61630  0.63060  0.80509  1.0000 -0.0778062316
C   C21       1.0  0.61630  0.13060  0.69491  1.0000 -0.0778062316
C   C22       1.0  0.88370  0.13060  0.80509  1.0000 -0.0778062316
C   C23       1.0  0.11630  0.36940  0.30509  1.0000 -0.0778062316
C   C24       1.0  0.38370  0.36940  0.19491  1.0000 -0.0778062316
C   C25       1.0  0.45460  0.88497  0.35061  1.0000 -0.0432957411
C   C26       1.0  0.04540  0.88497  0.14939  1.0000 -0.0432957411
C   C27       1.0  0.95460  0.61503  0.64939  1.0000 -0.0432957411
C   C28       1.0  0.54540  0.61503  0.85061  1.0000 -0.0432957411
C   C29       1.0  0.54540  0.11503  0.64939  1.0000 -0.0432957411
C   C30       1.0  0.95460  0.11503  0.85061  1.0000 -0.0432957411
C   C31       1.0  0.04540  0.38497  0.35061  1.0000 -0.0432957411
C   C32       1.0  0.45460  0.38497  0.14939  1.0000 -0.0432957411
C   C33       1.0  0.56630  0.86020  0.35332  1.0000 -0.0778062316
C   C34       1.0  0.93370  0.86020  0.14668  1.0000 -0.0778062316
C   C35       1.0  0.06630  0.63980  0.64668  1.0000 -0.0778062316
C   C36       1.0  0.43370  0.63980  0.85332  1.0000 -0.0778062316
C   C37       1.0  0.43370  0.13980  0.64668  1.0000 -0.0778062316
C   C38       1.0  0.06630  0.13980  0.85332  1.0000 -0.0778062316
C   C39       1.0  0.93370  0.36020  0.35332  1.0000 -0.0778062316
C   C40       1.0  0.56630  0.36020  0.14668  1.0000 -0.0778062316
C   C41       1.0  0.60680  0.82160  0.31190  1.0000 -0.2088550721
C   C42       1.0  0.89320  0.82160  0.18810  1.0000 -0.2088550721
C   C43       1.0  0.10680  0.67840  0.68810  1.0000 -0.2088550721
C   C44       1.0  0.39320  0.67840  0.81190  1.0000 -0.2088550721
C   C45       1.0  0.39320  0.17840  0.68810  1.0000 -0.2088550721
C   C46       1.0  0.10680  0.17840  0.81190  1.0000 -0.2088550721
C   C47       1.0  0.89320  0.32160  0.31190  1.0000 -0.2088550721
C   C48       1.0  0.60680  0.32160  0.18810  1.0000 -0.2088550721
C   C49       1.0  0.52980  0.73420  0.19010  1.0000 0.2393458336
C   C50       1.0  0.97020  0.73420  0.30990  1.0000 0.2393458336
C   C51       1.0  0.02980  0.76580  0.80990  1.0000 0.2393458336
C   C52       1.0  0.47020  0.76580  0.69010  1.0000 0.2393458336
C   C53       1.0  0.47020  0.26580  0.80990  1.0000 0.2393458336
C   C54       1.0  0.02980  0.26580  0.69010  1.0000 0.2393458336
C   C55       1.0  0.97020  0.23420  0.19010  1.0000 0.2393458336
C   C56       1.0  0.52980  0.23420  0.30990  1.0000 0.2393458336
C   C57       1.0  0.57580  0.72600  0.13680  1.0000 -0.2013606672
C   C58       1.0  0.92420  0.72600  0.36320  1.0000 -0.2013606672
C   C59       1.0  0.07580  0.77400  0.86320  1.0000 -0.2013606672
C   C60       1.0  0.42420  0.77400  0.63680  1.0000 -0.2013606672
C   C61       1.0  0.42420  0.27400  0.86320  1.0000 -0.2013606672
C   C62       1.0  0.07580  0.27400  0.63680  1.0000 -0.2013606672
C   C63       1.0  0.92420  0.22600  0.13680  1.0000 -0.2013606672
C   C64       1.0  0.57580  0.22600  0.36320  1.0000 -0.2013606672
C   C65       1.0  0.53000  0.68100  0.10228  1.0000 -0.0732723549
C   C66       1.0  0.97000  0.68100  0.39772  1.0000 -0.0732723549
C   C67       1.0  0.03000  0.81900  0.89772  1.0000 -0.0732723549
C   C68       1.0  0.47000  0.81900  0.60228  1.0000 -0.0732723549
C   C69       1.0  0.47000  0.31900  0.89772  1.0000 -0.0732723549
C   C70       1.0  0.03000  0.31900  0.60228  1.0000 -0.0732723549
C   C71       1.0  0.97000  0.18100  0.10228  1.0000 -0.0732723549
C   C72       1.0  0.53000  0.18100  0.39772  1.0000 -0.0732723549
C   C73       1.0  0.43860  0.64480  0.12077  1.0000 -0.0432957411
C   C74       1.0  0.06140  0.64480  0.37923  1.0000 -0.0432957411
C   C75       1.0  0.93860  0.85520  0.87923  1.0000 -0.0432957411
C   C76       1.0  0.56140  0.85520  0.62077  1.0000 -0.0432957411
C   C77       1.0  0.56140  0.35520  0.87923  1.0000 -0.0432957411
C   C78       1.0  0.93860  0.35520  0.62077  1.0000 -0.0432957411
C   C79       1.0  0.06140  0.14480  0.12077  1.0000 -0.0432957411
C   C80       1.0  0.43860  0.14480  0.37923  1.0000 -0.0432957411
C   C81       1.0  0.39230  0.65480  0.17390  1.0000 -0.0778062316
C   C82       1.0  0.10770  0.65480  0.32610  1.0000 -0.0778062316
C   C83       1.0  0.89230  0.84520  0.82610  1.0000 -0.0778062316
C   C84       1.0  0.60770  0.84520  0.67390  1.0000 -0.0778062316
C   C85       1.0  0.60770  0.34520  0.82610  1.0000 -0.0778062316
C   C86       1.0  0.89230  0.34520  0.67390  1.0000 -0.0778062316
C   C87       1.0  0.10770  0.15480  0.17390  1.0000 -0.0778062316
C   C88       1.0  0.39230  0.15480  0.32610  1.0000 -0.0778062316
C   C89       1.0  0.43800  0.69880  0.20890  1.0000 -0.2203449322
C   C90       1.0  0.06200  0.69880  0.29110  1.0000 -0.2203449322
C   C91       1.0  0.93800  0.80120  0.79110  1.0000 -0.2203449322
C   C92       1.0  0.56200  0.80120  0.70890  1.0000 -0.2203449322
C   C93       1.0  0.56200  0.30120  0.79110  1.0000 -0.2203449322
C   C94       1.0  0.93800  0.30120  0.70890  1.0000 -0.2203449322
C   C95       1.0  0.06200  0.19880  0.20890  1.0000 -0.2203449322
C   C96       1.0  0.43800  0.19880  0.29110  1.0000 -0.2203449322
C   C97       1.0  0.41230  0.92730  0.39573  1.0000 0.628819786
C   C98       1.0  0.08770  0.92730  0.10427  1.0000 0.628819786
C   C99       1.0  0.91230  0.57270  0.60427  1.0000 0.628819786
C   C100      1.0  0.58770  0.57270  0.89573  1.0000 0.628819786
C   C101      1.0  0.58770  0.07270  0.60427  1.0000 0.628819786
C   C102      1.0  0.91230  0.07270  0.89573  1.0000 0.628819786
C   C103      1.0  0.08770  0.42730  0.39573  1.0000 0.628819786
C   C104      1.0  0.41230  0.42730  0.10427  1.0000 0.628819786
C   C105      1.0  0.39500  0.59340  0.08419  1.0000 0.628819786
C   C106      1.0  0.10500  0.59340  0.41581  1.0000 0.628819786
C   C107      1.0  0.89500  0.90660  0.91581  1.0000 0.628819786
C   C108      1.0  0.60500  0.90660  0.58419  1.0000 0.628819786
C   C109      1.0  0.60500  0.40660  0.91581  1.0000 0.628819786
C   C110      1.0  0.89500  0.40660  0.58419  1.0000 0.628819786
C   C111      1.0  0.10500  0.09340  0.08419  1.0000 0.628819786
C   C112      1.0  0.39500  0.09340  0.41581  1.0000 0.628819786
C   C113      1.0  0.24190  0.87670  0.69938  1.0000 0.2393458336
C   C114      1.0  0.25810  0.87670  0.80062  1.0000 0.2393458336
C   C115      1.0  0.74190  0.62330  0.30062  1.0000 0.2393458336
C   C116      1.0  0.75810  0.62330  0.19938  1.0000 0.2393458336
C   C117      1.0  0.75810  0.12330  0.30062  1.0000 0.2393458336
C   C118      1.0  0.74190  0.12330  0.19938  1.0000 0.2393458336
C   C119      1.0  0.25810  0.37670  0.69938  1.0000 0.2393458336
C   C120      1.0  0.24190  0.37670  0.80062  1.0000 0.2393458336
C   C121      1.0  0.15620  0.85880  0.66190  1.0000 -0.2088550721
C   C122      1.0  0.34380  0.85880  0.83810  1.0000 -0.2088550721
C   C123      1.0  0.65620  0.64120  0.33810  1.0000 -0.2088550721
C   C124      1.0  0.84380  0.64120  0.16190  1.0000 -0.2088550721
C   C125      1.0  0.84380  0.14120  0.33810  1.0000 -0.2088550721
C   C126      1.0  0.65620  0.14120  0.16190  1.0000 -0.2088550721
C   C127      1.0  0.34380  0.35880  0.66190  1.0000 -0.2088550721
C   C128      1.0  0.15620  0.35880  0.83810  1.0000 -0.2088550721
C   C129      1.0  0.15360  0.88540  0.60912  1.0000 -0.0778062316
C   C130      1.0  0.34640  0.88540  0.89088  1.0000 -0.0778062316
C   C131      1.0  0.65360  0.61460  0.39088  1.0000 -0.0778062316
C   C132      1.0  0.84640  0.61460  0.10912  1.0000 -0.0778062316
C   C133      1.0  0.84640  0.11460  0.39088  1.0000 -0.0778062316
C   C134      1.0  0.65360  0.11460  0.10912  1.0000 -0.0778062316
C   C135      1.0  0.34640  0.38540  0.60912  1.0000 -0.0778062316
C   C136      1.0  0.15360  0.38540  0.89088  1.0000 -0.0778062316
C   C137      1.0  0.23460  0.92918  0.59408  1.0000 -0.04552361
C   C138      1.0  0.26540  0.92918  0.90592  1.0000 -0.04552361
C   C139      1.0  0.73460  0.57082  0.40592  1.0000 -0.04552361
C   C140      1.0  0.76540  0.57082  0.09408  1.0000 -0.04552361
C   C141      1.0  0.76540  0.07082  0.40592  1.0000 -0.04552361
C   C142      1.0  0.73460  0.07082  0.09408  1.0000 -0.04552361
C   C143      1.0  0.26540  0.42918  0.59408  1.0000 -0.04552361
C   C144      1.0  0.23460  0.42918  0.90592  1.0000 -0.04552361
C   C145      1.0  0.31840  0.94750  0.63268  1.0000 -0.0778062316
C   C146      1.0  0.18160  0.94750  0.86732  1.0000 -0.0778062316
C   C147      1.0  0.81840  0.55250  0.36732  1.0000 -0.0778062316
C   C148      1.0  0.68160  0.55250  0.13268  1.0000 -0.0778062316
C   C149      1.0  0.68160  0.05250  0.36732  1.0000 -0.0778062316
C   C150      1.0  0.81840  0.05250  0.13268  1.0000 -0.0778062316
C   C151      1.0  0.18160  0.44750  0.63268  1.0000 -0.0778062316
C   C152      1.0  0.31840  0.44750  0.86732  1.0000 -0.0778062316
C   C153      1.0  0.32190  0.92030  0.68613  1.0000 -0.2013606672
C   C154      1.0  0.17810  0.92030  0.81387  1.0000 -0.2013606672
C   C155      1.0  0.82190  0.57970  0.31387  1.0000 -0.2013606672
C   C156      1.0  0.67810  0.57970  0.18613  1.0000 -0.2013606672
C   C157      1.0  0.67810  0.07970  0.31387  1.0000 -0.2013606672
C   C158      1.0  0.82190  0.07970  0.18613  1.0000 -0.2013606672
C   C159      1.0  0.17810  0.42030  0.68613  1.0000 -0.2013606672
C   C160      1.0  0.32190  0.42030  0.81387  1.0000 -0.2013606672
C   C161      1.0  0.23170  0.95454  0.53608  1.0000 0.5936562791
C   C162      1.0  0.26830  0.95454  0.96392  1.0000 0.5936562791
C   C163      1.0  0.73170  0.54546  0.46392  1.0000 0.5936562791
C   C164      1.0  0.76830  0.54546  0.03608  1.0000 0.5936562791
C   C165      1.0  0.76830  0.04546  0.46392  1.0000 0.5936562791
C   C166      1.0  0.73170  0.04546  0.03608  1.0000 0.5936562791
C   C167      1.0  0.26830  0.45454  0.53608  1.0000 0.5936562791
C   C168      1.0  0.23170  0.45454  0.96392  1.0000 0.5936562791
O   O1        1.0  0.30360  0.93898  0.39669  1.0000 -0.6672678218
O   O2        1.0  0.19640  0.93898  0.10331  1.0000 -0.6672678218
O   O3        1.0  0.80360  0.56102  0.60331  1.0000 -0.6672678218
O   O4        1.0  0.69640  0.56102  0.89669  1.0000 -0.6672678218
O   O5        1.0  0.69640  0.06102  0.60331  1.0000 -0.6672678218
O   O6        1.0  0.80360  0.06102  0.89669  1.0000 -0.6672678218
O   O7        1.0  0.19640  0.43898  0.39669  1.0000 -0.6672678218
O   O8        1.0  0.30360  0.43898  0.10331  1.0000 -0.6672678218
O   O9        1.0  0.48760  0.94825  0.42842  1.0000 -0.6221345291
O   O10       1.0  0.01240  0.94825  0.07158  1.0000 -0.6221345291
O   O11       1.0  0.98760  0.55175  0.57158  1.0000 -0.6221345291
O   O12       1.0  0.51240  0.55175  0.92842  1.0000 -0.6221345291
O   O13       1.0  0.51240  0.05175  0.57158  1.0000 -0.6221345291
O   O14       1.0  0.98760  0.05175  0.92842  1.0000 -0.6221345291
O   O15       1.0  0.01240  0.44825  0.42842  1.0000 -0.6221345291
O   O16       1.0  0.48760  0.44825  0.07158  1.0000 -0.6221345291
O   O17       1.0  0.45950  0.57717  0.04413  1.0000 -0.6419930086
O   O18       1.0  0.04050  0.57717  0.45587  1.0000 -0.6419930086
O   O19       1.0  0.95950  0.92283  0.95587  1.0000 -0.6419930086
O   O20       1.0  0.54050  0.92283  0.54413  1.0000 -0.6419930086
O   O21       1.0  0.54050  0.42283  0.95587  1.0000 -0.6419930086
O   O22       1.0  0.95950  0.42283  0.54413  1.0000 -0.6419930086
O   O23       1.0  0.04050  0.07717  0.04413  1.0000 -0.6419930086
O   O24       1.0  0.45950  0.07717  0.45587  1.0000 -0.6419930086
O   O25       1.0  0.29790  0.57057  0.09725  1.0000 -0.683290504
O   O26       1.0  0.20210  0.57057  0.40275  1.0000 -0.683290504
O   O27       1.0  0.79790  0.92943  0.90275  1.0000 -0.683290504
O   O28       1.0  0.70210  0.92943  0.59725  1.0000 -0.683290504
O   O29       1.0  0.70210  0.42943  0.90275  1.0000 -0.683290504
O   O30       1.0  0.79790  0.42943  0.59725  1.0000 -0.683290504
O   O31       1.0  0.20210  0.07057  0.09725  1.0000 -0.683290504
O   O32       1.0  0.29790  0.07057  0.40275  1.0000 -0.683290504
O   O33       1.0  0.58900  0.77603  0.22307  1.0000 -0.2203449322
O   O34       1.0  0.91100  0.77603  0.27693  1.0000 -0.2203449322
O   O35       1.0  0.08900  0.72397  0.77693  1.0000 -0.2203449322
O   O36       1.0  0.41100  0.72397  0.72307  1.0000 -0.2203449322
O   O37       1.0  0.41100  0.22397  0.77693  1.0000 -0.2203449322
O   O38       1.0  0.08900  0.22397  0.72307  1.0000 -0.2203449322
O   O39       1.0  0.91100  0.27603  0.22307  1.0000 -0.2203449322
O   O40       1.0  0.58900  0.27603  0.27693  1.0000 -0.2203449322
O   O41       1.0  0.31400  0.98837  0.51786  1.0000 -0.683290504
O   O42       1.0  0.18600  0.98837  0.98214  1.0000 -0.683290504
O   O43       1.0  0.81400  0.51163  0.48214  1.0000 -0.683290504
O   O44       1.0  0.68600  0.51163  0.01786  1.0000 -0.683290504
O   O45       1.0  0.68600  0.01163  0.48214  1.0000 -0.683290504
O   O46       1.0  0.81400  0.01163  0.01786  1.0000 -0.683290504
O   O47       1.0  0.18600  0.48837  0.51786  1.0000 -0.683290504
O   O48       1.0  0.31400  0.48837  0.98214  1.0000 -0.683290504
O   O49       1.0  0.14630  0.94253  0.50442  1.0000 -0.6221345291
O   O50       1.0  0.35370  0.94253  0.99558  1.0000 -0.6221345291
O   O51       1.0  0.64630  0.55747  0.49558  1.0000 -0.6221345291
O   O52       1.0  0.85370  0.55747  0.00442  1.0000 -0.6221345291
O   O53       1.0  0.85370  0.05747  0.49558  1.0000 -0.6221345291
O   O54       1.0  0.64630  0.05747  0.00442  1.0000 -0.6221345291
O   O55       1.0  0.35370  0.44253  0.50442  1.0000 -0.6221345291
O   O56       1.0  0.14630  0.44253  0.99558  1.0000 -0.6221345291
O   O57       1.0  0.25000  0.84420  0.75000  1.0000 -0.2406075895
O   O58       1.0  0.75000  0.65580  0.25000  1.0000 -0.2406075895
O   O59       1.0  0.75000  0.15580  0.25000  1.0000 -0.2406075895
O   O60       1.0  0.25000  0.34420  0.75000  1.0000 -0.2406075895
