# DDEC6 charges by PACMAN v1.1 (https://github.com/mtap-research/PACMAN-charge/)
data_2014[Cu][nan]3[ASR]26
_chemical_formula_sum              "Cu12 H120 C216 O48"
_cell_length_a       23.3446
_cell_length_b       23.3446
_cell_length_c       23.3446
_cell_angle_alpha    109.471
_cell_angle_beta     109.471
_cell_angle_gamma    109.471

_symmetry_space_group_name_H-M    "P 1"
_symmetry_Int_Tables_number       1

loop_
  _symmetry_equiv_pos_as_xyz
  'x, y, z'

loop_
  _atom_site_type_symbol
  _atom_site_label
  _atom_site_symmetry_multiplicity
  _atom_site_fract_x
  _atom_site_fract_y
  _atom_site_fract_z
  _atom_site_occupancy
  _atom_site_charge
Cu  Cu1       1.0  0.14396  0.64396  0.50000  1.0000 0.8408920468
Cu  Cu2       1.0  0.50000  0.14396  0.64396  1.0000 0.8408920468
Cu  Cu3       1.0  0.64396  0.50000  0.14396  1.0000 0.8408920468
Cu  Cu4       1.0  0.35604  0.50000  0.85604  1.0000 0.8408920468
Cu  Cu5       1.0  0.50000  0.85604  0.35604  1.0000 0.8408920468
Cu  Cu6       1.0  0.85604  0.35604  0.50000  1.0000 0.8408920468
Cu  Cu7       1.0  0.24020  0.74020  0.50000  1.0000 0.8619333208
Cu  Cu8       1.0  0.50000  0.24020  0.74020  1.0000 0.8619333208
Cu  Cu9       1.0  0.74020  0.50000  0.24020  1.0000 0.8619333208
Cu  Cu10      1.0  0.25980  0.50000  0.75980  1.0000 0.8619333208
Cu  Cu11      1.0  0.50000  0.75980  0.25980  1.0000 0.8619333208
Cu  Cu12      1.0  0.75980  0.25980  0.50000  1.0000 0.8619333208
H   H1        1.0  0.21640  0.49150  0.47090  1.0000 0.1259114486
H   H2        1.0  0.47090  0.21640  0.49150  1.0000 0.1259114486
H   H3        1.0  0.49150  0.47090  0.21640  1.0000 0.1259114486
H   H4        1.0  0.25450  0.27510  0.78360  1.0000 0.1259114486
H   H5        1.0  0.52910  0.02060  0.74550  1.0000 0.1259114486
H   H6        1.0  0.74550  0.52910  0.02060  1.0000 0.1259114486
H   H7        1.0  0.72490  0.97940  0.50850  1.0000 0.1259114486
H   H8        1.0  0.27510  0.78360  0.25450  1.0000 0.1259114486
H   H9        1.0  0.50850  0.72490  0.97940  1.0000 0.1259114486
H   H10       1.0  0.02060  0.74550  0.52910  1.0000 0.1259114486
H   H11       1.0  0.78360  0.25450  0.27510  1.0000 0.1259114486
H   H12       1.0  0.97940  0.50850  0.72490  1.0000 0.1259114486
H   H13       1.0  0.78360  0.50850  0.52910  1.0000 0.1259114486
H   H14       1.0  0.52910  0.78360  0.50850  1.0000 0.1259114486
H   H15       1.0  0.50850  0.52910  0.78360  1.0000 0.1259114486
H   H16       1.0  0.74550  0.72490  0.21640  1.0000 0.1259114486
H   H17       1.0  0.47090  0.97940  0.25450  1.0000 0.1259114486
H   H18       1.0  0.25450  0.47090  0.97940  1.0000 0.1259114486
H   H19       1.0  0.27510  0.02060  0.49150  1.0000 0.1259114486
H   H20       1.0  0.72490  0.21640  0.74550  1.0000 0.1259114486
H   H21       1.0  0.49150  0.27510  0.02060  1.0000 0.1259114486
H   H22       1.0  0.97940  0.25450  0.47090  1.0000 0.1259114486
H   H23       1.0  0.21640  0.74550  0.72490  1.0000 0.1259114486
H   H24       1.0  0.02060  0.49150  0.27510  1.0000 0.1259114486
H   H25       1.0  0.40900  0.57850  0.44330  1.0000 0.1127347717
H   H26       1.0  0.44330  0.40900  0.57850  1.0000 0.1127347717
H   H27       1.0  0.57850  0.44330  0.40900  1.0000 0.1127347717
H   H28       1.0  0.03430  0.16950  0.59100  1.0000 0.1127347717
H   H29       1.0  0.55670  0.13520  0.96570  1.0000 0.1127347717
H   H30       1.0  0.96570  0.55670  0.13520  1.0000 0.1127347717
H   H31       1.0  0.83050  0.86480  0.42150  1.0000 0.1127347717
H   H32       1.0  0.16950  0.59100  0.03430  1.0000 0.1127347717
H   H33       1.0  0.42150  0.83050  0.86480  1.0000 0.1127347717
H   H34       1.0  0.13520  0.96570  0.55670  1.0000 0.1127347717
H   H35       1.0  0.59100  0.03430  0.16950  1.0000 0.1127347717
H   H36       1.0  0.86480  0.42150  0.83050  1.0000 0.1127347717
H   H37       1.0  0.59100  0.42150  0.55670  1.0000 0.1127347717
H   H38       1.0  0.55670  0.59100  0.42150  1.0000 0.1127347717
H   H39       1.0  0.42150  0.55670  0.59100  1.0000 0.1127347717
H   H40       1.0  0.96570  0.83050  0.40900  1.0000 0.1127347717
H   H41       1.0  0.44330  0.86480  0.03430  1.0000 0.1127347717
H   H42       1.0  0.03430  0.44330  0.86480  1.0000 0.1127347717
H   H43       1.0  0.16950  0.13520  0.57850  1.0000 0.1127347717
H   H44       1.0  0.83050  0.40900  0.96570  1.0000 0.1127347717
H   H45       1.0  0.57850  0.16950  0.13520  1.0000 0.1127347717
H   H46       1.0  0.86480  0.03430  0.44330  1.0000 0.1127347717
H   H47       1.0  0.40900  0.96570  0.83050  1.0000 0.1127347717
H   H48       1.0  0.13520  0.57850  0.16950  1.0000 0.1127347717
H   H49       1.0  0.26640  0.42200  0.44360  1.0000 0.1198508591
H   H50       1.0  0.44360  0.26640  0.42200  1.0000 0.1198508591
H   H51       1.0  0.42200  0.44360  0.26640  1.0000 0.1198508591
H   H52       1.0  0.17720  0.15560  0.73360  1.0000 0.1198508591
H   H53       1.0  0.55640  0.97840  0.82280  1.0000 0.1198508591
H   H54       1.0  0.82280  0.55640  0.97840  1.0000 0.1198508591
H   H55       1.0  0.84440  0.02160  0.57800  1.0000 0.1198508591
H   H56       1.0  0.15560  0.73360  0.17720  1.0000 0.1198508591
H   H57       1.0  0.57800  0.84440  0.02160  1.0000 0.1198508591
H   H58       1.0  0.97840  0.82280  0.55640  1.0000 0.1198508591
H   H59       1.0  0.73360  0.17720  0.15560  1.0000 0.1198508591
H   H60       1.0  0.02160  0.57800  0.84440  1.0000 0.1198508591
H   H61       1.0  0.73360  0.57800  0.55640  1.0000 0.1198508591
H   H62       1.0  0.55640  0.73360  0.57800  1.0000 0.1198508591
H   H63       1.0  0.57800  0.55640  0.73360  1.0000 0.1198508591
H   H64       1.0  0.82280  0.84440  0.26640  1.0000 0.1198508591
H   H65       1.0  0.44360  0.02160  0.17720  1.0000 0.1198508591
H   H66       1.0  0.17720  0.44360  0.02160  1.0000 0.1198508591
H   H67       1.0  0.15560  0.97840  0.42200  1.0000 0.1198508591
H   H68       1.0  0.84440  0.26640  0.82280  1.0000 0.1198508591
H   H69       1.0  0.42200  0.15560  0.97840  1.0000 0.1198508591
H   H70       1.0  0.02160  0.17720  0.44360  1.0000 0.1198508591
H   H71       1.0  0.26640  0.82280  0.84440  1.0000 0.1198508591
H   H72       1.0  0.97840  0.42200  0.15560  1.0000 0.1198508591
H   H73       1.0  0.36130  0.64690  0.47500  1.0000 0.1259114486
H   H74       1.0  0.47500  0.36130  0.64690  1.0000 0.1259114486
H   H75       1.0  0.64690  0.47500  0.36130  1.0000 0.1259114486
H   H76       1.0  0.11370  0.28560  0.63870  1.0000 0.1259114486
H   H77       1.0  0.52500  0.17190  0.88630  1.0000 0.1259114486
H   H78       1.0  0.88630  0.52500  0.17190  1.0000 0.1259114486
H   H79       1.0  0.71440  0.82810  0.35310  1.0000 0.1259114486
H   H80       1.0  0.28560  0.63870  0.11370  1.0000 0.1259114486
H   H81       1.0  0.35310  0.71440  0.82810  1.0000 0.1259114486
H   H82       1.0  0.17190  0.88630  0.52500  1.0000 0.1259114486
H   H83       1.0  0.63870  0.11370  0.28560  1.0000 0.1259114486
H   H84       1.0  0.82810  0.35310  0.71440  1.0000 0.1259114486
H   H85       1.0  0.63870  0.35310  0.52500  1.0000 0.1259114486
H   H86       1.0  0.52500  0.63870  0.35310  1.0000 0.1259114486
H   H87       1.0  0.35310  0.52500  0.63870  1.0000 0.1259114486
H   H88       1.0  0.88630  0.71440  0.36130  1.0000 0.1259114486
H   H89       1.0  0.47500  0.82810  0.11370  1.0000 0.1259114486
H   H90       1.0  0.11370  0.47500  0.82810  1.0000 0.1259114486
H   H91       1.0  0.28560  0.17190  0.64690  1.0000 0.1259114486
H   H92       1.0  0.71440  0.36130  0.88630  1.0000 0.1259114486
H   H93       1.0  0.64690  0.28560  0.17190  1.0000 0.1259114486
H   H94       1.0  0.82810  0.11370  0.47500  1.0000 0.1259114486
H   H95       1.0  0.36130  0.88630  0.71440  1.0000 0.1259114486
H   H96       1.0  0.17190  0.64690  0.28560  1.0000 0.1259114486
H   H97       1.0  0.40500  0.48330  0.36330  1.0000 0.1127347717
H   H98       1.0  0.36330  0.40500  0.48330  1.0000 0.1127347717
H   H99       1.0  0.48330  0.36330  0.40500  1.0000 0.1127347717
H   H100      1.0  0.95830  0.07830  0.59500  1.0000 0.1127347717
H   H101      1.0  0.63670  0.12000  0.04170  1.0000 0.1127347717
H   H102      1.0  0.04170  0.63670  0.12000  1.0000 0.1127347717
H   H103      1.0  0.92170  0.88000  0.51670  1.0000 0.1127347717
H   H104      1.0  0.07830  0.59500  0.95830  1.0000 0.1127347717
H   H105      1.0  0.51670  0.92170  0.88000  1.0000 0.1127347717
H   H106      1.0  0.12000  0.04170  0.63670  1.0000 0.1127347717
H   H107      1.0  0.59500  0.95830  0.07830  1.0000 0.1127347717
H   H108      1.0  0.88000  0.51670  0.92170  1.0000 0.1127347717
H   H109      1.0  0.59500  0.51670  0.63670  1.0000 0.1127347717
H   H110      1.0  0.63670  0.59500  0.51670  1.0000 0.1127347717
H   H111      1.0  0.51670  0.63670  0.59500  1.0000 0.1127347717
H   H112      1.0  0.04170  0.92170  0.40500  1.0000 0.1127347717
H   H113      1.0  0.36330  0.88000  0.95830  1.0000 0.1127347717
H   H114      1.0  0.95830  0.36330  0.88000  1.0000 0.1127347717
H   H115      1.0  0.07830  0.12000  0.48330  1.0000 0.1127347717
H   H116      1.0  0.92170  0.40500  0.04170  1.0000 0.1127347717
H   H117      1.0  0.48330  0.07830  0.12000  1.0000 0.1127347717
H   H118      1.0  0.88000  0.95830  0.36330  1.0000 0.1127347717
H   H119      1.0  0.40500  0.04170  0.92170  1.0000 0.1127347717
H   H120      1.0  0.12000  0.48330  0.07830  1.0000 0.1127347717
C   C1        1.0  0.34260  0.49150  0.43950  1.0000 0.0760520811
C   C2        1.0  0.43950  0.34260  0.49150  1.0000 0.0760520811
C   C3        1.0  0.49150  0.43950  0.34260  1.0000 0.0760520811
C   C4        1.0  0.09690  0.14890  0.65740  1.0000 0.0760520811
C   C5        1.0  0.56050  0.05200  0.90310  1.0000 0.0760520811
C   C6        1.0  0.90310  0.56050  0.05200  1.0000 0.0760520811
C   C7        1.0  0.85110  0.94800  0.50850  1.0000 0.0760520811
C   C8        1.0  0.14890  0.65740  0.09690  1.0000 0.0760520811
C   C9        1.0  0.50850  0.85110  0.94800  1.0000 0.0760520811
C   C10       1.0  0.05200  0.90310  0.56050  1.0000 0.0760520811
C   C11       1.0  0.65740  0.09690  0.14890  1.0000 0.0760520811
C   C12       1.0  0.94800  0.50850  0.85110  1.0000 0.0760520811
C   C13       1.0  0.65740  0.50850  0.56050  1.0000 0.0760520811
C   C14       1.0  0.56050  0.65740  0.50850  1.0000 0.0760520811
C   C15       1.0  0.50850  0.56050  0.65740  1.0000 0.0760520811
C   C16       1.0  0.90310  0.85110  0.34260  1.0000 0.0760520811
C   C17       1.0  0.43950  0.94800  0.09690  1.0000 0.0760520811
C   C18       1.0  0.09690  0.43950  0.94800  1.0000 0.0760520811
C   C19       1.0  0.14890  0.05200  0.49150  1.0000 0.0760520811
C   C20       1.0  0.85110  0.34260  0.90310  1.0000 0.0760520811
C   C21       1.0  0.49150  0.14890  0.05200  1.0000 0.0760520811
C   C22       1.0  0.94800  0.09690  0.43950  1.0000 0.0760520811
C   C23       1.0  0.34260  0.90310  0.85110  1.0000 0.0760520811
C   C24       1.0  0.05200  0.49150  0.14890  1.0000 0.0760520811
C   C25       1.0  0.25210  0.62060  0.49230  1.0000 0.5820935568
C   C26       1.0  0.49230  0.25210  0.62060  1.0000 0.5820935568
C   C27       1.0  0.62060  0.49230  0.25210  1.0000 0.5820935568
C   C28       1.0  0.24020  0.36850  0.74790  1.0000 0.5820935568
C   C29       1.0  0.50770  0.12830  0.75980  1.0000 0.5820935568
C   C30       1.0  0.75980  0.50770  0.12830  1.0000 0.5820935568
C   C31       1.0  0.63150  0.87170  0.37940  1.0000 0.5820935568
C   C32       1.0  0.36850  0.74790  0.24020  1.0000 0.5820935568
C   C33       1.0  0.37940  0.63150  0.87170  1.0000 0.5820935568
C   C34       1.0  0.12830  0.75980  0.50770  1.0000 0.5820935568
C   C35       1.0  0.74790  0.24020  0.36850  1.0000 0.5820935568
C   C36       1.0  0.87170  0.37940  0.63150  1.0000 0.5820935568
C   C37       1.0  0.74790  0.37940  0.50770  1.0000 0.5820935568
C   C38       1.0  0.50770  0.74790  0.37940  1.0000 0.5820935568
C   C39       1.0  0.37940  0.50770  0.74790  1.0000 0.5820935568
C   C40       1.0  0.75980  0.63150  0.25210  1.0000 0.5820935568
C   C41       1.0  0.49230  0.87170  0.24020  1.0000 0.5820935568
C   C42       1.0  0.24020  0.49230  0.87170  1.0000 0.5820935568
C   C43       1.0  0.36850  0.12830  0.62060  1.0000 0.5820935568
C   C44       1.0  0.63150  0.25210  0.75980  1.0000 0.5820935568
C   C45       1.0  0.62060  0.36850  0.12830  1.0000 0.5820935568
C   C46       1.0  0.87170  0.24020  0.49230  1.0000 0.5820935568
C   C47       1.0  0.25210  0.75980  0.63150  1.0000 0.5820935568
C   C48       1.0  0.12830  0.62060  0.36850  1.0000 0.5820935568
C   C49       1.0  0.25570  0.50900  0.46630  1.0000 -0.0882528317
C   C50       1.0  0.46630  0.25570  0.50900  1.0000 -0.0882528317
C   C51       1.0  0.50900  0.46630  0.25570  1.0000 -0.0882528317
C   C52       1.0  0.21060  0.25330  0.74430  1.0000 -0.0882528317
C   C53       1.0  0.53370  0.04270  0.78940  1.0000 -0.0882528317
C   C54       1.0  0.78940  0.53370  0.04270  1.0000 -0.0882528317
C   C55       1.0  0.74670  0.95730  0.49100  1.0000 -0.0882528317
C   C56       1.0  0.25330  0.74430  0.21060  1.0000 -0.0882528317
C   C57       1.0  0.49100  0.74670  0.95730  1.0000 -0.0882528317
C   C58       1.0  0.04270  0.78940  0.53370  1.0000 -0.0882528317
C   C59       1.0  0.74430  0.21060  0.25330  1.0000 -0.0882528317
C   C60       1.0  0.95730  0.49100  0.74670  1.0000 -0.0882528317
C   C61       1.0  0.74430  0.49100  0.53370  1.0000 -0.0882528317
C   C62       1.0  0.53370  0.74430  0.49100  1.0000 -0.0882528317
C   C63       1.0  0.49100  0.53370  0.74430  1.0000 -0.0882528317
C   C64       1.0  0.78940  0.74670  0.25570  1.0000 -0.0882528317
C   C65       1.0  0.46630  0.95730  0.21060  1.0000 -0.0882528317
C   C66       1.0  0.21060  0.46630  0.95730  1.0000 -0.0882528317
C   C67       1.0  0.25330  0.04270  0.50900  1.0000 -0.0882528317
C   C68       1.0  0.74670  0.25570  0.78940  1.0000 -0.0882528317
C   C69       1.0  0.50900  0.25330  0.04270  1.0000 -0.0882528317
C   C70       1.0  0.95730  0.21060  0.46630  1.0000 -0.0882528317
C   C71       1.0  0.25570  0.78940  0.74670  1.0000 -0.0882528317
C   C72       1.0  0.04270  0.50900  0.25330  1.0000 -0.0882528317
C   C73       1.0  0.37080  0.56080  0.44940  1.0000 -0.1615594128
C   C74       1.0  0.44940  0.37080  0.56080  1.0000 -0.1615594128
C   C75       1.0  0.56080  0.44940  0.37080  1.0000 -0.1615594128
C   C76       1.0  0.07860  0.19000  0.62920  1.0000 -0.1615594128
C   C77       1.0  0.55060  0.11140  0.92140  1.0000 -0.1615594128
C   C78       1.0  0.92140  0.55060  0.11140  1.0000 -0.1615594128
C   C79       1.0  0.81000  0.88860  0.43920  1.0000 -0.1615594128
C   C80       1.0  0.19000  0.62920  0.07860  1.0000 -0.1615594128
C   C81       1.0  0.43920  0.81000  0.88860  1.0000 -0.1615594128
C   C82       1.0  0.11140  0.92140  0.55060  1.0000 -0.1615594128
C   C83       1.0  0.62920  0.07860  0.19000  1.0000 -0.1615594128
C   C84       1.0  0.88860  0.43920  0.81000  1.0000 -0.1615594128
C   C85       1.0  0.62920  0.43920  0.55060  1.0000 -0.1615594128
C   C86       1.0  0.55060  0.62920  0.43920  1.0000 -0.1615594128
C   C87       1.0  0.43920  0.55060  0.62920  1.0000 -0.1615594128
C   C88       1.0  0.92140  0.81000  0.37080  1.0000 -0.1615594128
C   C89       1.0  0.44940  0.88860  0.07860  1.0000 -0.1615594128
C   C90       1.0  0.07860  0.44940  0.88860  1.0000 -0.1615594128
C   C91       1.0  0.19000  0.11140  0.56080  1.0000 -0.1615594128
C   C92       1.0  0.81000  0.37080  0.92140  1.0000 -0.1615594128
C   C93       1.0  0.56080  0.19000  0.11140  1.0000 -0.1615594128
C   C94       1.0  0.88860  0.07860  0.44940  1.0000 -0.1615594128
C   C95       1.0  0.37080  0.92140  0.81000  1.0000 -0.1615594128
C   C96       1.0  0.11140  0.56080  0.19000  1.0000 -0.1615594128
C   C97       1.0  0.28520  0.46640  0.44880  1.0000 -0.1692348718
C   C98       1.0  0.44880  0.28520  0.46640  1.0000 -0.1692348718
C   C99       1.0  0.46640  0.44880  0.28520  1.0000 -0.1692348718
C   C100      1.0  0.16360  0.18120  0.71480  1.0000 -0.1692348718
C   C101      1.0  0.55120  0.01760  0.83640  1.0000 -0.1692348718
C   C102      1.0  0.83640  0.55120  0.01760  1.0000 -0.1692348718
C   C103      1.0  0.81880  0.98240  0.53360  1.0000 -0.1692348718
C   C104      1.0  0.18120  0.71480  0.16360  1.0000 -0.1692348718
C   C105      1.0  0.53360  0.81880  0.98240  1.0000 -0.1692348718
C   C106      1.0  0.01760  0.83640  0.55120  1.0000 -0.1692348718
C   C107      1.0  0.71480  0.16360  0.18120  1.0000 -0.1692348718
C   C108      1.0  0.98240  0.53360  0.81880  1.0000 -0.1692348718
C   C109      1.0  0.71480  0.53360  0.55120  1.0000 -0.1692348718
C   C110      1.0  0.55120  0.71480  0.53360  1.0000 -0.1692348718
C   C111      1.0  0.53360  0.55120  0.71480  1.0000 -0.1692348718
C   C112      1.0  0.83640  0.81880  0.28520  1.0000 -0.1692348718
C   C113      1.0  0.44880  0.98240  0.16360  1.0000 -0.1692348718
C   C114      1.0  0.16360  0.44880  0.98240  1.0000 -0.1692348718
C   C115      1.0  0.18120  0.01760  0.46640  1.0000 -0.1692348718
C   C116      1.0  0.81880  0.28520  0.83640  1.0000 -0.1692348718
C   C117      1.0  0.46640  0.18120  0.01760  1.0000 -0.1692348718
C   C118      1.0  0.98240  0.16360  0.44880  1.0000 -0.1692348718
C   C119      1.0  0.28520  0.83640  0.81880  1.0000 -0.1692348718
C   C120      1.0  0.01760  0.46640  0.18120  1.0000 -0.1692348718
C   C121      1.0  0.34200  0.60170  0.46810  1.0000 -0.0841816247
C   C122      1.0  0.46810  0.34200  0.60170  1.0000 -0.0841816247
C   C123      1.0  0.60170  0.46810  0.34200  1.0000 -0.0841816247
C   C124      1.0  0.12610  0.25970  0.65800  1.0000 -0.0841816247
C   C125      1.0  0.53190  0.13360  0.87390  1.0000 -0.0841816247
C   C126      1.0  0.87390  0.53190  0.13360  1.0000 -0.0841816247
C   C127      1.0  0.74030  0.86640  0.39830  1.0000 -0.0841816247
C   C128      1.0  0.25970  0.65800  0.12610  1.0000 -0.0841816247
C   C129      1.0  0.39830  0.74030  0.86640  1.0000 -0.0841816247
C   C130      1.0  0.13360  0.87390  0.53190  1.0000 -0.0841816247
C   C131      1.0  0.65800  0.12610  0.25970  1.0000 -0.0841816247
C   C132      1.0  0.86640  0.39830  0.74030  1.0000 -0.0841816247
C   C133      1.0  0.65800  0.39830  0.53190  1.0000 -0.0841816247
C   C134      1.0  0.53190  0.65800  0.39830  1.0000 -0.0841816247
C   C135      1.0  0.39830  0.53190  0.65800  1.0000 -0.0841816247
C   C136      1.0  0.87390  0.74030  0.34200  1.0000 -0.0841816247
C   C137      1.0  0.46810  0.86640  0.12610  1.0000 -0.0841816247
C   C138      1.0  0.12610  0.46810  0.86640  1.0000 -0.0841816247
C   C139      1.0  0.25970  0.13360  0.60170  1.0000 -0.0841816247
C   C140      1.0  0.74030  0.34200  0.87390  1.0000 -0.0841816247
C   C141      1.0  0.60170  0.25970  0.13360  1.0000 -0.0841816247
C   C142      1.0  0.86640  0.12610  0.46810  1.0000 -0.0841816247
C   C143      1.0  0.34200  0.87390  0.74030  1.0000 -0.0841816247
C   C144      1.0  0.13360  0.60170  0.25970  1.0000 -0.0841816247
C   C145      1.0  0.41090  0.45790  0.38600  1.0000 -0.1971057963
C   C146      1.0  0.38600  0.41090  0.45790  1.0000 -0.1971057963
C   C147      1.0  0.45790  0.38600  0.41090  1.0000 -0.1971057963
C   C148      1.0  0.97510  0.04700  0.58910  1.0000 -0.1971057963
C   C149      1.0  0.61400  0.07190  0.02490  1.0000 -0.1971057963
C   C150      1.0  0.02490  0.61400  0.07190  1.0000 -0.1971057963
C   C151      1.0  0.95300  0.92810  0.54210  1.0000 -0.1971057963
C   C152      1.0  0.04700  0.58910  0.97510  1.0000 -0.1971057963
C   C153      1.0  0.54210  0.95300  0.92810  1.0000 -0.1971057963
C   C154      1.0  0.07190  0.02490  0.61400  1.0000 -0.1971057963
C   C155      1.0  0.58910  0.97510  0.04700  1.0000 -0.1971057963
C   C156      1.0  0.92810  0.54210  0.95300  1.0000 -0.1971057963
C   C157      1.0  0.58910  0.54210  0.61400  1.0000 -0.1971057963
C   C158      1.0  0.61400  0.58910  0.54210  1.0000 -0.1971057963
C   C159      1.0  0.54210  0.61400  0.58910  1.0000 -0.1971057963
C   C160      1.0  0.02490  0.95300  0.41090  1.0000 -0.1971057963
C   C161      1.0  0.38600  0.92810  0.97510  1.0000 -0.1971057963
C   C162      1.0  0.97510  0.38600  0.92810  1.0000 -0.1971057963
C   C163      1.0  0.04700  0.07190  0.45790  1.0000 -0.1971057963
C   C164      1.0  0.95300  0.41090  0.02490  1.0000 -0.1971057963
C   C165      1.0  0.45790  0.04700  0.07190  1.0000 -0.1971057963
C   C166      1.0  0.92810  0.97510  0.38600  1.0000 -0.1971057963
C   C167      1.0  0.41090  0.02490  0.95300  1.0000 -0.1971057963
C   C168      1.0  0.07190  0.45790  0.04700  1.0000 -0.1971057963
C   C169      1.0  0.28450  0.57640  0.47670  1.0000 -0.0416158834
C   C170      1.0  0.47670  0.28450  0.57640  1.0000 -0.0416158834
C   C171      1.0  0.57640  0.47670  0.28450  1.0000 -0.0416158834
C   C172      1.0  0.19220  0.29190  0.71550  1.0000 -0.0416158834
C   C173      1.0  0.52330  0.09970  0.80780  1.0000 -0.0416158834
C   C174      1.0  0.80780  0.52330  0.09970  1.0000 -0.0416158834
C   C175      1.0  0.70810  0.90030  0.42360  1.0000 -0.0416158834
C   C176      1.0  0.29190  0.71550  0.19220  1.0000 -0.0416158834
C   C177      1.0  0.42360  0.70810  0.90030  1.0000 -0.0416158834
C   C178      1.0  0.09970  0.80780  0.52330  1.0000 -0.0416158834
C   C179      1.0  0.71550  0.19220  0.29190  1.0000 -0.0416158834
C   C180      1.0  0.90030  0.42360  0.70810  1.0000 -0.0416158834
C   C181      1.0  0.71550  0.42360  0.52330  1.0000 -0.0416158834
C   C182      1.0  0.52330  0.71550  0.42360  1.0000 -0.0416158834
C   C183      1.0  0.42360  0.52330  0.71550  1.0000 -0.0416158834
C   C184      1.0  0.80780  0.70810  0.28450  1.0000 -0.0416158834
C   C185      1.0  0.47670  0.90030  0.19220  1.0000 -0.0416158834
C   C186      1.0  0.19220  0.47670  0.90030  1.0000 -0.0416158834
C   C187      1.0  0.29190  0.09970  0.57640  1.0000 -0.0416158834
C   C188      1.0  0.70810  0.28450  0.80780  1.0000 -0.0416158834
C   C189      1.0  0.57640  0.29190  0.09970  1.0000 -0.0416158834
C   C190      1.0  0.90030  0.19220  0.47670  1.0000 -0.0416158834
C   C191      1.0  0.28450  0.80780  0.70810  1.0000 -0.0416158834
C   C192      1.0  0.09970  0.57640  0.29190  1.0000 -0.0416158834
C   C193      1.0  0.37930  0.45160  0.42630  1.0000 0.0760520811
C   C194      1.0  0.42630  0.37930  0.45160  1.0000 0.0760520811
C   C195      1.0  0.45160  0.42630  0.37930  1.0000 0.0760520811
C   C196      1.0  0.04700  0.07230  0.62070  1.0000 0.0760520811
C   C197      1.0  0.57370  0.02530  0.95300  1.0000 0.0760520811
C   C198      1.0  0.95300  0.57370  0.02530  1.0000 0.0760520811
C   C199      1.0  0.92770  0.97470  0.54840  1.0000 0.0760520811
C   C200      1.0  0.07230  0.62070  0.04700  1.0000 0.0760520811
C   C201      1.0  0.54840  0.92770  0.97470  1.0000 0.0760520811
C   C202      1.0  0.02530  0.95300  0.57370  1.0000 0.0760520811
C   C203      1.0  0.62070  0.04700  0.07230  1.0000 0.0760520811
C   C204      1.0  0.97470  0.54840  0.92770  1.0000 0.0760520811
C   C205      1.0  0.62070  0.54840  0.57370  1.0000 0.0760520811
C   C206      1.0  0.57370  0.62070  0.54840  1.0000 0.0760520811
C   C207      1.0  0.54840  0.57370  0.62070  1.0000 0.0760520811
C   C208      1.0  0.95300  0.92770  0.37930  1.0000 0.0760520811
C   C209      1.0  0.42630  0.97470  0.04700  1.0000 0.0760520811
C   C210      1.0  0.04700  0.42630  0.97470  1.0000 0.0760520811
C   C211      1.0  0.07230  0.02530  0.45160  1.0000 0.0760520811
C   C212      1.0  0.92770  0.37930  0.95300  1.0000 0.0760520811
C   C213      1.0  0.45160  0.07230  0.02530  1.0000 0.0760520811
C   C214      1.0  0.97470  0.04700  0.42630  1.0000 0.0760520811
C   C215      1.0  0.37930  0.95300  0.92770  1.0000 0.0760520811
C   C216      1.0  0.02530  0.45160  0.07230  1.0000 0.0760520811
O   O1        1.0  0.19922  0.59631  0.49789  1.0000 -0.4976839224
O   O2        1.0  0.49789  0.19922  0.59631  1.0000 -0.4976839224
O   O3        1.0  0.59631  0.49789  0.19922  1.0000 -0.4976839224
O   O4        1.0  0.29867  0.39709  0.80078  1.0000 -0.4976839224
O   O5        1.0  0.50211  0.09842  0.70133  1.0000 -0.4976839224
O   O6        1.0  0.70133  0.50211  0.09842  1.0000 -0.4976839224
O   O7        1.0  0.60291  0.90158  0.40369  1.0000 -0.4976839224
O   O8        1.0  0.39709  0.80078  0.29867  1.0000 -0.4976839224
O   O9        1.0  0.40369  0.60291  0.90158  1.0000 -0.4976839224
O   O10       1.0  0.09842  0.70133  0.50211  1.0000 -0.4976839224
O   O11       1.0  0.80078  0.29867  0.39709  1.0000 -0.4976839224
O   O12       1.0  0.90158  0.40369  0.60291  1.0000 -0.4976839224
O   O13       1.0  0.80078  0.40369  0.50211  1.0000 -0.4976839224
O   O14       1.0  0.50211  0.80078  0.40369  1.0000 -0.4976839224
O   O15       1.0  0.40369  0.50211  0.80078  1.0000 -0.4976839224
O   O16       1.0  0.70133  0.60291  0.19922  1.0000 -0.4976839224
O   O17       1.0  0.49789  0.90158  0.29867  1.0000 -0.4976839224
O   O18       1.0  0.29867  0.49789  0.90158  1.0000 -0.4976839224
O   O19       1.0  0.39709  0.09842  0.59631  1.0000 -0.4976839224
O   O20       1.0  0.60291  0.19922  0.70133  1.0000 -0.4976839224
O   O21       1.0  0.59631  0.39709  0.09842  1.0000 -0.4976839224
O   O22       1.0  0.90158  0.29867  0.49789  1.0000 -0.4976839224
O   O23       1.0  0.19922  0.70133  0.60291  1.0000 -0.4976839224
O   O24       1.0  0.09842  0.59631  0.39709  1.0000 -0.4976839224
O   O25       1.0  0.28004  0.67933  0.49755  1.0000 -0.5174130176
O   O26       1.0  0.49755  0.28004  0.67933  1.0000 -0.5174130176
O   O27       1.0  0.67933  0.49755  0.28004  1.0000 -0.5174130176
O   O28       1.0  0.21751  0.39929  0.71996  1.0000 -0.5174130176
O   O29       1.0  0.50245  0.18178  0.78249  1.0000 -0.5174130176
O   O30       1.0  0.78249  0.50245  0.18178  1.0000 -0.5174130176
O   O31       1.0  0.60071  0.81822  0.32067  1.0000 -0.5174130176
O   O32       1.0  0.39929  0.71996  0.21751  1.0000 -0.5174130176
O   O33       1.0  0.32067  0.60071  0.81822  1.0000 -0.5174130176
O   O34       1.0  0.18178  0.78249  0.50245  1.0000 -0.5174130176
O   O35       1.0  0.71996  0.21751  0.39929  1.0000 -0.5174130176
O   O36       1.0  0.81822  0.32067  0.60071  1.0000 -0.5174130176
O   O37       1.0  0.71996  0.32067  0.50245  1.0000 -0.5174130176
O   O38       1.0  0.50245  0.71996  0.32067  1.0000 -0.5174130176
O   O39       1.0  0.32067  0.50245  0.71996  1.0000 -0.5174130176
O   O40       1.0  0.78249  0.60071  0.28004  1.0000 -0.5174130176
O   O41       1.0  0.49755  0.81822  0.21751  1.0000 -0.5174130176
O   O42       1.0  0.21751  0.49755  0.81822  1.0000 -0.5174130176
O   O43       1.0  0.39929  0.18178  0.67933  1.0000 -0.5174130176
O   O44       1.0  0.60071  0.28004  0.78249  1.0000 -0.5174130176
O   O45       1.0  0.67933  0.39929  0.18178  1.0000 -0.5174130176
O   O46       1.0  0.81822  0.21751  0.49755  1.0000 -0.5174130176
O   O47       1.0  0.28004  0.78249  0.60071  1.0000 -0.5174130176
O   O48       1.0  0.18178  0.67933  0.39929  1.0000 -0.5174130176
