# DDEC6 charges by PACMAN v1.1 (https://github.com/mtap-research/PACMAN-charge/)
data_2014[Zn][srs]3[ASR]3
_chemical_formula_sum              "Zn24 H192 C288 I48 N96"
_cell_length_a       13.7876
_cell_length_b       27.8747
_cell_length_c       45.415
_cell_angle_alpha    90
_cell_angle_beta     90
_cell_angle_gamma    90

_symmetry_space_group_name_H-M    "P 1"
_symmetry_Int_Tables_number       1

loop_
  _symmetry_equiv_pos_as_xyz
  'x, y, z'

loop_
  _atom_site_type_symbol
  _atom_site_label
  _atom_site_symmetry_multiplicity
  _atom_site_fract_x
  _atom_site_fract_y
  _atom_site_fract_z
  _atom_site_occupancy
  _atom_site_charge
Zn  Zn1       1.0  0.16105  0.75673  0.81384  1.0000 0.4773533311
Zn  Zn2       1.0  0.83895  0.74327  0.31384  1.0000 0.4773533311
Zn  Zn3       1.0  0.33895  0.25673  0.18616  1.0000 0.4736647871
Zn  Zn4       1.0  0.66105  0.24327  0.68616  1.0000 0.4736647871
Zn  Zn5       1.0  0.84944  0.55113  0.57684  1.0000 0.4511900436
Zn  Zn6       1.0  0.15056  0.94887  0.07684  1.0000 0.4511900436
Zn  Zn7       1.0  0.65056  0.05113  0.42316  1.0000 0.4511900436
Zn  Zn8       1.0  0.34944  0.44887  0.92316  1.0000 0.4511900436
Zn  Zn9       1.0  0.63054  0.52500  0.41202  1.0000 0.4596804645
Zn  Zn10      1.0  0.36946  0.97500  0.91202  1.0000 0.4596804645
Zn  Zn11      1.0  0.86946  0.02500  0.58798  1.0000 0.4596804645
Zn  Zn12      1.0  0.13054  0.47500  0.08798  1.0000 0.4596804645
Zn  Zn13      1.0  0.83895  0.24327  0.18616  1.0000 0.4773533311
Zn  Zn14      1.0  0.16105  0.25673  0.68616  1.0000 0.4773533311
Zn  Zn15      1.0  0.66105  0.74327  0.81384  1.0000 0.4736647871
Zn  Zn16      1.0  0.33895  0.75673  0.31384  1.0000 0.4736647871
Zn  Zn17      1.0  0.15056  0.44887  0.42316  1.0000 0.4511900436
Zn  Zn18      1.0  0.84944  0.05113  0.92316  1.0000 0.4511900436
Zn  Zn19      1.0  0.34944  0.94887  0.57684  1.0000 0.4511900436
Zn  Zn20      1.0  0.65056  0.55113  0.07684  1.0000 0.4511900436
Zn  Zn21      1.0  0.36946  0.47500  0.58798  1.0000 0.4596804645
Zn  Zn22      1.0  0.63054  0.02500  0.08798  1.0000 0.4596804645
Zn  Zn23      1.0  0.13054  0.97500  0.41202  1.0000 0.4596804645
Zn  Zn24      1.0  0.86946  0.52500  0.91202  1.0000 0.4596804645
H   H1        1.0  0.04860  0.72830  0.33220  1.0000 0.1096077748
H   H2        1.0  0.95140  0.77170  0.83220  1.0000 0.1096077748
H   H3        1.0  0.45140  0.22830  0.66780  1.0000 0.1096077748
H   H4        1.0  0.54860  0.27170  0.16780  1.0000 0.1096077748
H   H5        1.0  0.80290  0.68350  0.36650  1.0000 0.1096077748
H   H6        1.0  0.19710  0.81650  0.86650  1.0000 0.1096077748
H   H7        1.0  0.69710  0.18350  0.63350  1.0000 0.1096077748
H   H8        1.0  0.30290  0.31650  0.13350  1.0000 0.1096077748
H   H9        1.0  0.95250  0.65240  0.66240  1.0000 0.1323773022
H   H10       1.0  0.04750  0.84760  0.16240  1.0000 0.1323773022
H   H11       1.0  0.54750  0.15240  0.33760  1.0000 0.1323773022
H   H12       1.0  0.45250  0.34760  0.83760  1.0000 0.1323773022
H   H13       1.0  0.09370  0.83550  0.77430  1.0000 0.1156219574
H   H14       1.0  0.90630  0.66450  0.27430  1.0000 0.1156219574
H   H15       1.0  0.40630  0.33550  0.22570  1.0000 0.1156219574
H   H16       1.0  0.59370  0.16450  0.72570  1.0000 0.1156219574
H   H17       1.0  0.86610  0.65690  0.56410  1.0000 0.1008773725
H   H18       1.0  0.13390  0.84310  0.06410  1.0000 0.1008773725
H   H19       1.0  0.63390  0.15690  0.43590  1.0000 0.1008773725
H   H20       1.0  0.36610  0.34310  0.93590  1.0000 0.1008773725
H   H21       1.0  0.92280  0.58330  0.63610  1.0000 0.1008773725
H   H22       1.0  0.07720  0.91670  0.13610  1.0000 0.1008773725
H   H23       1.0  0.57720  0.08330  0.36390  1.0000 0.1008773725
H   H24       1.0  0.42280  0.41670  0.86390  1.0000 0.1008773725
H   H25       1.0  0.04860  0.69550  0.77070  1.0000 0.1096077748
H   H26       1.0  0.95140  0.80450  0.27070  1.0000 0.1096077748
H   H27       1.0  0.45140  0.19550  0.22930  1.0000 0.1096077748
H   H28       1.0  0.54860  0.30450  0.72930  1.0000 0.1096077748
H   H29       1.0  0.80540  0.59240  0.51710  1.0000 0.1008773725
H   H30       1.0  0.19460  0.90760  0.01710  1.0000 0.1008773725
H   H31       1.0  0.69460  0.09240  0.48290  1.0000 0.1008773725
H   H32       1.0  0.30540  0.40760  0.98290  1.0000 0.1008773725
H   H33       1.0  0.98770  0.70260  0.72330  1.0000 0.1323773022
H   H34       1.0  0.01230  0.79740  0.22330  1.0000 0.1323773022
H   H35       1.0  0.51230  0.20260  0.27670  1.0000 0.1323773022
H   H36       1.0  0.48770  0.29740  0.77670  1.0000 0.1323773022
H   H37       1.0  0.12830  0.55170  0.50570  1.0000 0.1323773022
H   H38       1.0  0.87170  0.94830  0.00570  1.0000 0.1323773022
H   H39       1.0  0.37170  0.05170  0.49430  1.0000 0.1323773022
H   H40       1.0  0.62830  0.44830  0.99430  1.0000 0.1323773022
H   H41       1.0  0.33930  0.57270  0.47100  1.0000 0.1323773022
H   H42       1.0  0.66070  0.92730  0.97100  1.0000 0.1323773022
H   H43       1.0  0.16070  0.07270  0.52900  1.0000 0.1365580687
H   H44       1.0  0.83930  0.42730  0.02900  1.0000 0.1323773022
H   H45       1.0  0.04350  0.53180  0.54810  1.0000 0.1096077748
H   H46       1.0  0.95650  0.96820  0.04810  1.0000 0.1096077748
H   H47       1.0  0.45650  0.03180  0.45190  1.0000 0.1096077748
H   H48       1.0  0.54350  0.46820  0.95190  1.0000 0.1096077748
H   H49       1.0  0.03530  0.84590  0.72760  1.0000 0.1365580687
H   H50       1.0  0.96470  0.65410  0.22760  1.0000 0.1365580687
H   H51       1.0  0.46470  0.34590  0.27240  1.0000 0.1365580687
H   H52       1.0  0.53530  0.15410  0.77240  1.0000 0.1365580687
H   H53       1.0  0.13600  0.68990  0.36820  1.0000 0.1365580687
H   H54       1.0  0.86400  0.81010  0.86820  1.0000 0.1365580687
H   H55       1.0  0.36400  0.18990  0.63180  1.0000 0.1365580687
H   H56       1.0  0.63600  0.31010  0.13180  1.0000 0.1365580687
H   H57       1.0  0.88330  0.64880  0.40550  1.0000 0.1323773022
H   H58       1.0  0.11670  0.85120  0.90550  1.0000 0.1323773022
H   H59       1.0  0.61670  0.14880  0.59450  1.0000 0.1323773022
H   H60       1.0  0.38330  0.35120  0.09450  1.0000 0.1323773022
H   H61       1.0  0.89530  0.72910  0.58840  1.0000 0.1323773022
H   H62       1.0  0.10470  0.77090  0.08840  1.0000 0.1365580687
H   H63       1.0  0.60470  0.22910  0.41160  1.0000 0.1365580687
H   H64       1.0  0.39530  0.27090  0.91160  1.0000 0.1365580687
H   H65       1.0  0.49390  0.54430  0.46250  1.0000 0.1096077748
H   H66       1.0  0.50610  0.95570  0.96250  1.0000 0.1096077748
H   H67       1.0  0.00610  0.04430  0.53750  1.0000 0.1096077748
H   H68       1.0  0.99390  0.45570  0.03750  1.0000 0.1096077748
H   H69       1.0  0.88650  0.61570  0.47430  1.0000 0.1365580687
H   H70       1.0  0.11350  0.88430  0.97430  1.0000 0.1365580687
H   H71       1.0  0.61350  0.11570  0.52570  1.0000 0.1365580687
H   H72       1.0  0.38650  0.38430  0.02570  1.0000 0.1365580687
H   H73       1.0  0.47110  0.57170  0.37810  1.0000 0.1096077748
H   H74       1.0  0.52890  0.92830  0.87810  1.0000 0.1096077748
H   H75       1.0  0.02890  0.07170  0.62190  1.0000 0.1096077748
H   H76       1.0  0.97110  0.42830  0.12190  1.0000 0.1096077748
H   H77       1.0  0.31520  0.60120  0.38400  1.0000 0.1365580687
H   H78       1.0  0.68480  0.89880  0.88400  1.0000 0.1365580687
H   H79       1.0  0.18480  0.10120  0.61600  1.0000 0.1365580687
H   H80       1.0  0.81520  0.39880  0.11600  1.0000 0.1365580687
H   H81       1.0  0.90430  0.84690  0.59260  1.0000 0.1323773022
H   H82       1.0  0.09570  0.65310  0.09260  1.0000 0.1323773022
H   H83       1.0  0.59570  0.34690  0.40740  1.0000 0.1323773022
H   H84       1.0  0.40430  0.15310  0.90740  1.0000 0.1323773022
H   H85       1.0  0.96030  0.91220  0.67010  1.0000 0.1323773022
H   H86       1.0  0.03970  0.58780  0.17010  1.0000 0.1323773022
H   H87       1.0  0.53970  0.41220  0.32990  1.0000 0.1323773022
H   H88       1.0  0.46030  0.08780  0.82990  1.0000 0.1323773022
H   H89       1.0  0.88470  0.92180  0.57120  1.0000 0.1096077748
H   H90       1.0  0.11530  0.57820  0.07120  1.0000 0.1096077748
H   H91       1.0  0.61530  0.42180  0.42880  1.0000 0.1096077748
H   H92       1.0  0.38470  0.07820  0.92880  1.0000 0.1096077748
H   H93       1.0  0.93600  0.98550  0.64680  1.0000 0.1096077748
H   H94       1.0  0.06400  0.51450  0.14680  1.0000 0.1096077748
H   H95       1.0  0.56400  0.48550  0.35320  1.0000 0.1096077748
H   H96       1.0  0.43600  0.01450  0.85320  1.0000 0.1096077748
H   H97       1.0  0.95140  0.27170  0.66780  1.0000 0.1096077748
H   H98       1.0  0.04860  0.22830  0.16780  1.0000 0.1096077748
H   H99       1.0  0.54860  0.77170  0.33220  1.0000 0.1096077748
H   H100      1.0  0.45140  0.72830  0.83220  1.0000 0.1096077748
H   H101      1.0  0.19710  0.31650  0.63350  1.0000 0.1096077748
H   H102      1.0  0.80290  0.18350  0.13350  1.0000 0.1096077748
H   H103      1.0  0.30290  0.81650  0.36650  1.0000 0.1096077748
H   H104      1.0  0.69710  0.68350  0.86650  1.0000 0.1096077748
H   H105      1.0  0.04750  0.34760  0.33760  1.0000 0.1323773022
H   H106      1.0  0.95250  0.15240  0.83760  1.0000 0.1323773022
H   H107      1.0  0.45250  0.84760  0.66240  1.0000 0.1323773022
H   H108      1.0  0.54750  0.65240  0.16240  1.0000 0.1323773022
H   H109      1.0  0.90630  0.16450  0.22570  1.0000 0.1156219574
H   H110      1.0  0.09370  0.33550  0.72570  1.0000 0.1156219574
H   H111      1.0  0.59370  0.66450  0.77430  1.0000 0.1156219574
H   H112      1.0  0.40630  0.83550  0.27430  1.0000 0.1156219574
H   H113      1.0  0.13390  0.34310  0.43590  1.0000 0.1008773725
H   H114      1.0  0.86610  0.15690  0.93590  1.0000 0.1008773725
H   H115      1.0  0.36610  0.84310  0.56410  1.0000 0.1008773725
H   H116      1.0  0.63390  0.65690  0.06410  1.0000 0.1008773725
H   H117      1.0  0.07720  0.41670  0.36390  1.0000 0.1008773725
H   H118      1.0  0.92280  0.08330  0.86390  1.0000 0.1008773725
H   H119      1.0  0.42280  0.91670  0.63610  1.0000 0.1008773725
H   H120      1.0  0.57720  0.58330  0.13610  1.0000 0.1008773725
H   H121      1.0  0.95140  0.30450  0.22930  1.0000 0.1096077748
H   H122      1.0  0.04860  0.19550  0.72930  1.0000 0.1096077748
H   H123      1.0  0.54860  0.80450  0.77070  1.0000 0.1096077748
H   H124      1.0  0.45140  0.69550  0.27070  1.0000 0.1096077748
H   H125      1.0  0.19460  0.40760  0.48290  1.0000 0.1008773725
H   H126      1.0  0.80540  0.09240  0.98290  1.0000 0.1008773725
H   H127      1.0  0.30540  0.90760  0.51710  1.0000 0.1008773725
H   H128      1.0  0.69460  0.59240  0.01710  1.0000 0.1008773725
H   H129      1.0  0.01230  0.29740  0.27670  1.0000 0.1323773022
H   H130      1.0  0.98770  0.20260  0.77670  1.0000 0.1323773022
H   H131      1.0  0.48770  0.79740  0.72330  1.0000 0.1323773022
H   H132      1.0  0.51230  0.70260  0.22330  1.0000 0.1323773022
H   H133      1.0  0.87170  0.44830  0.49430  1.0000 0.1323773022
H   H134      1.0  0.12830  0.05170  0.99430  1.0000 0.1323773022
H   H135      1.0  0.62830  0.94830  0.50570  1.0000 0.1323773022
H   H136      1.0  0.37170  0.55170  0.00570  1.0000 0.1323773022
H   H137      1.0  0.66070  0.42730  0.52900  1.0000 0.1323773022
H   H138      1.0  0.33930  0.07270  0.02900  1.0000 0.1323773022
H   H139      1.0  0.83930  0.92730  0.47100  1.0000 0.1323773022
H   H140      1.0  0.16070  0.57270  0.97100  1.0000 0.1365580687
H   H141      1.0  0.95650  0.46820  0.45190  1.0000 0.1096077748
H   H142      1.0  0.04350  0.03180  0.95190  1.0000 0.1096077748
H   H143      1.0  0.54350  0.96820  0.54810  1.0000 0.1096077748
H   H144      1.0  0.45650  0.53180  0.04810  1.0000 0.1096077748
H   H145      1.0  0.96470  0.15410  0.27240  1.0000 0.1365580687
H   H146      1.0  0.03530  0.34590  0.77240  1.0000 0.1365580687
H   H147      1.0  0.53530  0.65410  0.72760  1.0000 0.1365580687
H   H148      1.0  0.46470  0.84590  0.22760  1.0000 0.1365580687
H   H149      1.0  0.86400  0.31010  0.63180  1.0000 0.1365580687
H   H150      1.0  0.13600  0.18990  0.13180  1.0000 0.1323773022
H   H151      1.0  0.63600  0.81010  0.36820  1.0000 0.1365580687
H   H152      1.0  0.36400  0.68990  0.86820  1.0000 0.1365580687
H   H153      1.0  0.11670  0.35120  0.59450  1.0000 0.1323773022
H   H154      1.0  0.88330  0.14880  0.09450  1.0000 0.1323773022
H   H155      1.0  0.38330  0.85120  0.40550  1.0000 0.1323773022
H   H156      1.0  0.61670  0.64880  0.90550  1.0000 0.1323773022
H   H157      1.0  0.10470  0.27090  0.41160  1.0000 0.1365580687
H   H158      1.0  0.89530  0.22910  0.91160  1.0000 0.1323773022
H   H159      1.0  0.39530  0.77090  0.58840  1.0000 0.1323773022
H   H160      1.0  0.60470  0.72910  0.08840  1.0000 0.1323773022
H   H161      1.0  0.50610  0.45570  0.53750  1.0000 0.1096077748
H   H162      1.0  0.49390  0.04430  0.03750  1.0000 0.1096077748
H   H163      1.0  0.99390  0.95570  0.46250  1.0000 0.1096077748
H   H164      1.0  0.00610  0.54430  0.96250  1.0000 0.1096077748
H   H165      1.0  0.11350  0.38430  0.52570  1.0000 0.1365580687
H   H166      1.0  0.88650  0.11570  0.02570  1.0000 0.1365580687
H   H167      1.0  0.38650  0.88430  0.47430  1.0000 0.1365580687
H   H168      1.0  0.61350  0.61570  0.97430  1.0000 0.1365580687
H   H169      1.0  0.52890  0.42830  0.62190  1.0000 0.1096077748
H   H170      1.0  0.47110  0.07170  0.12190  1.0000 0.1096077748
H   H171      1.0  0.97110  0.92830  0.37810  1.0000 0.1096077748
H   H172      1.0  0.02890  0.57170  0.87810  1.0000 0.1096077748
H   H173      1.0  0.68480  0.39880  0.61600  1.0000 0.1365580687
H   H174      1.0  0.31520  0.10120  0.11600  1.0000 0.1365580687
H   H175      1.0  0.81520  0.89880  0.38400  1.0000 0.1365580687
H   H176      1.0  0.18480  0.60120  0.88400  1.0000 0.1365580687
H   H177      1.0  0.09570  0.15310  0.40740  1.0000 0.1323773022
H   H178      1.0  0.90430  0.34690  0.90740  1.0000 0.1323773022
H   H179      1.0  0.40430  0.65310  0.59260  1.0000 0.1323773022
H   H180      1.0  0.59570  0.84690  0.09260  1.0000 0.1323773022
H   H181      1.0  0.03970  0.08780  0.32990  1.0000 0.1323773022
H   H182      1.0  0.96030  0.41220  0.82990  1.0000 0.1323773022
H   H183      1.0  0.46030  0.58780  0.67010  1.0000 0.1323773022
H   H184      1.0  0.53970  0.91220  0.17010  1.0000 0.1323773022
H   H185      1.0  0.11530  0.07820  0.42880  1.0000 0.1096077748
H   H186      1.0  0.88470  0.42180  0.92880  1.0000 0.1096077748
H   H187      1.0  0.38470  0.57820  0.57120  1.0000 0.1096077748
H   H188      1.0  0.61530  0.92180  0.07120  1.0000 0.1096077748
H   H189      1.0  0.06400  0.01450  0.35320  1.0000 0.1096077748
H   H190      1.0  0.93600  0.48550  0.85320  1.0000 0.1096077748
H   H191      1.0  0.43600  0.51450  0.64680  1.0000 0.1096077748
H   H192      1.0  0.56400  0.98550  0.14680  1.0000 0.1096077748
C   C1        1.0  0.94560  0.82400  0.64794  1.0000 0.3711765336
C   C2        1.0  0.05440  0.67600  0.14794  1.0000 0.3711765336
C   C3        1.0  0.55440  0.32400  0.35206  1.0000 0.3711765336
C   C4        1.0  0.44560  0.17600  0.85206  1.0000 0.3711765336
C   C5        1.0  0.01490  0.71080  0.34700  1.0000 0.0818922402
C   C6        1.0  0.98510  0.78920  0.84700  1.0000 0.0818922402
C   C7        1.0  0.48510  0.21080  0.65300  1.0000 0.0818922402
C   C8        1.0  0.51490  0.28920  0.15300  1.0000 0.0818922402
C   C9        1.0  0.00840  0.77520  0.71912  1.0000 0.0608421335
C   C10       1.0  0.99160  0.72480  0.21912  1.0000 0.0608421335
C   C11       1.0  0.49160  0.27520  0.28088  1.0000 0.0608421335
C   C12       1.0  0.50840  0.22480  0.78088  1.0000 0.0608421335
C   C13       1.0  0.97820  0.77950  0.68809  1.0000 0.3649633791
C   C14       1.0  0.02180  0.72050  0.18809  1.0000 0.3711765336
C   C15       1.0  0.52180  0.27950  0.31191  1.0000 0.3711765336
C   C16       1.0  0.47820  0.22050  0.81191  1.0000 0.3711765336
C   C17       1.0  0.87170  0.68540  0.36723  1.0000 0.088781263
C   C18       1.0  0.12830  0.81460  0.86723  1.0000 0.088781263
C   C19       1.0  0.62830  0.18540  0.63277  1.0000 0.088781263
C   C20       1.0  0.37170  0.31460  0.13277  1.0000 0.088781263
C   C21       1.0  0.94270  0.74340  0.64516  1.0000 0.3711765336
C   C22       1.0  0.05730  0.75660  0.14516  1.0000 0.3711765336
C   C23       1.0  0.55730  0.24340  0.35484  1.0000 0.3711765336
C   C24       1.0  0.44270  0.25660  0.85484  1.0000 0.3711765336
C   C25       1.0  0.93460  0.65420  0.64228  1.0000 -0.1592294038
C   C26       1.0  0.06540  0.84580  0.14228  1.0000 -0.1592294038
C   C27       1.0  0.56540  0.15420  0.35772  1.0000 -0.1592294038
C   C28       1.0  0.43460  0.34580  0.85772  1.0000 -0.1592294038
C   C29       1.0  0.07340  0.80810  0.76354  1.0000 0.088781263
C   C30       1.0  0.92660  0.69190  0.26354  1.0000 0.0818922402
C   C31       1.0  0.42660  0.30810  0.23646  1.0000 0.0818922402
C   C32       1.0  0.57340  0.19190  0.73646  1.0000 0.0818922402
C   C33       1.0  0.92600  0.69860  0.62812  1.0000 0.0608421335
C   C34       1.0  0.07400  0.80140  0.12812  1.0000 0.0608421335
C   C35       1.0  0.57400  0.19860  0.37188  1.0000 0.0608421335
C   C36       1.0  0.42600  0.30140  0.87188  1.0000 0.0608421335
C   C37       1.0  0.88360  0.65640  0.58433  1.0000 0.0818922402
C   C38       1.0  0.11640  0.84360  0.08433  1.0000 0.0818922402
C   C39       1.0  0.61640  0.15640  0.41567  1.0000 0.0818922402
C   C40       1.0  0.38360  0.34360  0.91567  1.0000 0.0818922402
C   C41       1.0  0.91670  0.61340  0.62649  1.0000 0.088781263
C   C42       1.0  0.08330  0.88660  0.12649  1.0000 0.088781263
C   C43       1.0  0.58330  0.11340  0.37351  1.0000 0.088781263
C   C44       1.0  0.41670  0.38660  0.87351  1.0000 0.088781263
C   C45       1.0  0.04700  0.72620  0.76155  1.0000 0.1008773725
C   C46       1.0  0.95300  0.77380  0.26155  1.0000 0.1008773725
C   C47       1.0  0.45300  0.22620  0.23845  1.0000 0.1008773725
C   C48       1.0  0.54700  0.27380  0.73845  1.0000 0.1008773725
C   C49       1.0  0.31160  0.59000  0.42847  1.0000 0.0608421335
C   C50       1.0  0.68840  0.91000  0.92847  1.0000 0.0608421335
C   C51       1.0  0.18840  0.09000  0.57153  1.0000 0.0716693338
C   C52       1.0  0.81160  0.41000  0.07153  1.0000 0.0608421335
C   C53       1.0  0.87230  0.58490  0.51503  1.0000 0.0716693338
C   C54       1.0  0.12770  0.91510  0.01503  1.0000 0.0716693338
C   C55       1.0  0.62770  0.08490  0.48497  1.0000 0.0716693338
C   C56       1.0  0.37230  0.41510  0.98497  1.0000 0.0716693338
C   C57       1.0  0.01090  0.73030  0.73327  1.0000 -0.1397042262
C   C58       1.0  0.98910  0.76970  0.23327  1.0000 -0.1397042262
C   C59       1.0  0.48910  0.23030  0.26673  1.0000 -0.1397042262
C   C60       1.0  0.51090  0.26970  0.76673  1.0000 -0.1397042262
C   C61       1.0  0.07270  0.64010  0.41514  1.0000 0.3711765336
C   C62       1.0  0.92730  0.85990  0.91514  1.0000 0.3711765336
C   C63       1.0  0.42730  0.14010  0.58486  1.0000 0.3711765336
C   C64       1.0  0.57270  0.35990  0.08486  1.0000 0.3711765336
C   C65       1.0  0.06270  0.56140  0.50792  1.0000 -0.1397042262
C   C66       1.0  0.93730  0.93860  0.00792  1.0000 -0.1397042262
C   C67       1.0  0.43730  0.06140  0.49208  1.0000 -0.1397042262
C   C68       1.0  0.56270  0.43860  0.99208  1.0000 -0.1397042262
C   C69       1.0  0.36540  0.57290  0.45160  1.0000 -0.129417149
C   C70       1.0  0.63460  0.92710  0.95160  1.0000 -0.129417149
C   C71       1.0  0.13460  0.07290  0.54840  1.0000 -0.129417149
C   C72       1.0  0.86540  0.42710  0.04840  1.0000 -0.129417149
C   C73       1.0  0.01970  0.66500  0.39092  1.0000 0.0608421335
C   C74       1.0  0.98030  0.83500  0.89092  1.0000 0.0608421335
C   C75       1.0  0.48030  0.16500  0.60908  1.0000 0.0608421335
C   C76       1.0  0.51970  0.33500  0.10908  1.0000 0.0608421335
C   C77       1.0  0.01130  0.54930  0.53300  1.0000 0.0818922402
C   C78       1.0  0.98870  0.95070  0.03300  1.0000 0.0818922402
C   C79       1.0  0.48870  0.04930  0.46700  1.0000 0.0818922402
C   C80       1.0  0.51130  0.45070  0.96700  1.0000 0.0818922402
C   C81       1.0  0.03880  0.81450  0.73572  1.0000 -0.171298081
C   C82       1.0  0.96120  0.68550  0.23572  1.0000 -0.1592294038
C   C83       1.0  0.46120  0.31450  0.26428  1.0000 -0.1592294038
C   C84       1.0  0.53880  0.18550  0.76428  1.0000 -0.1592294038
C   C85       1.0  0.06710  0.68880  0.36855  1.0000 -0.129417149
C   C86       1.0  0.93290  0.81120  0.86855  1.0000 -0.129417149
C   C87       1.0  0.43290  0.18880  0.63145  1.0000 -0.129417149
C   C88       1.0  0.56710  0.31120  0.13145  1.0000 -0.129417149
C   C89       1.0  0.07110  0.60340  0.45943  1.0000 0.3767974493
C   C90       1.0  0.92890  0.89660  0.95943  1.0000 0.3767974493
C   C91       1.0  0.42890  0.10340  0.54057  1.0000 0.3767974493
C   C92       1.0  0.57110  0.39660  0.04057  1.0000 0.3767974493
C   C93       1.0  0.91890  0.66400  0.39025  1.0000 -0.129417149
C   C94       1.0  0.08110  0.83600  0.89025  1.0000 -0.129417149
C   C95       1.0  0.58110  0.16400  0.60975  1.0000 -0.129417149
C   C96       1.0  0.41890  0.33600  0.10975  1.0000 -0.129417149
C   C97       1.0  0.20820  0.60560  0.43257  1.0000 0.3767974493
C   C98       1.0  0.79180  0.89440  0.93257  1.0000 0.3767974493
C   C99       1.0  0.29180  0.10560  0.56743  1.0000 0.3767974493
C   C100      1.0  0.70820  0.39440  0.06743  1.0000 0.3767974493
C   C101      1.0  0.90080  0.69950  0.59866  1.0000 -0.1592294038
C   C102      1.0  0.09920  0.80050  0.09866  1.0000 -0.1592294038
C   C103      1.0  0.59920  0.19950  0.40134  1.0000 -0.1592294038
C   C104      1.0  0.40080  0.30050  0.90134  1.0000 -0.1592294038
C   C105      1.0  0.01720  0.58770  0.48620  1.0000 0.0495078595
C   C106      1.0  0.98280  0.91230  0.98620  1.0000 0.0495078595
C   C107      1.0  0.48280  0.08770  0.51380  1.0000 0.0495078595
C   C108      1.0  0.51720  0.41230  0.01380  1.0000 0.0495078595
C   C109      1.0  0.45730  0.55620  0.44639  1.0000 0.0818922402
C   C110      1.0  0.54270  0.94380  0.94639  1.0000 0.0818922402
C   C111      1.0  0.04270  0.05620  0.55361  1.0000 0.0818922402
C   C112      1.0  0.95730  0.44380  0.05361  1.0000 0.0818922402
C   C113      1.0  0.92010  0.59890  0.48933  1.0000 -0.1397042262
C   C114      1.0  0.07990  0.90110  0.98933  1.0000 -0.1397042262
C   C115      1.0  0.57990  0.09890  0.51067  1.0000 -0.1397042262
C   C116      1.0  0.42010  0.40110  0.01067  1.0000 -0.1397042262
C   C117      1.0  0.44360  0.57220  0.39732  1.0000 0.0818922402
C   C118      1.0  0.55640  0.92780  0.89732  1.0000 0.0818922402
C   C119      1.0  0.05640  0.07220  0.60268  1.0000 0.0818922402
C   C120      1.0  0.94360  0.42780  0.10268  1.0000 0.0818922402
C   C121      1.0  0.35090  0.58980  0.40042  1.0000 -0.120433535
C   C122      1.0  0.64910  0.91020  0.90042  1.0000 -0.120433535
C   C123      1.0  0.14910  0.08980  0.59958  1.0000 -0.120433535
C   C124      1.0  0.85090  0.41020  0.09958  1.0000 -0.120433535
C   C125      1.0  0.93450  0.87150  0.63372  1.0000 0.0608421335
C   C126      1.0  0.06550  0.62850  0.13372  1.0000 0.0608421335
C   C127      1.0  0.56550  0.37150  0.36628  1.0000 0.0608421335
C   C128      1.0  0.43450  0.12850  0.86628  1.0000 0.0608421335
C   C129      1.0  0.91130  0.87500  0.60417  1.0000 -0.1397042262
C   C130      1.0  0.08870  0.62500  0.10417  1.0000 -0.1397042262
C   C131      1.0  0.58870  0.37500  0.39583  1.0000 -0.1397042262
C   C132      1.0  0.41130  0.12500  0.89583  1.0000 -0.1397042262
C   C133      1.0  0.94380  0.91330  0.64976  1.0000 -0.1516962084
C   C134      1.0  0.05620  0.58670  0.14976  1.0000 -0.1516962084
C   C135      1.0  0.55620  0.41330  0.35024  1.0000 -0.1516962084
C   C136      1.0  0.44380  0.08670  0.85024  1.0000 -0.1516962084
C   C137      1.0  0.89860  0.91980  0.59170  1.0000 0.088781263
C   C138      1.0  0.10140  0.58020  0.09170  1.0000 0.088781263
C   C139      1.0  0.60140  0.41980  0.40830  1.0000 0.088781263
C   C140      1.0  0.39860  0.08020  0.90830  1.0000 0.088781263
C   C141      1.0  0.92890  0.95680  0.63576  1.0000 0.088781263
C   C142      1.0  0.07110  0.54320  0.13576  1.0000 0.088781263
C   C143      1.0  0.57110  0.45680  0.36424  1.0000 0.088781263
C   C144      1.0  0.42890  0.04320  0.86424  1.0000 0.088781263
C   C145      1.0  0.05440  0.17600  0.35206  1.0000 0.3711765336
C   C146      1.0  0.94560  0.32400  0.85206  1.0000 0.3711765336
C   C147      1.0  0.44560  0.67600  0.64794  1.0000 0.3711765336
C   C148      1.0  0.55440  0.82400  0.14794  1.0000 0.3711765336
C   C149      1.0  0.98510  0.28920  0.65300  1.0000 0.0818922402
C   C150      1.0  0.01490  0.21080  0.15300  1.0000 0.0818922402
C   C151      1.0  0.51490  0.78920  0.34700  1.0000 0.0818922402
C   C152      1.0  0.48510  0.71080  0.84700  1.0000 0.0818922402
C   C153      1.0  0.99160  0.22480  0.28088  1.0000 0.0608421335
C   C154      1.0  0.00840  0.27520  0.78088  1.0000 0.0608421335
C   C155      1.0  0.50840  0.72480  0.71912  1.0000 0.0608421335
C   C156      1.0  0.49160  0.77520  0.21912  1.0000 0.0608421335
C   C157      1.0  0.02180  0.22050  0.31191  1.0000 0.3711765336
C   C158      1.0  0.97820  0.27950  0.81191  1.0000 0.3649633791
C   C159      1.0  0.47820  0.72050  0.68809  1.0000 0.3711765336
C   C160      1.0  0.52180  0.77950  0.18809  1.0000 0.3711765336
C   C161      1.0  0.12830  0.31460  0.63277  1.0000 0.088781263
C   C162      1.0  0.87170  0.18540  0.13277  1.0000 0.088781263
C   C163      1.0  0.37170  0.81460  0.36723  1.0000 0.088781263
C   C164      1.0  0.62830  0.68540  0.86723  1.0000 0.088781263
C   C165      1.0  0.05730  0.25660  0.35484  1.0000 0.3711765336
C   C166      1.0  0.94270  0.24340  0.85484  1.0000 0.3711765336
C   C167      1.0  0.44270  0.75660  0.64516  1.0000 0.3711765336
C   C168      1.0  0.55730  0.74340  0.14516  1.0000 0.3711765336
C   C169      1.0  0.06540  0.34580  0.35772  1.0000 -0.1592294038
C   C170      1.0  0.93460  0.15420  0.85772  1.0000 -0.1592294038
C   C171      1.0  0.43460  0.84580  0.64228  1.0000 -0.1592294038
C   C172      1.0  0.56540  0.65420  0.14228  1.0000 -0.1592294038
C   C173      1.0  0.92660  0.19190  0.23646  1.0000 0.0818922402
C   C174      1.0  0.07340  0.30810  0.73646  1.0000 0.088781263
C   C175      1.0  0.57340  0.69190  0.76354  1.0000 0.0818922402
C   C176      1.0  0.42660  0.80810  0.26354  1.0000 0.0818922402
C   C177      1.0  0.07400  0.30140  0.37188  1.0000 0.0608421335
C   C178      1.0  0.92600  0.19860  0.87188  1.0000 0.0608421335
C   C179      1.0  0.42600  0.80140  0.62812  1.0000 0.0608421335
C   C180      1.0  0.57400  0.69860  0.12812  1.0000 0.0608421335
C   C181      1.0  0.11640  0.34360  0.41567  1.0000 0.0818922402
C   C182      1.0  0.88360  0.15640  0.91567  1.0000 0.0818922402
C   C183      1.0  0.38360  0.84360  0.58433  1.0000 0.0818922402
C   C184      1.0  0.61640  0.65640  0.08433  1.0000 0.0818922402
C   C185      1.0  0.08330  0.38660  0.37351  1.0000 0.088781263
C   C186      1.0  0.91670  0.11340  0.87351  1.0000 0.088781263
C   C187      1.0  0.41670  0.88660  0.62649  1.0000 0.088781263
C   C188      1.0  0.58330  0.61340  0.12649  1.0000 0.088781263
C   C189      1.0  0.95300  0.27380  0.23845  1.0000 0.1008773725
C   C190      1.0  0.04700  0.22620  0.73845  1.0000 0.1008773725
C   C191      1.0  0.54700  0.77380  0.76155  1.0000 0.1008773725
C   C192      1.0  0.45300  0.72620  0.26155  1.0000 0.1008773725
C   C193      1.0  0.68840  0.41000  0.57153  1.0000 0.0608421335
C   C194      1.0  0.31160  0.09000  0.07153  1.0000 0.0608421335
C   C195      1.0  0.81160  0.91000  0.42847  1.0000 0.0608421335
C   C196      1.0  0.18840  0.59000  0.92847  1.0000 0.0716693338
C   C197      1.0  0.12770  0.41510  0.48497  1.0000 0.0716693338
C   C198      1.0  0.87230  0.08490  0.98497  1.0000 0.0716693338
C   C199      1.0  0.37230  0.91510  0.51503  1.0000 0.0716693338
C   C200      1.0  0.62770  0.58490  0.01503  1.0000 0.0716693338
C   C201      1.0  0.98910  0.26970  0.26673  1.0000 -0.1397042262
C   C202      1.0  0.01090  0.23030  0.76673  1.0000 -0.1397042262
C   C203      1.0  0.51090  0.76970  0.73327  1.0000 -0.1397042262
C   C204      1.0  0.48910  0.73030  0.23327  1.0000 -0.1397042262
C   C205      1.0  0.92730  0.35990  0.58486  1.0000 0.3711765336
C   C206      1.0  0.07270  0.14010  0.08486  1.0000 0.3711765336
C   C207      1.0  0.57270  0.85990  0.41514  1.0000 0.3711765336
C   C208      1.0  0.42730  0.64010  0.91514  1.0000 0.3711765336
C   C209      1.0  0.93730  0.43860  0.49208  1.0000 -0.1397042262
C   C210      1.0  0.06270  0.06140  0.99208  1.0000 -0.1397042262
C   C211      1.0  0.56270  0.93860  0.50792  1.0000 -0.1397042262
C   C212      1.0  0.43730  0.56140  0.00792  1.0000 -0.1397042262
C   C213      1.0  0.63460  0.42710  0.54840  1.0000 -0.129417149
C   C214      1.0  0.36540  0.07290  0.04840  1.0000 -0.129417149
C   C215      1.0  0.86540  0.92710  0.45160  1.0000 -0.129417149
C   C216      1.0  0.13460  0.57290  0.95160  1.0000 -0.129417149
C   C217      1.0  0.98030  0.33500  0.60908  1.0000 0.0608421335
C   C218      1.0  0.01970  0.16500  0.10908  1.0000 0.0608421335
C   C219      1.0  0.51970  0.83500  0.39092  1.0000 0.0608421335
C   C220      1.0  0.48030  0.66500  0.89092  1.0000 0.0608421335
C   C221      1.0  0.98870  0.45070  0.46700  1.0000 0.0818922402
C   C222      1.0  0.01130  0.04930  0.96700  1.0000 0.0818922402
C   C223      1.0  0.51130  0.95070  0.53300  1.0000 0.0818922402
C   C224      1.0  0.48870  0.54930  0.03300  1.0000 0.0818922402
C   C225      1.0  0.96120  0.18550  0.26428  1.0000 -0.1592294038
C   C226      1.0  0.03880  0.31450  0.76428  1.0000 -0.171298081
C   C227      1.0  0.53880  0.68550  0.73572  1.0000 -0.1592294038
C   C228      1.0  0.46120  0.81450  0.23572  1.0000 -0.1592294038
C   C229      1.0  0.93290  0.31120  0.63145  1.0000 -0.129417149
C   C230      1.0  0.06710  0.18880  0.13145  1.0000 -0.129417149
C   C231      1.0  0.56710  0.81120  0.36855  1.0000 -0.129417149
C   C232      1.0  0.43290  0.68880  0.86855  1.0000 -0.129417149
C   C233      1.0  0.92890  0.39660  0.54057  1.0000 0.3767974493
C   C234      1.0  0.07110  0.10340  0.04057  1.0000 0.3767974493
C   C235      1.0  0.57110  0.89660  0.45943  1.0000 0.3767974493
C   C236      1.0  0.42890  0.60340  0.95943  1.0000 0.3767974493
C   C237      1.0  0.08110  0.33600  0.60975  1.0000 -0.129417149
C   C238      1.0  0.91890  0.16400  0.10975  1.0000 -0.129417149
C   C239      1.0  0.41890  0.83600  0.39025  1.0000 -0.129417149
C   C240      1.0  0.58110  0.66400  0.89025  1.0000 -0.129417149
C   C241      1.0  0.79180  0.39440  0.56743  1.0000 0.3767974493
C   C242      1.0  0.20820  0.10560  0.06743  1.0000 0.3767974493
C   C243      1.0  0.70820  0.89440  0.43257  1.0000 0.3767974493
C   C244      1.0  0.29180  0.60560  0.93257  1.0000 0.3767974493
C   C245      1.0  0.09920  0.30050  0.40134  1.0000 -0.1592294038
C   C246      1.0  0.90080  0.19950  0.90134  1.0000 -0.1592294038
C   C247      1.0  0.40080  0.80050  0.59866  1.0000 -0.1592294038
C   C248      1.0  0.59920  0.69950  0.09866  1.0000 -0.1592294038
C   C249      1.0  0.98280  0.41230  0.51380  1.0000 0.0495078595
C   C250      1.0  0.01720  0.08770  0.01380  1.0000 0.0495078595
C   C251      1.0  0.51720  0.91230  0.48620  1.0000 0.0495078595
C   C252      1.0  0.48280  0.58770  0.98620  1.0000 0.0495078595
C   C253      1.0  0.54270  0.44380  0.55361  1.0000 0.0818922402
C   C254      1.0  0.45730  0.05620  0.05361  1.0000 0.0818922402
C   C255      1.0  0.95730  0.94380  0.44639  1.0000 0.0818922402
C   C256      1.0  0.04270  0.55620  0.94639  1.0000 0.0818922402
C   C257      1.0  0.07990  0.40110  0.51067  1.0000 -0.1397042262
C   C258      1.0  0.92010  0.09890  0.01067  1.0000 -0.1397042262
C   C259      1.0  0.42010  0.90110  0.48933  1.0000 -0.1397042262
C   C260      1.0  0.57990  0.59890  0.98933  1.0000 -0.1397042262
C   C261      1.0  0.55640  0.42780  0.60268  1.0000 0.0818922402
C   C262      1.0  0.44360  0.07220  0.10268  1.0000 0.0818922402
C   C263      1.0  0.94360  0.92780  0.39732  1.0000 0.0818922402
C   C264      1.0  0.05640  0.57220  0.89732  1.0000 0.0818922402
C   C265      1.0  0.64910  0.41020  0.59958  1.0000 -0.120433535
C   C266      1.0  0.35090  0.08980  0.09958  1.0000 -0.120433535
C   C267      1.0  0.85090  0.91020  0.40042  1.0000 -0.120433535
C   C268      1.0  0.14910  0.58980  0.90042  1.0000 -0.120433535
C   C269      1.0  0.06550  0.12850  0.36628  1.0000 0.0608421335
C   C270      1.0  0.93450  0.37150  0.86628  1.0000 0.0608421335
C   C271      1.0  0.43450  0.62850  0.63372  1.0000 0.0608421335
C   C272      1.0  0.56550  0.87150  0.13372  1.0000 0.0608421335
C   C273      1.0  0.08870  0.12500  0.39583  1.0000 -0.1397042262
C   C274      1.0  0.91130  0.37500  0.89583  1.0000 -0.1397042262
C   C275      1.0  0.41130  0.62500  0.60417  1.0000 -0.1397042262
C   C276      1.0  0.58870  0.87500  0.10417  1.0000 -0.1397042262
C   C277      1.0  0.05620  0.08670  0.35024  1.0000 -0.1516962084
C   C278      1.0  0.94380  0.41330  0.85024  1.0000 -0.1516962084
C   C279      1.0  0.44380  0.58670  0.64976  1.0000 -0.1516962084
C   C280      1.0  0.55620  0.91330  0.14976  1.0000 -0.1516962084
C   C281      1.0  0.10140  0.08020  0.40830  1.0000 0.088781263
C   C282      1.0  0.89860  0.41980  0.90830  1.0000 0.088781263
C   C283      1.0  0.39860  0.58020  0.59170  1.0000 0.088781263
C   C284      1.0  0.60140  0.91980  0.09170  1.0000 0.088781263
C   C285      1.0  0.07110  0.04320  0.36424  1.0000 0.088781263
C   C286      1.0  0.92890  0.45680  0.86424  1.0000 0.088781263
C   C287      1.0  0.42890  0.54320  0.63576  1.0000 0.088781263
C   C288      1.0  0.57110  0.95680  0.13576  1.0000 0.088781263
I   I1        1.0  0.31663  0.80511  0.80567  1.0000 -0.4616098437
I   I2        1.0  0.68337  0.69489  0.30567  1.0000 -0.4616098437
I   I3        1.0  0.18337  0.30511  0.19433  1.0000 -0.4616098437
I   I4        1.0  0.81663  0.19489  0.69433  1.0000 -0.4616098437
I   I5        1.0  0.70916  0.50879  0.46218  1.0000 -0.4687836651
I   I6        1.0  0.29084  0.99121  0.96218  1.0000 -0.4687836651
I   I7        1.0  0.79084  0.00879  0.53782  1.0000 -0.4687836651
I   I8        1.0  0.20916  0.49121  0.03782  1.0000 -0.4687836651
I   I9        1.0  0.93551  0.48523  0.60545  1.0000 -0.4406933371
I   I10       1.0  0.06449  0.01477  0.10545  1.0000 -0.4406933371
I   I11       1.0  0.56449  0.98523  0.39455  1.0000 -0.4406933371
I   I12       1.0  0.43551  0.51477  0.89455  1.0000 -0.4406933371
I   I13       1.0  0.17641  0.66712  0.82545  1.0000 -0.4616098437
I   I14       1.0  0.82359  0.83288  0.32545  1.0000 -0.4616098437
I   I15       1.0  0.32359  0.16712  0.17455  1.0000 -0.4616098437
I   I16       1.0  0.67641  0.33288  0.67455  1.0000 -0.4616098437
I   I17       1.0  0.66734  0.55705  0.56759  1.0000 -0.4528671909
I   I18       1.0  0.33266  0.94295  0.06759  1.0000 -0.4528671909
I   I19       1.0  0.83266  0.05705  0.43241  1.0000 -0.4528671909
I   I20       1.0  0.16734  0.44295  0.93241  1.0000 -0.4528671909
I   I21       1.0  0.71641  0.57295  0.37231  1.0000 -0.4406933371
I   I22       1.0  0.28359  0.92705  0.87231  1.0000 -0.4406933371
I   I23       1.0  0.78359  0.07295  0.62769  1.0000 -0.4406933371
I   I24       1.0  0.21641  0.42705  0.12769  1.0000 -0.4406933371
I   I25       1.0  0.68337  0.19489  0.19433  1.0000 -0.4616098437
I   I26       1.0  0.31663  0.30511  0.69433  1.0000 -0.4616098437
I   I27       1.0  0.81663  0.69489  0.80567  1.0000 -0.4616098437
I   I28       1.0  0.18337  0.80511  0.30567  1.0000 -0.4616098437
I   I29       1.0  0.29084  0.49121  0.53782  1.0000 -0.4687836651
I   I30       1.0  0.70916  0.00879  0.03782  1.0000 -0.4687836651
I   I31       1.0  0.20916  0.99121  0.46218  1.0000 -0.4687836651
I   I32       1.0  0.79084  0.50879  0.96218  1.0000 -0.4687836651
I   I33       1.0  0.06449  0.51477  0.39455  1.0000 -0.4406933371
I   I34       1.0  0.93551  0.98523  0.89455  1.0000 -0.4406933371
I   I35       1.0  0.43551  0.01477  0.60545  1.0000 -0.4406933371
I   I36       1.0  0.56449  0.48523  0.10545  1.0000 -0.4406933371
I   I37       1.0  0.82359  0.33288  0.17455  1.0000 -0.4616098437
I   I38       1.0  0.17641  0.16712  0.67455  1.0000 -0.4616098437
I   I39       1.0  0.67641  0.83288  0.82545  1.0000 -0.4616098437
I   I40       1.0  0.32359  0.66712  0.32545  1.0000 -0.4616098437
I   I41       1.0  0.33266  0.44295  0.43241  1.0000 -0.4528671909
I   I42       1.0  0.66734  0.05705  0.93241  1.0000 -0.4528671909
I   I43       1.0  0.16734  0.94295  0.56759  1.0000 -0.4528671909
I   I44       1.0  0.83266  0.55705  0.06759  1.0000 -0.4528671909
I   I45       1.0  0.28359  0.42705  0.62769  1.0000 -0.4406933371
I   I46       1.0  0.71641  0.07295  0.12769  1.0000 -0.4406933371
I   I47       1.0  0.21641  0.92705  0.37231  1.0000 -0.4406933371
I   I48       1.0  0.78359  0.57295  0.87231  1.0000 -0.4406933371
N   N1        1.0  0.08010  0.76480  0.77650  1.0000 -0.1789529647
N   N2        1.0  0.91990  0.73520  0.27650  1.0000 -0.1789529647
N   N3        1.0  0.41990  0.26480  0.22350  1.0000 -0.1789529647
N   N4        1.0  0.58010  0.23520  0.72350  1.0000 -0.1789529647
N   N5        1.0  0.91730  0.70880  0.34571  1.0000 -0.1789529647
N   N6        1.0  0.08270  0.79120  0.84571  1.0000 -0.1789529647
N   N7        1.0  0.58270  0.20880  0.65429  1.0000 -0.1789529647
N   N8        1.0  0.41730  0.29120  0.15429  1.0000 -0.1789529647
N   N9        1.0  0.91750  0.56120  0.53702  1.0000 -0.1907896507
N   N10       1.0  0.08250  0.93880  0.03702  1.0000 -0.1907896507
N   N11       1.0  0.58250  0.06120  0.46298  1.0000 -0.1907896507
N   N12       1.0  0.41750  0.43880  0.96298  1.0000 -0.1907896507
N   N13       1.0  0.96880  0.82330  0.67653  1.0000 -0.4170371892
N   N14       1.0  0.03120  0.67670  0.17653  1.0000 -0.4170371892
N   N15       1.0  0.53120  0.32330  0.32347  1.0000 -0.4170371892
N   N16       1.0  0.46880  0.17670  0.82347  1.0000 -0.4170371892
N   N17       1.0  0.96570  0.73860  0.67362  1.0000 -0.4141067896
N   N18       1.0  0.03430  0.76140  0.17362  1.0000 -0.4170371892
N   N19       1.0  0.53430  0.23860  0.32638  1.0000 -0.4170371892
N   N20       1.0  0.46570  0.26140  0.82638  1.0000 -0.4141067896
N   N21       1.0  0.49760  0.55590  0.41969  1.0000 -0.1789529647
N   N22       1.0  0.50240  0.94410  0.91969  1.0000 -0.1789529647
N   N23       1.0  0.00240  0.05590  0.58031  1.0000 -0.1789529647
N   N24       1.0  0.99760  0.44410  0.08031  1.0000 -0.171298081
N   N25       1.0  0.93140  0.78540  0.63134  1.0000 -0.4170371892
N   N26       1.0  0.06860  0.71460  0.13134  1.0000 -0.4170371892
N   N27       1.0  0.56860  0.28540  0.36866  1.0000 -0.4170371892
N   N28       1.0  0.43140  0.21460  0.86866  1.0000 -0.4170371892
N   N29       1.0  0.89070  0.61420  0.59790  1.0000 -0.1789529647
N   N30       1.0  0.10930  0.88580  0.09790  1.0000 -0.1789529647
N   N31       1.0  0.60930  0.11420  0.40210  1.0000 -0.1789529647
N   N32       1.0  0.39070  0.38580  0.90210  1.0000 -0.1789529647
N   N33       1.0  0.16690  0.63120  0.41122  1.0000 -0.3699656609
N   N34       1.0  0.83310  0.86880  0.91122  1.0000 -0.3699656609
N   N35       1.0  0.33310  0.13120  0.58878  1.0000 -0.3699656609
N   N36       1.0  0.66690  0.36880  0.08878  1.0000 -0.3699656609
N   N37       1.0  0.02070  0.62730  0.43876  1.0000 -0.3922863897
N   N38       1.0  0.97930  0.87270  0.93876  1.0000 -0.3922863897
N   N39       1.0  0.47930  0.12730  0.56124  1.0000 -0.3922863897
N   N40       1.0  0.52070  0.37270  0.06124  1.0000 -0.3922863897
N   N41       1.0  0.16470  0.59150  0.45758  1.0000 -0.3829033333
N   N42       1.0  0.83530  0.90850  0.95758  1.0000 -0.3829033333
N   N43       1.0  0.33530  0.09150  0.54242  1.0000 -0.3829033333
N   N44       1.0  0.66470  0.40850  0.04242  1.0000 -0.3829033333
N   N45       1.0  0.90500  0.96010  0.60728  1.0000 -0.1789529647
N   N46       1.0  0.09500  0.53990  0.10728  1.0000 -0.1789529647
N   N47       1.0  0.59500  0.46010  0.39272  1.0000 -0.1789529647
N   N48       1.0  0.40500  0.03990  0.89272  1.0000 -0.1789529647
N   N49       1.0  0.91990  0.23520  0.22350  1.0000 -0.1789529647
N   N50       1.0  0.08010  0.26480  0.72350  1.0000 -0.1789529647
N   N51       1.0  0.58010  0.73520  0.77650  1.0000 -0.1789529647
N   N52       1.0  0.41990  0.76480  0.27650  1.0000 -0.1789529647
N   N53       1.0  0.08270  0.29120  0.65429  1.0000 -0.171298081
N   N54       1.0  0.91730  0.20880  0.15429  1.0000 -0.1789529647
N   N55       1.0  0.41730  0.79120  0.34571  1.0000 -0.1789529647
N   N56       1.0  0.58270  0.70880  0.84571  1.0000 -0.1789529647
N   N57       1.0  0.08250  0.43880  0.46298  1.0000 -0.1907896507
N   N58       1.0  0.91750  0.06120  0.96298  1.0000 -0.1907896507
N   N59       1.0  0.41750  0.93880  0.53702  1.0000 -0.1907896507
N   N60       1.0  0.58250  0.56120  0.03702  1.0000 -0.1907896507
N   N61       1.0  0.03120  0.17670  0.32347  1.0000 -0.4170371892
N   N62       1.0  0.96880  0.32330  0.82347  1.0000 -0.4170371892
N   N63       1.0  0.46880  0.67670  0.67653  1.0000 -0.4170371892
N   N64       1.0  0.53120  0.82330  0.17653  1.0000 -0.4170371892
N   N65       1.0  0.03430  0.26140  0.32638  1.0000 -0.4170371892
N   N66       1.0  0.96570  0.23860  0.82638  1.0000 -0.4141067896
N   N67       1.0  0.46570  0.76140  0.67362  1.0000 -0.4141067896
N   N68       1.0  0.53430  0.73860  0.17362  1.0000 -0.4141067896
N   N69       1.0  0.50240  0.44410  0.58031  1.0000 -0.1789529647
N   N70       1.0  0.49760  0.05590  0.08031  1.0000 -0.1789529647
N   N71       1.0  0.99760  0.94410  0.41969  1.0000 -0.171298081
N   N72       1.0  0.00240  0.55590  0.91969  1.0000 -0.1789529647
N   N73       1.0  0.06860  0.21460  0.36866  1.0000 -0.4170371892
N   N74       1.0  0.93140  0.28540  0.86866  1.0000 -0.4170371892
N   N75       1.0  0.43140  0.71460  0.63134  1.0000 -0.4170371892
N   N76       1.0  0.56860  0.78540  0.13134  1.0000 -0.4170371892
N   N77       1.0  0.10930  0.38580  0.40210  1.0000 -0.1789529647
N   N78       1.0  0.89070  0.11420  0.90210  1.0000 -0.1789529647
N   N79       1.0  0.39070  0.88580  0.59790  1.0000 -0.1789529647
N   N80       1.0  0.60930  0.61420  0.09790  1.0000 -0.1789529647
N   N81       1.0  0.83310  0.36880  0.58878  1.0000 -0.3699656609
N   N82       1.0  0.16690  0.13120  0.08878  1.0000 -0.3699656609
N   N83       1.0  0.66690  0.86880  0.41122  1.0000 -0.3699656609
N   N84       1.0  0.33310  0.63120  0.91122  1.0000 -0.3699656609
N   N85       1.0  0.97930  0.37270  0.56124  1.0000 -0.3922863897
N   N86       1.0  0.02070  0.12730  0.06124  1.0000 -0.3922863897
N   N87       1.0  0.52070  0.87270  0.43876  1.0000 -0.3922863897
N   N88       1.0  0.47930  0.62730  0.93876  1.0000 -0.3922863897
N   N89       1.0  0.83530  0.40850  0.54242  1.0000 -0.3829033333
N   N90       1.0  0.16470  0.09150  0.04242  1.0000 -0.3829033333
N   N91       1.0  0.66470  0.90850  0.45758  1.0000 -0.3829033333
N   N92       1.0  0.33530  0.59150  0.95758  1.0000 -0.3829033333
N   N93       1.0  0.09500  0.03990  0.39272  1.0000 -0.1789529647
N   N94       1.0  0.90500  0.46010  0.89272  1.0000 -0.1789529647
N   N95       1.0  0.40500  0.53990  0.60728  1.0000 -0.1789529647
N   N96       1.0  0.59500  0.96010  0.10728  1.0000 -0.1789529647
