# DDEC6 charges by PACMAN v1.1 (https://github.com/mtap-research/PACMAN-charge/)
data_2014[Fe][nan]3[ASR]1
_chemical_formula_sum              "Fe6 H6 C24 O18"
_cell_length_a       15.2037
_cell_length_b       15.2037
_cell_length_c       15.2037
_cell_angle_alpha    117.785
_cell_angle_beta     117.785
_cell_angle_gamma    117.785

_symmetry_space_group_name_H-M    "P 1"
_symmetry_Int_Tables_number       1

loop_
  _symmetry_equiv_pos_as_xyz
  'x, y, z'

loop_
  _atom_site_type_symbol
  _atom_site_label
  _atom_site_symmetry_multiplicity
  _atom_site_fract_x
  _atom_site_fract_y
  _atom_site_fract_z
  _atom_site_occupancy
  _atom_site_charge
Fe  Fe1       1.0  0.10870  0.52439  0.78691  1.0000 0.9585203103
Fe  Fe2       1.0  0.52439  0.78691  0.10870  1.0000 0.9585203103
Fe  Fe3       1.0  0.78691  0.10870  0.52439  1.0000 0.9585203103
Fe  Fe4       1.0  0.89130  0.47561  0.21309  1.0000 0.9585203103
Fe  Fe5       1.0  0.47561  0.21309  0.89130  1.0000 0.9585203103
Fe  Fe6       1.0  0.21309  0.89130  0.47561  1.0000 0.9585203103
H   H1        1.0  0.65990  0.18830  0.63400  1.0000 0.1405745891
H   H2        1.0  0.18830  0.63400  0.65990  1.0000 0.1405745891
H   H3        1.0  0.63400  0.65990  0.18830  1.0000 0.1405745891
H   H4        1.0  0.34010  0.81170  0.36600  1.0000 0.1405745891
H   H5        1.0  0.81170  0.36600  0.34010  1.0000 0.1405745891
H   H6        1.0  0.36600  0.34010  0.81170  1.0000 0.1405745891
C   C1        1.0  0.34858  0.73741  0.17401  1.0000 0.6104230058
C   C2        1.0  0.73741  0.17401  0.34858  1.0000 0.6104230058
C   C3        1.0  0.17401  0.34858  0.73741  1.0000 0.6104230058
C   C4        1.0  0.65142  0.26259  0.82599  1.0000 0.6104230058
C   C5        1.0  0.26259  0.82599  0.65142  1.0000 0.6104230058
C   C6        1.0  0.82599  0.65142  0.26259  1.0000 0.6104230058
C   C7        1.0  0.16547  0.61709  0.08534  1.0000 -0.1148286539
C   C8        1.0  0.61709  0.08534  0.16547  1.0000 -0.1155971068
C   C9        1.0  0.08534  0.16547  0.61709  1.0000 -0.1155971068
C   C10       1.0  0.83453  0.38291  0.91466  1.0000 -0.1148286539
C   C11       1.0  0.38291  0.91466  0.83453  1.0000 -0.1148286539
C   C12       1.0  0.91466  0.83453  0.38291  1.0000 -0.1148286539
C   C13       1.0  0.97046  0.43639  0.86795  1.0000 0.3141501916
C   C14       1.0  0.43639  0.86795  0.97046  1.0000 0.3141501916
C   C15       1.0  0.86795  0.97046  0.43639  1.0000 0.3150131476
C   C16       1.0  0.02954  0.56361  0.13205  1.0000 0.3141501916
C   C17       1.0  0.56361  0.13205  0.02954  1.0000 0.3150131476
C   C18       1.0  0.13205  0.02954  0.56361  1.0000 0.3141501916
C   C19       1.0  0.80836  0.32623  0.79371  1.0000 -0.2055227834
C   C20       1.0  0.32623  0.79371  0.80836  1.0000 -0.2042376029
C   C21       1.0  0.79371  0.80836  0.32623  1.0000 -0.2042376029
C   C22       1.0  0.19164  0.67377  0.20629  1.0000 -0.2042376029
C   C23       1.0  0.67377  0.20629  0.19164  1.0000 -0.2042376029
C   C24       1.0  0.20629  0.19164  0.67377  1.0000 -0.2042376029
O   O1        1.0  0.33025  0.68793  0.06872  1.0000 -0.5410019386
O   O2        1.0  0.68793  0.06872  0.33025  1.0000 -0.5410019386
O   O3        1.0  0.06872  0.33025  0.68793  1.0000 -0.5410019386
O   O4        1.0  0.66975  0.31207  0.93128  1.0000 -0.5410019386
O   O5        1.0  0.31207  0.93128  0.66975  1.0000 -0.5410019386
O   O6        1.0  0.93128  0.66975  0.31207  1.0000 -0.5410019386
O   O7        1.0  0.53032  0.90513  0.37385  1.0000 -0.5817086029
O   O8        1.0  0.90513  0.37385  0.53032  1.0000 -0.5817086029
O   O9        1.0  0.37385  0.53032  0.90513  1.0000 -0.5817086029
O   O10       1.0  0.46968  0.09487  0.62615  1.0000 -0.5817086029
O   O11       1.0  0.09487  0.62615  0.46968  1.0000 -0.5817086029
O   O12       1.0  0.62615  0.46968  0.09487  1.0000 -0.5817086029
O   O13       1.0  0.93065  0.36542  0.73903  1.0000 -0.5817086029
O   O14       1.0  0.36542  0.73903  0.93065  1.0000 -0.5817086029
O   O15       1.0  0.73903  0.93065  0.36542  1.0000 -0.5817086029
O   O16       1.0  0.06935  0.63458  0.26097  1.0000 -0.5817086029
O   O17       1.0  0.63458  0.26097  0.06935  1.0000 -0.5817086029
O   O18       1.0  0.26097  0.06935  0.63458  1.0000 -0.5817086029
