# DDEC6 charges by PACMAN v1.1 (https://github.com/mtap-research/PACMAN-charge/)
data_2014[ZnCr][pcu]3[ASR]1
_chemical_formula_sum              "Zn2 Cr2 H36 C28 N8 O8"
_cell_length_a       13.85
_cell_length_b       12.77
_cell_length_c       6.939
_cell_angle_alpha    90
_cell_angle_beta     91.45
_cell_angle_gamma    90

_symmetry_space_group_name_H-M    "P 1"
_symmetry_Int_Tables_number       1

loop_
  _symmetry_equiv_pos_as_xyz
  'x, y, z'

loop_
  _atom_site_type_symbol
  _atom_site_label
  _atom_site_symmetry_multiplicity
  _atom_site_fract_x
  _atom_site_fract_y
  _atom_site_fract_z
  _atom_site_occupancy
  _atom_site_charge
Zn  Zn1       1.0  0.00000  0.88280  0.50000  1.0000 0.7678999989
Zn  Zn2       1.0  0.50000  0.38280  0.50000  1.0000 0.7678999989
Cr  Cr1       1.0  0.00000  0.80957  0.00000  1.0000 1.7527365773
Cr  Cr2       1.0  0.50000  0.30957  0.00000  1.0000 1.7527365773
H   H1        1.0  0.94503  0.65663  0.30254  1.0000 0.0794499642
H   H2        1.0  0.05497  0.65663  0.69746  1.0000 0.0794499642
H   H3        1.0  0.44503  0.15663  0.30254  1.0000 0.0794499642
H   H4        1.0  0.55497  0.15663  0.69746  1.0000 0.0794499642
H   H5        1.0  0.91135  0.58856  0.51695  1.0000 0.0794499642
H   H6        1.0  0.08865  0.58856  0.48305  1.0000 0.0794499642
H   H7        1.0  0.41135  0.08856  0.51695  1.0000 0.0794499642
H   H8        1.0  0.58865  0.08856  0.48305  1.0000 0.0794499642
H   H9        1.0  0.81782  0.78543  0.26699  1.0000 0.0963720363
H   H10       1.0  0.18218  0.78543  0.73301  1.0000 0.0963720363
H   H11       1.0  0.31782  0.28543  0.26699  1.0000 0.0963720363
H   H12       1.0  0.68218  0.28543  0.73301  1.0000 0.0963720363
H   H13       1.0  0.76958  0.84188  0.48086  1.0000 0.0963720363
H   H14       1.0  0.23042  0.84188  0.51914  1.0000 0.0963720363
H   H15       1.0  0.26958  0.34188  0.48086  1.0000 0.0963720363
H   H16       1.0  0.73042  0.34188  0.51914  1.0000 0.0963720363
H   H17       1.0  0.71717  0.65368  0.13042  1.0000 0.1285561859
H   H18       1.0  0.28283  0.65368  0.86958  1.0000 0.1285561859
H   H19       1.0  0.21717  0.15368  0.13042  1.0000 0.1285561859
H   H20       1.0  0.78283  0.15368  0.86958  1.0000 0.1285561859
H   H21       1.0  0.60584  0.49952  0.17065  1.0000 0.0883942409
H   H22       1.0  0.39416  0.49952  0.82935  1.0000 0.0883942409
H   H23       1.0  0.10584  0.99952  0.17065  1.0000 0.0883942409
H   H24       1.0  0.89416  0.99952  0.82935  1.0000 0.0883942409
H   H25       1.0  0.62401  0.52221  0.76903  1.0000 0.0963720363
H   H26       1.0  0.37599  0.52221  0.23097  1.0000 0.0963720363
H   H27       1.0  0.12401  0.02221  0.76903  1.0000 0.0963720363
H   H28       1.0  0.87599  0.02221  0.23097  1.0000 0.0963720363
H   H29       1.0  0.73286  0.68036  0.75411  1.0000 0.1285561859
H   H30       1.0  0.26714  0.68036  0.24589  1.0000 0.1285561859
H   H31       1.0  0.23286  0.18036  0.75411  1.0000 0.1285561859
H   H32       1.0  0.76714  0.18036  0.24589  1.0000 0.1285561859
H   H33       1.0  0.88732  0.74969  0.67407  1.0000 0.2463543801
H   H34       1.0  0.11268  0.74969  0.32593  1.0000 0.2463543801
H   H35       1.0  0.38732  0.24969  0.67407  1.0000 0.2463543801
H   H36       1.0  0.61268  0.24969  0.32593  1.0000 0.2463543801
C   C1        1.0  0.94763  0.65945  0.46307  1.0000 -0.0392854656
C   C2        1.0  0.05237  0.65945  0.53693  1.0000 -0.0392854656
C   C3        1.0  0.44763  0.15945  0.46307  1.0000 -0.0392854656
C   C4        1.0  0.55237  0.15945  0.53693  1.0000 -0.0392854656
C   C5        1.0  0.80279  0.77097  0.42125  1.0000 -0.0831713104
C   C6        1.0  0.19721  0.77097  0.57875  1.0000 -0.0831713104
C   C7        1.0  0.30279  0.27097  0.42125  1.0000 -0.0831713104
C   C8        1.0  0.69721  0.27097  0.57875  1.0000 -0.0831713104
C   C9        1.0  0.73376  0.67974  0.43897  1.0000 0.1409897445
C   C10       1.0  0.26624  0.67974  0.56103  1.0000 0.1409897445
C   C11       1.0  0.23376  0.17974  0.43897  1.0000 0.1409897445
C   C12       1.0  0.76624  0.17974  0.56103  1.0000 0.1409897445
C   C13       1.0  0.69765  0.62808  0.27445  1.0000 -0.1879516137
C   C14       1.0  0.30235  0.62808  0.72555  1.0000 -0.1879516137
C   C15       1.0  0.19765  0.12808  0.27445  1.0000 -0.1879516137
C   C16       1.0  0.80235  0.12808  0.72555  1.0000 -0.1879516137
C   C17       1.0  0.63617  0.54225  0.29562  1.0000 0.0963720363
C   C18       1.0  0.36383  0.54225  0.70438  1.0000 0.0963720363
C   C19       1.0  0.13617  0.04225  0.29562  1.0000 0.0963720363
C   C20       1.0  0.86383  0.04225  0.70438  1.0000 0.0963720363
C   C21       1.0  0.64621  0.55613  0.63074  1.0000 0.0883942409
C   C22       1.0  0.35379  0.55613  0.36926  1.0000 0.0883942409
C   C23       1.0  0.14621  0.05613  0.63074  1.0000 0.0883942409
C   C24       1.0  0.85379  0.05613  0.36926  1.0000 0.0883942409
C   C25       1.0  0.70664  0.64303  0.62073  1.0000 -0.1879516137
C   C26       1.0  0.29336  0.64303  0.37927  1.0000 -0.1879516137
C   C27       1.0  0.20664  0.14303  0.62073  1.0000 -0.1879516137
C   C28       1.0  0.79336  0.14303  0.37927  1.0000 -0.1879516137
N   N1        1.0  0.89672  0.75525  0.52481  1.0000 -0.3274454088
N   N2        1.0  0.10328  0.75525  0.47519  1.0000 -0.3274454088
N   N3        1.0  0.39672  0.25525  0.52481  1.0000 -0.3274454088
N   N4        1.0  0.60328  0.25525  0.47519  1.0000 -0.3274454088
N   N5        1.0  0.61060  0.50635  0.47135  1.0000 -0.2301483662
N   N6        1.0  0.38940  0.50635  0.52865  1.0000 -0.2301483662
N   N7        1.0  0.11060  0.00635  0.47135  1.0000 -0.2301483662
N   N8        1.0  0.88940  0.00635  0.52865  1.0000 -0.2301483662
O   O1        1.0  0.97838  0.88703  0.18954  1.0000 -0.8037660034
O   O2        1.0  0.02162  0.88703  0.81046  1.0000 -0.8037660034
O   O3        1.0  0.47838  0.38703  0.18954  1.0000 -0.8037660034
O   O4        1.0  0.52162  0.38703  0.81046  1.0000 -0.8037660034
O   O5        1.0  0.90364  0.73679  0.95052  1.0000 -0.7662315578
O   O6        1.0  0.09636  0.73679  0.04948  1.0000 -0.7662315578
O   O7        1.0  0.40364  0.23679  0.95052  1.0000 -0.7662315578
O   O8        1.0  0.59636  0.23679  0.04948  1.0000 -0.7662315578
