# DDEC6 charges by PACMAN v1.1 (https://github.com/mtap-research/PACMAN-charge/)
data_2014[Cu][tbo]3[ASR]8
_chemical_formula_sum              "Cu12 H24 C72 O48"
_cell_length_a       18.6464
_cell_length_b       18.6464
_cell_length_c       18.6464
_cell_angle_alpha    60
_cell_angle_beta     60
_cell_angle_gamma    60

_symmetry_space_group_name_H-M    "P 1"
_symmetry_Int_Tables_number       1

loop_
  _symmetry_equiv_pos_as_xyz
  'x, y, z'

loop_
  _atom_site_type_symbol
  _atom_site_label
  _atom_site_symmetry_multiplicity
  _atom_site_fract_x
  _atom_site_fract_y
  _atom_site_fract_z
  _atom_site_occupancy
  _atom_site_charge
Cu  Cu1       1.0  0.00000  0.00000  0.57010  1.0000 0.8747233456
Cu  Cu2       1.0  0.00000  0.00000  0.42990  1.0000 0.8747233456
Cu  Cu3       1.0  0.00000  0.57010  0.00000  1.0000 0.8747233456
Cu  Cu4       1.0  0.00000  0.42990  0.00000  1.0000 0.8747233456
Cu  Cu5       1.0  0.57010  0.00000  0.00000  1.0000 0.8756034678
Cu  Cu6       1.0  0.42990  0.00000  0.00000  1.0000 0.8756034678
Cu  Cu7       1.0  0.42990  0.00000  0.57010  1.0000 0.8756034678
Cu  Cu8       1.0  0.57010  0.00000  0.42990  1.0000 0.8756034678
Cu  Cu9       1.0  0.00000  0.42990  0.57010  1.0000 0.8747233456
Cu  Cu10      1.0  0.00000  0.57010  0.42990  1.0000 0.8747233456
Cu  Cu11      1.0  0.57010  0.42990  0.00000  1.0000 0.8756034678
Cu  Cu12      1.0  0.42990  0.57010  0.00000  1.0000 0.8756034678
H   H1        1.0  0.97120  0.27020  0.27020  1.0000 0.136099462
H   H2        1.0  0.02880  0.72980  0.72980  1.0000 0.136099462
H   H3        1.0  0.27020  0.27020  0.97120  1.0000 0.136099462
H   H4        1.0  0.72980  0.72980  0.02880  1.0000 0.136099462
H   H5        1.0  0.27020  0.97120  0.27020  1.0000 0.136099462
H   H6        1.0  0.72980  0.02880  0.72980  1.0000 0.136099462
H   H7        1.0  0.72980  0.02880  0.51160  1.0000 0.136099462
H   H8        1.0  0.27020  0.97120  0.48840  1.0000 0.136099462
H   H9        1.0  0.72980  0.72980  0.51160  1.0000 0.136099462
H   H10       1.0  0.27020  0.27020  0.48840  1.0000 0.136099462
H   H11       1.0  0.02880  0.72980  0.51160  1.0000 0.136099462
H   H12       1.0  0.97120  0.27020  0.48840  1.0000 0.136099462
H   H13       1.0  0.48840  0.97120  0.27020  1.0000 0.136099462
H   H14       1.0  0.51160  0.02880  0.72980  1.0000 0.136099462
H   H15       1.0  0.48840  0.27020  0.97120  1.0000 0.136099462
H   H16       1.0  0.51160  0.72980  0.02880  1.0000 0.136099462
H   H17       1.0  0.27020  0.48840  0.27020  1.0000 0.136099462
H   H18       1.0  0.72980  0.51160  0.72980  1.0000 0.136099462
H   H19       1.0  0.27020  0.48840  0.97120  1.0000 0.136099462
H   H20       1.0  0.72980  0.51160  0.02880  1.0000 0.136099462
H   H21       1.0  0.97120  0.48840  0.27020  1.0000 0.136099462
H   H22       1.0  0.02880  0.51160  0.72980  1.0000 0.136099462
H   H23       1.0  0.48840  0.27020  0.27020  1.0000 0.136099462
H   H24       1.0  0.51160  0.72980  0.72980  1.0000 0.136099462
C   C1        1.0  0.97680  0.16320  0.43000  1.0000 0.5886682402
C   C2        1.0  0.02320  0.83680  0.57000  1.0000 0.5886682402
C   C3        1.0  0.16320  0.43000  0.97680  1.0000 0.5886682402
C   C4        1.0  0.83680  0.57000  0.02320  1.0000 0.5886682402
C   C5        1.0  0.43000  0.97680  0.16320  1.0000 0.5886682402
C   C6        1.0  0.57000  0.02320  0.83680  1.0000 0.5886682402
C   C7        1.0  0.83680  0.02320  0.57000  1.0000 0.5886682402
C   C8        1.0  0.16320  0.97680  0.43000  1.0000 0.5886682402
C   C9        1.0  0.57000  0.83680  0.57000  1.0000 0.5886682402
C   C10       1.0  0.43000  0.16320  0.43000  1.0000 0.5886682402
C   C11       1.0  0.02320  0.57000  0.57000  1.0000 0.5886682402
C   C12       1.0  0.97680  0.43000  0.43000  1.0000 0.5886682402
C   C13       1.0  0.43000  0.97680  0.43000  1.0000 0.5886682402
C   C14       1.0  0.57000  0.02320  0.57000  1.0000 0.5886682402
C   C15       1.0  0.43000  0.16320  0.97680  1.0000 0.5886682402
C   C16       1.0  0.57000  0.83680  0.02320  1.0000 0.5886682402
C   C17       1.0  0.16320  0.43000  0.43000  1.0000 0.5886682402
C   C18       1.0  0.83680  0.57000  0.57000  1.0000 0.5886682402
C   C19       1.0  0.43000  0.43000  0.97680  1.0000 0.5886682402
C   C20       1.0  0.57000  0.57000  0.02320  1.0000 0.5886682402
C   C21       1.0  0.97680  0.43000  0.16320  1.0000 0.5886682402
C   C22       1.0  0.02320  0.57000  0.83680  1.0000 0.5886682402
C   C23       1.0  0.43000  0.43000  0.16320  1.0000 0.5886682402
C   C24       1.0  0.57000  0.57000  0.83680  1.0000 0.5886682402
C   C25       1.0  0.96800  0.25880  0.38660  1.0000 -0.020686005
C   C26       1.0  0.03200  0.74120  0.61340  1.0000 -0.020686005
C   C27       1.0  0.25880  0.38660  0.96800  1.0000 -0.020686005
C   C28       1.0  0.74120  0.61340  0.03200  1.0000 -0.020686005
C   C29       1.0  0.38660  0.96800  0.25880  1.0000 -0.020686005
C   C30       1.0  0.61340  0.03200  0.74120  1.0000 -0.020686005
C   C31       1.0  0.74120  0.03200  0.61340  1.0000 -0.020686005
C   C32       1.0  0.25880  0.96800  0.38660  1.0000 -0.020686005
C   C33       1.0  0.61340  0.74120  0.61340  1.0000 -0.020686005
C   C34       1.0  0.38660  0.25880  0.38660  1.0000 -0.020686005
C   C35       1.0  0.03200  0.61340  0.61340  1.0000 -0.020686005
C   C36       1.0  0.96800  0.38660  0.38660  1.0000 -0.020686005
C   C37       1.0  0.38660  0.96800  0.38660  1.0000 -0.020686005
C   C38       1.0  0.61340  0.03200  0.61340  1.0000 -0.020686005
C   C39       1.0  0.38660  0.25880  0.96800  1.0000 -0.020686005
C   C40       1.0  0.61340  0.74120  0.03200  1.0000 -0.020686005
C   C41       1.0  0.25880  0.38660  0.38660  1.0000 -0.020686005
C   C42       1.0  0.74120  0.61340  0.61340  1.0000 -0.020686005
C   C43       1.0  0.38660  0.38660  0.96800  1.0000 -0.020686005
C   C44       1.0  0.61340  0.61340  0.03200  1.0000 -0.020686005
C   C45       1.0  0.96800  0.38660  0.25880  1.0000 -0.020686005
C   C46       1.0  0.03200  0.61340  0.74120  1.0000 -0.020686005
C   C47       1.0  0.38660  0.38660  0.25880  1.0000 -0.020686005
C   C48       1.0  0.61340  0.61340  0.74120  1.0000 -0.020686005
C   C49       1.0  0.96790  0.30130  0.30130  1.0000 -0.0858001405
C   C50       1.0  0.03210  0.69870  0.69870  1.0000 -0.0858001405
C   C51       1.0  0.30130  0.30130  0.96790  1.0000 -0.0858001405
C   C52       1.0  0.69870  0.69870  0.03210  1.0000 -0.0858001405
C   C53       1.0  0.30130  0.96790  0.30130  1.0000 -0.0858001405
C   C54       1.0  0.69870  0.03210  0.69870  1.0000 -0.0858001405
C   C55       1.0  0.69870  0.03210  0.57050  1.0000 -0.0858001405
C   C56       1.0  0.30130  0.96790  0.42950  1.0000 -0.0858001405
C   C57       1.0  0.69870  0.69870  0.57050  1.0000 -0.0858001405
C   C58       1.0  0.30130  0.30130  0.42950  1.0000 -0.0858001405
C   C59       1.0  0.03210  0.69870  0.57050  1.0000 -0.0858001405
C   C60       1.0  0.96790  0.30130  0.42950  1.0000 -0.0858001405
C   C61       1.0  0.42950  0.96790  0.30130  1.0000 -0.0858001405
C   C62       1.0  0.57050  0.03210  0.69870  1.0000 -0.0858001405
C   C63       1.0  0.42950  0.30130  0.96790  1.0000 -0.0858001405
C   C64       1.0  0.57050  0.69870  0.03210  1.0000 -0.0858001405
C   C65       1.0  0.30130  0.42950  0.30130  1.0000 -0.0858001405
C   C66       1.0  0.69870  0.57050  0.69870  1.0000 -0.0858001405
C   C67       1.0  0.30130  0.42950  0.96790  1.0000 -0.0858001405
C   C68       1.0  0.69870  0.57050  0.03210  1.0000 -0.0858001405
C   C69       1.0  0.96790  0.42950  0.30130  1.0000 -0.0858001405
C   C70       1.0  0.03210  0.57050  0.69870  1.0000 -0.0858001405
C   C71       1.0  0.42950  0.30130  0.30130  1.0000 -0.0858001405
C   C72       1.0  0.57050  0.69870  0.69870  1.0000 -0.0858001405
O   O1        1.0  0.97905  0.12533  0.50831  1.0000 -0.52793163
O   O2        1.0  0.02095  0.87467  0.49169  1.0000 -0.52793163
O   O3        1.0  0.12533  0.50831  0.97905  1.0000 -0.52793163
O   O4        1.0  0.87467  0.49169  0.02095  1.0000 -0.52793163
O   O5        1.0  0.50831  0.97905  0.12533  1.0000 -0.52793163
O   O6        1.0  0.49169  0.02095  0.87467  1.0000 -0.52793163
O   O7        1.0  0.87467  0.02095  0.61269  1.0000 -0.52793163
O   O8        1.0  0.12533  0.97905  0.38731  1.0000 -0.52793163
O   O9        1.0  0.49169  0.87467  0.61269  1.0000 -0.52793163
O   O10       1.0  0.50831  0.12533  0.38731  1.0000 -0.52793163
O   O11       1.0  0.02095  0.49169  0.61269  1.0000 -0.52793163
O   O12       1.0  0.97905  0.50831  0.38731  1.0000 -0.52793163
O   O13       1.0  0.38731  0.97905  0.50831  1.0000 -0.52793163
O   O14       1.0  0.61269  0.02095  0.49169  1.0000 -0.52793163
O   O15       1.0  0.38731  0.12533  0.97905  1.0000 -0.52793163
O   O16       1.0  0.61269  0.87467  0.02095  1.0000 -0.52793163
O   O17       1.0  0.12533  0.38731  0.50831  1.0000 -0.52793163
O   O18       1.0  0.87467  0.61269  0.49169  1.0000 -0.52793163
O   O19       1.0  0.50831  0.38731  0.97905  1.0000 -0.52793163
O   O20       1.0  0.49169  0.61269  0.02095  1.0000 -0.52793163
O   O21       1.0  0.97905  0.38731  0.12533  1.0000 -0.52793163
O   O22       1.0  0.02095  0.61269  0.87467  1.0000 -0.52793163
O   O23       1.0  0.38731  0.50831  0.12533  1.0000 -0.52793163
O   O24       1.0  0.61269  0.49169  0.87467  1.0000 -0.52793163
O   O25       1.0  0.12533  0.97905  0.50831  1.0000 -0.52793163
O   O26       1.0  0.87467  0.02095  0.49169  1.0000 -0.52793163
O   O27       1.0  0.50831  0.12533  0.97905  1.0000 -0.52793163
O   O28       1.0  0.49169  0.87467  0.02095  1.0000 -0.52793163
O   O29       1.0  0.97905  0.50831  0.12533  1.0000 -0.52793163
O   O30       1.0  0.02095  0.49169  0.87467  1.0000 -0.52793163
O   O31       1.0  0.02095  0.87467  0.61269  1.0000 -0.52793163
O   O32       1.0  0.97905  0.12533  0.38731  1.0000 -0.52793163
O   O33       1.0  0.87467  0.49169  0.61269  1.0000 -0.52793163
O   O34       1.0  0.12533  0.50831  0.38731  1.0000 -0.52793163
O   O35       1.0  0.49169  0.02095  0.61269  1.0000 -0.52793163
O   O36       1.0  0.50831  0.97905  0.38731  1.0000 -0.52793163
O   O37       1.0  0.97905  0.38731  0.50831  1.0000 -0.52793163
O   O38       1.0  0.02095  0.61269  0.49169  1.0000 -0.52793163
O   O39       1.0  0.12533  0.38731  0.97905  1.0000 -0.52793163
O   O40       1.0  0.87467  0.61269  0.02095  1.0000 -0.52793163
O   O41       1.0  0.38731  0.12533  0.50831  1.0000 -0.52793163
O   O42       1.0  0.61269  0.87467  0.49169  1.0000 -0.52793163
O   O43       1.0  0.38731  0.50831  0.97905  1.0000 -0.52793163
O   O44       1.0  0.61269  0.49169  0.02095  1.0000 -0.52793163
O   O45       1.0  0.38731  0.97905  0.12533  1.0000 -0.52793163
O   O46       1.0  0.61269  0.02095  0.87467  1.0000 -0.52793163
O   O47       1.0  0.50831  0.38731  0.12533  1.0000 -0.52793163
O   O48       1.0  0.49169  0.61269  0.87467  1.0000 -0.52793163
