# DDEC6 charges by PACMAN v1.1 (https://github.com/mtap-research/PACMAN-charge/)
data_2014[Cu][nan]3[ASR]18
_chemical_formula_sum              "Cu12 H120 C216 O48"
_cell_length_a       23.3749
_cell_length_b       23.3749
_cell_length_c       23.3749
_cell_angle_alpha    109.471
_cell_angle_beta     109.471
_cell_angle_gamma    109.471

_symmetry_space_group_name_H-M    "P 1"
_symmetry_Int_Tables_number       1

loop_
  _symmetry_equiv_pos_as_xyz
  'x, y, z'

loop_
  _atom_site_type_symbol
  _atom_site_label
  _atom_site_symmetry_multiplicity
  _atom_site_fract_x
  _atom_site_fract_y
  _atom_site_fract_z
  _atom_site_occupancy
  _atom_site_charge
Cu  Cu1       1.0  0.14440  0.64440  0.50000  1.0000 0.8497524319
Cu  Cu2       1.0  0.50000  0.14440  0.64440  1.0000 0.8497524319
Cu  Cu3       1.0  0.64440  0.50000  0.14440  1.0000 0.8497524319
Cu  Cu4       1.0  0.35560  0.50000  0.85560  1.0000 0.8497524319
Cu  Cu5       1.0  0.50000  0.85560  0.35560  1.0000 0.8497524319
Cu  Cu6       1.0  0.85560  0.35560  0.50000  1.0000 0.8497524319
Cu  Cu7       1.0  0.24029  0.74029  0.50000  1.0000 0.8633901236
Cu  Cu8       1.0  0.50000  0.24029  0.74029  1.0000 0.8633901236
Cu  Cu9       1.0  0.74029  0.50000  0.24029  1.0000 0.8633901236
Cu  Cu10      1.0  0.25971  0.50000  0.75971  1.0000 0.8633901236
Cu  Cu11      1.0  0.50000  0.75971  0.25971  1.0000 0.8633901236
Cu  Cu12      1.0  0.75971  0.25971  0.50000  1.0000 0.8633901236
H   H1        1.0  0.21720  0.49230  0.47310  1.0000 0.1254915802
H   H2        1.0  0.47310  0.21720  0.49230  1.0000 0.1254915802
H   H3        1.0  0.49230  0.47310  0.21720  1.0000 0.1254915802
H   H4        1.0  0.25590  0.27510  0.78280  1.0000 0.1254915802
H   H5        1.0  0.52690  0.01920  0.74410  1.0000 0.1254915802
H   H6        1.0  0.74410  0.52690  0.01920  1.0000 0.1254915802
H   H7        1.0  0.72490  0.98080  0.50770  1.0000 0.1254915802
H   H8        1.0  0.27510  0.78280  0.25590  1.0000 0.1254915802
H   H9        1.0  0.50770  0.72490  0.98080  1.0000 0.1254915802
H   H10       1.0  0.01920  0.74410  0.52690  1.0000 0.1254915802
H   H11       1.0  0.78280  0.25590  0.27510  1.0000 0.1254915802
H   H12       1.0  0.98080  0.50770  0.72490  1.0000 0.1254915802
H   H13       1.0  0.78280  0.50770  0.52690  1.0000 0.1254915802
H   H14       1.0  0.52690  0.78280  0.50770  1.0000 0.1254915802
H   H15       1.0  0.50770  0.52690  0.78280  1.0000 0.1254915802
H   H16       1.0  0.74410  0.72490  0.21720  1.0000 0.1254915802
H   H17       1.0  0.47310  0.98080  0.25590  1.0000 0.1254915802
H   H18       1.0  0.25590  0.47310  0.98080  1.0000 0.1254915802
H   H19       1.0  0.27510  0.01920  0.49230  1.0000 0.1254915802
H   H20       1.0  0.72490  0.21720  0.74410  1.0000 0.1254915802
H   H21       1.0  0.49230  0.27510  0.01920  1.0000 0.1254915802
H   H22       1.0  0.98080  0.25590  0.47310  1.0000 0.121044294
H   H23       1.0  0.21720  0.74410  0.72490  1.0000 0.1254915802
H   H24       1.0  0.01920  0.49230  0.27510  1.0000 0.1254915802
H   H25       1.0  0.41030  0.57880  0.44330  1.0000 0.1129521316
H   H26       1.0  0.44330  0.41030  0.57880  1.0000 0.1129521316
H   H27       1.0  0.57880  0.44330  0.41030  1.0000 0.1129521316
H   H28       1.0  0.03300  0.16850  0.58970  1.0000 0.1129521316
H   H29       1.0  0.55670  0.13550  0.96700  1.0000 0.1129521316
H   H30       1.0  0.96700  0.55670  0.13550  1.0000 0.1129521316
H   H31       1.0  0.83150  0.86450  0.42120  1.0000 0.1129521316
H   H32       1.0  0.16850  0.58970  0.03300  1.0000 0.1129521316
H   H33       1.0  0.42120  0.83150  0.86450  1.0000 0.1129521316
H   H34       1.0  0.13550  0.96700  0.55670  1.0000 0.1129521316
H   H35       1.0  0.58970  0.03300  0.16850  1.0000 0.1129521316
H   H36       1.0  0.86450  0.42120  0.83150  1.0000 0.1129521316
H   H37       1.0  0.58970  0.42120  0.55670  1.0000 0.1129521316
H   H38       1.0  0.55670  0.58970  0.42120  1.0000 0.1129521316
H   H39       1.0  0.42120  0.55670  0.58970  1.0000 0.1129521316
H   H40       1.0  0.96700  0.83150  0.41030  1.0000 0.1129521316
H   H41       1.0  0.44330  0.86450  0.03300  1.0000 0.1129521316
H   H42       1.0  0.03300  0.44330  0.86450  1.0000 0.1129521316
H   H43       1.0  0.16850  0.13550  0.57880  1.0000 0.1129521316
H   H44       1.0  0.83150  0.41030  0.96700  1.0000 0.1129521316
H   H45       1.0  0.57880  0.16850  0.13550  1.0000 0.1129521316
H   H46       1.0  0.86450  0.03300  0.44330  1.0000 0.1129521316
H   H47       1.0  0.41030  0.96700  0.83150  1.0000 0.1129521316
H   H48       1.0  0.13550  0.57880  0.16850  1.0000 0.1129521316
H   H49       1.0  0.26740  0.42240  0.44480  1.0000 0.121044294
H   H50       1.0  0.44480  0.26740  0.42240  1.0000 0.121044294
H   H51       1.0  0.42240  0.44480  0.26740  1.0000 0.121044294
H   H52       1.0  0.17740  0.15500  0.73260  1.0000 0.121044294
H   H53       1.0  0.55520  0.97760  0.82260  1.0000 0.121044294
H   H54       1.0  0.82260  0.55520  0.97760  1.0000 0.121044294
H   H55       1.0  0.84500  0.02240  0.57760  1.0000 0.121044294
H   H56       1.0  0.15500  0.73260  0.17740  1.0000 0.121044294
H   H57       1.0  0.57760  0.84500  0.02240  1.0000 0.121044294
H   H58       1.0  0.97760  0.82260  0.55520  1.0000 0.121044294
H   H59       1.0  0.73260  0.17740  0.15500  1.0000 0.121044294
H   H60       1.0  0.02240  0.57760  0.84500  1.0000 0.121044294
H   H61       1.0  0.73260  0.57760  0.55520  1.0000 0.121044294
H   H62       1.0  0.55520  0.73260  0.57760  1.0000 0.121044294
H   H63       1.0  0.57760  0.55520  0.73260  1.0000 0.121044294
H   H64       1.0  0.82260  0.84500  0.26740  1.0000 0.121044294
H   H65       1.0  0.44480  0.02240  0.17740  1.0000 0.121044294
H   H66       1.0  0.17740  0.44480  0.02240  1.0000 0.121044294
H   H67       1.0  0.15500  0.97760  0.42240  1.0000 0.121044294
H   H68       1.0  0.84500  0.26740  0.82260  1.0000 0.121044294
H   H69       1.0  0.42240  0.15500  0.97760  1.0000 0.121044294
H   H70       1.0  0.02240  0.17740  0.44480  1.0000 0.121044294
H   H71       1.0  0.26740  0.82260  0.84500  1.0000 0.121044294
H   H72       1.0  0.97760  0.42240  0.15500  1.0000 0.121044294
H   H73       1.0  0.36220  0.64830  0.47490  1.0000 0.121044294
H   H74       1.0  0.47490  0.36220  0.64830  1.0000 0.121044294
H   H75       1.0  0.64830  0.47490  0.36220  1.0000 0.121044294
H   H76       1.0  0.11270  0.28610  0.63780  1.0000 0.121044294
H   H77       1.0  0.52510  0.17340  0.88730  1.0000 0.121044294
H   H78       1.0  0.88730  0.52510  0.17340  1.0000 0.121044294
H   H79       1.0  0.71390  0.82660  0.35170  1.0000 0.121044294
H   H80       1.0  0.28610  0.63780  0.11270  1.0000 0.121044294
H   H81       1.0  0.35170  0.71390  0.82660  1.0000 0.121044294
H   H82       1.0  0.17340  0.88730  0.52510  1.0000 0.121044294
H   H83       1.0  0.63780  0.11270  0.28610  1.0000 0.121044294
H   H84       1.0  0.82660  0.35170  0.71390  1.0000 0.121044294
H   H85       1.0  0.63780  0.35170  0.52510  1.0000 0.121044294
H   H86       1.0  0.52510  0.63780  0.35170  1.0000 0.121044294
H   H87       1.0  0.35170  0.52510  0.63780  1.0000 0.121044294
H   H88       1.0  0.88730  0.71390  0.36220  1.0000 0.121044294
H   H89       1.0  0.47490  0.82660  0.11270  1.0000 0.121044294
H   H90       1.0  0.11270  0.47490  0.82660  1.0000 0.121044294
H   H91       1.0  0.28610  0.17340  0.64830  1.0000 0.121044294
H   H92       1.0  0.71390  0.36220  0.88730  1.0000 0.121044294
H   H93       1.0  0.64830  0.28610  0.17340  1.0000 0.121044294
H   H94       1.0  0.82660  0.11270  0.47490  1.0000 0.121044294
H   H95       1.0  0.36220  0.88730  0.71390  1.0000 0.121044294
H   H96       1.0  0.17340  0.64830  0.28610  1.0000 0.121044294
H   H97       1.0  0.40700  0.48540  0.36460  1.0000 0.1129521316
H   H98       1.0  0.36460  0.40700  0.48540  1.0000 0.1129521316
H   H99       1.0  0.48540  0.36460  0.40700  1.0000 0.1129521316
H   H100      1.0  0.95760  0.07840  0.59300  1.0000 0.1129521316
H   H101      1.0  0.63540  0.12080  0.04240  1.0000 0.1129521316
H   H102      1.0  0.04240  0.63540  0.12080  1.0000 0.1129521316
H   H103      1.0  0.92160  0.87920  0.51460  1.0000 0.1129521316
H   H104      1.0  0.07840  0.59300  0.95760  1.0000 0.1129521316
H   H105      1.0  0.51460  0.92160  0.87920  1.0000 0.1129521316
H   H106      1.0  0.12080  0.04240  0.63540  1.0000 0.1129521316
H   H107      1.0  0.59300  0.95760  0.07840  1.0000 0.1129521316
H   H108      1.0  0.87920  0.51460  0.92160  1.0000 0.1129521316
H   H109      1.0  0.59300  0.51460  0.63540  1.0000 0.1129521316
H   H110      1.0  0.63540  0.59300  0.51460  1.0000 0.1129521316
H   H111      1.0  0.51460  0.63540  0.59300  1.0000 0.1129521316
H   H112      1.0  0.04240  0.92160  0.40700  1.0000 0.1129521316
H   H113      1.0  0.36460  0.87920  0.95760  1.0000 0.1129521316
H   H114      1.0  0.95760  0.36460  0.87920  1.0000 0.1129521316
H   H115      1.0  0.07840  0.12080  0.48540  1.0000 0.1129521316
H   H116      1.0  0.92160  0.40700  0.04240  1.0000 0.1129521316
H   H117      1.0  0.48540  0.07840  0.12080  1.0000 0.1129521316
H   H118      1.0  0.87920  0.95760  0.36460  1.0000 0.1129521316
H   H119      1.0  0.40700  0.04240  0.92160  1.0000 0.1129521316
H   H120      1.0  0.12080  0.48540  0.07840  1.0000 0.1129521316
C   C1        1.0  0.34419  0.49303  0.44104  1.0000 0.0804190111
C   C2        1.0  0.44104  0.34419  0.49303  1.0000 0.0804190111
C   C3        1.0  0.49303  0.44104  0.34419  1.0000 0.0804190111
C   C4        1.0  0.09685  0.14884  0.65581  1.0000 0.0804190111
C   C5        1.0  0.55896  0.05199  0.90315  1.0000 0.0804190111
C   C6        1.0  0.90315  0.55896  0.05199  1.0000 0.0804190111
C   C7        1.0  0.85116  0.94801  0.50697  1.0000 0.0804190111
C   C8        1.0  0.14884  0.65581  0.09685  1.0000 0.0804190111
C   C9        1.0  0.50697  0.85116  0.94801  1.0000 0.0804190111
C   C10       1.0  0.05199  0.90315  0.55896  1.0000 0.0804190111
C   C11       1.0  0.65581  0.09685  0.14884  1.0000 0.0804190111
C   C12       1.0  0.94801  0.50697  0.85116  1.0000 0.0804190111
C   C13       1.0  0.65581  0.50697  0.55896  1.0000 0.0804190111
C   C14       1.0  0.55896  0.65581  0.50697  1.0000 0.0804190111
C   C15       1.0  0.50697  0.55896  0.65581  1.0000 0.0804190111
C   C16       1.0  0.90315  0.85116  0.34419  1.0000 0.0804190111
C   C17       1.0  0.44104  0.94801  0.09685  1.0000 0.0804190111
C   C18       1.0  0.09685  0.44104  0.94801  1.0000 0.0804190111
C   C19       1.0  0.14884  0.05199  0.49303  1.0000 0.0804190111
C   C20       1.0  0.85116  0.34419  0.90315  1.0000 0.0804190111
C   C21       1.0  0.49303  0.14884  0.05199  1.0000 0.0804190111
C   C22       1.0  0.94801  0.09685  0.44104  1.0000 0.0804190111
C   C23       1.0  0.34419  0.90315  0.85116  1.0000 0.0804190111
C   C24       1.0  0.05199  0.49303  0.14884  1.0000 0.0804190111
C   C25       1.0  0.25307  0.62154  0.49301  1.0000 0.586651331
C   C26       1.0  0.49301  0.25307  0.62154  1.0000 0.586651331
C   C27       1.0  0.62154  0.49301  0.25307  1.0000 0.586651331
C   C28       1.0  0.23994  0.36847  0.74693  1.0000 0.586651331
C   C29       1.0  0.50699  0.12853  0.76006  1.0000 0.586651331
C   C30       1.0  0.76006  0.50699  0.12853  1.0000 0.586651331
C   C31       1.0  0.63153  0.87147  0.37846  1.0000 0.586651331
C   C32       1.0  0.36847  0.74693  0.23994  1.0000 0.586651331
C   C33       1.0  0.37846  0.63153  0.87147  1.0000 0.586651331
C   C34       1.0  0.12853  0.76006  0.50699  1.0000 0.586651331
C   C35       1.0  0.74693  0.23994  0.36847  1.0000 0.586651331
C   C36       1.0  0.87147  0.37846  0.63153  1.0000 0.586651331
C   C37       1.0  0.74693  0.37846  0.50699  1.0000 0.586651331
C   C38       1.0  0.50699  0.74693  0.37846  1.0000 0.586651331
C   C39       1.0  0.37846  0.50699  0.74693  1.0000 0.586651331
C   C40       1.0  0.76006  0.63153  0.25307  1.0000 0.586651331
C   C41       1.0  0.49301  0.87147  0.23994  1.0000 0.586651331
C   C42       1.0  0.23994  0.49301  0.87147  1.0000 0.586651331
C   C43       1.0  0.36847  0.12853  0.62154  1.0000 0.586651331
C   C44       1.0  0.63153  0.25307  0.76006  1.0000 0.586651331
C   C45       1.0  0.62154  0.36847  0.12853  1.0000 0.586651331
C   C46       1.0  0.87147  0.23994  0.49301  1.0000 0.586651331
C   C47       1.0  0.25307  0.76006  0.63153  1.0000 0.586651331
C   C48       1.0  0.12853  0.62154  0.36847  1.0000 0.586651331
C   C49       1.0  0.25687  0.50989  0.46770  1.0000 -0.0902918988
C   C50       1.0  0.46770  0.25687  0.50989  1.0000 -0.0902918988
C   C51       1.0  0.50989  0.46770  0.25687  1.0000 -0.0902918988
C   C52       1.0  0.21083  0.25302  0.74313  1.0000 -0.0902918988
C   C53       1.0  0.53230  0.04219  0.78917  1.0000 -0.0902918988
C   C54       1.0  0.78917  0.53230  0.04219  1.0000 -0.0902918988
C   C55       1.0  0.74698  0.95781  0.49011  1.0000 -0.0902918988
C   C56       1.0  0.25302  0.74313  0.21083  1.0000 -0.0902918988
C   C57       1.0  0.49011  0.74698  0.95781  1.0000 -0.0902918988
C   C58       1.0  0.04219  0.78917  0.53230  1.0000 -0.0902918988
C   C59       1.0  0.74313  0.21083  0.25302  1.0000 -0.0902918988
C   C60       1.0  0.95781  0.49011  0.74698  1.0000 -0.0902918988
C   C61       1.0  0.74313  0.49011  0.53230  1.0000 -0.0902918988
C   C62       1.0  0.53230  0.74313  0.49011  1.0000 -0.0902918988
C   C63       1.0  0.49011  0.53230  0.74313  1.0000 -0.0902918988
C   C64       1.0  0.78917  0.74698  0.25687  1.0000 -0.0902918988
C   C65       1.0  0.46770  0.95781  0.21083  1.0000 -0.0902918988
C   C66       1.0  0.21083  0.46770  0.95781  1.0000 -0.0902918988
C   C67       1.0  0.25302  0.04219  0.50989  1.0000 -0.0902918988
C   C68       1.0  0.74698  0.25687  0.78917  1.0000 -0.0902918988
C   C69       1.0  0.50989  0.25302  0.04219  1.0000 -0.0902918988
C   C70       1.0  0.95781  0.21083  0.46770  1.0000 -0.0902918988
C   C71       1.0  0.25687  0.78917  0.74698  1.0000 -0.0902918988
C   C72       1.0  0.04219  0.50989  0.25302  1.0000 -0.0902918988
C   C73       1.0  0.37154  0.56107  0.44993  1.0000 -0.1612321329
C   C74       1.0  0.44993  0.37154  0.56107  1.0000 -0.1612321329
C   C75       1.0  0.56107  0.44993  0.37154  1.0000 -0.1612321329
C   C76       1.0  0.07839  0.18953  0.62846  1.0000 -0.1612321329
C   C77       1.0  0.55007  0.11114  0.92161  1.0000 -0.1612321329
C   C78       1.0  0.92161  0.55007  0.11114  1.0000 -0.1612321329
C   C79       1.0  0.81047  0.88886  0.43893  1.0000 -0.1612321329
C   C80       1.0  0.18953  0.62846  0.07839  1.0000 -0.1612321329
C   C81       1.0  0.43893  0.81047  0.88886  1.0000 -0.1612321329
C   C82       1.0  0.11114  0.92161  0.55007  1.0000 -0.1612321329
C   C83       1.0  0.62846  0.07839  0.18953  1.0000 -0.1612321329
C   C84       1.0  0.88886  0.43893  0.81047  1.0000 -0.1612321329
C   C85       1.0  0.62846  0.43893  0.55007  1.0000 -0.1612321329
C   C86       1.0  0.55007  0.62846  0.43893  1.0000 -0.1612321329
C   C87       1.0  0.43893  0.55007  0.62846  1.0000 -0.1612321329
C   C88       1.0  0.92161  0.81047  0.37154  1.0000 -0.1612321329
C   C89       1.0  0.44993  0.88886  0.07839  1.0000 -0.1612321329
C   C90       1.0  0.07839  0.44993  0.88886  1.0000 -0.1612321329
C   C91       1.0  0.18953  0.11114  0.56107  1.0000 -0.1612321329
C   C92       1.0  0.81047  0.37154  0.92161  1.0000 -0.1612321329
C   C93       1.0  0.56107  0.18953  0.11114  1.0000 -0.1612321329
C   C94       1.0  0.88886  0.07839  0.44993  1.0000 -0.1612321329
C   C95       1.0  0.37154  0.92161  0.81047  1.0000 -0.1612321329
C   C96       1.0  0.11114  0.56107  0.18953  1.0000 -0.1612321329
C   C97       1.0  0.28654  0.46789  0.45027  1.0000 -0.1612321329
C   C98       1.0  0.45027  0.28654  0.46789  1.0000 -0.1612321329
C   C99       1.0  0.46789  0.45027  0.28654  1.0000 -0.1612321329
C   C100      1.0  0.16373  0.18135  0.71346  1.0000 -0.1612321329
C   C101      1.0  0.54973  0.01762  0.83627  1.0000 -0.1612321329
C   C102      1.0  0.83627  0.54973  0.01762  1.0000 -0.1612321329
C   C103      1.0  0.81865  0.98238  0.53211  1.0000 -0.1612321329
C   C104      1.0  0.18135  0.71346  0.16373  1.0000 -0.1612321329
C   C105      1.0  0.53211  0.81865  0.98238  1.0000 -0.1612321329
C   C106      1.0  0.01762  0.83627  0.54973  1.0000 -0.1612321329
C   C107      1.0  0.71346  0.16373  0.18135  1.0000 -0.1612321329
C   C108      1.0  0.98238  0.53211  0.81865  1.0000 -0.1612321329
C   C109      1.0  0.71346  0.53211  0.54973  1.0000 -0.1612321329
C   C110      1.0  0.54973  0.71346  0.53211  1.0000 -0.1612321329
C   C111      1.0  0.53211  0.54973  0.71346  1.0000 -0.1612321329
C   C112      1.0  0.83627  0.81865  0.28654  1.0000 -0.1612321329
C   C113      1.0  0.45027  0.98238  0.16373  1.0000 -0.1612321329
C   C114      1.0  0.16373  0.45027  0.98238  1.0000 -0.1612321329
C   C115      1.0  0.18135  0.01762  0.46789  1.0000 -0.1612321329
C   C116      1.0  0.81865  0.28654  0.83627  1.0000 -0.1612321329
C   C117      1.0  0.46789  0.18135  0.01762  1.0000 -0.1612321329
C   C118      1.0  0.98238  0.16373  0.45027  1.0000 -0.1612321329
C   C119      1.0  0.28654  0.83627  0.81865  1.0000 -0.1612321329
C   C120      1.0  0.01762  0.46789  0.18135  1.0000 -0.1612321329
C   C121      1.0  0.34261  0.60229  0.46824  1.0000 -0.0902918988
C   C122      1.0  0.46824  0.34261  0.60229  1.0000 -0.0902918988
C   C123      1.0  0.60229  0.46824  0.34261  1.0000 -0.0902918988
C   C124      1.0  0.12563  0.25968  0.65739  1.0000 -0.0902918988
C   C125      1.0  0.53176  0.13405  0.87437  1.0000 -0.0902918988
C   C126      1.0  0.87437  0.53176  0.13405  1.0000 -0.0902918988
C   C127      1.0  0.74032  0.86595  0.39771  1.0000 -0.0902918988
C   C128      1.0  0.25968  0.65739  0.12563  1.0000 -0.0902918988
C   C129      1.0  0.39771  0.74032  0.86595  1.0000 -0.0902918988
C   C130      1.0  0.13405  0.87437  0.53176  1.0000 -0.0902918988
C   C131      1.0  0.65739  0.12563  0.25968  1.0000 -0.0902918988
C   C132      1.0  0.86595  0.39771  0.74032  1.0000 -0.0902918988
C   C133      1.0  0.65739  0.39771  0.53176  1.0000 -0.0902918988
C   C134      1.0  0.53176  0.65739  0.39771  1.0000 -0.0902918988
C   C135      1.0  0.39771  0.53176  0.65739  1.0000 -0.0902918988
C   C136      1.0  0.87437  0.74032  0.34261  1.0000 -0.0902918988
C   C137      1.0  0.46824  0.86595  0.12563  1.0000 -0.0902918988
C   C138      1.0  0.12563  0.46824  0.86595  1.0000 -0.0902918988
C   C139      1.0  0.25968  0.13405  0.60229  1.0000 -0.0902918988
C   C140      1.0  0.74032  0.34261  0.87437  1.0000 -0.0902918988
C   C141      1.0  0.60229  0.25968  0.13405  1.0000 -0.0902918988
C   C142      1.0  0.86595  0.12563  0.46824  1.0000 -0.0902918988
C   C143      1.0  0.34261  0.87437  0.74032  1.0000 -0.0902918988
C   C144      1.0  0.13405  0.60229  0.25968  1.0000 -0.0902918988
C   C145      1.0  0.41245  0.45899  0.38720  1.0000 -0.1943988711
C   C146      1.0  0.38720  0.41245  0.45899  1.0000 -0.1943988711
C   C147      1.0  0.45899  0.38720  0.41245  1.0000 -0.1943988711
C   C148      1.0  0.97475  0.04654  0.58755  1.0000 -0.1943988711
C   C149      1.0  0.61280  0.07179  0.02525  1.0000 -0.1943988711
C   C150      1.0  0.02525  0.61280  0.07179  1.0000 -0.1943988711
C   C151      1.0  0.95346  0.92821  0.54101  1.0000 -0.1943988711
C   C152      1.0  0.04654  0.58755  0.97475  1.0000 -0.1943988711
C   C153      1.0  0.54101  0.95346  0.92821  1.0000 -0.1943988711
C   C154      1.0  0.07179  0.02525  0.61280  1.0000 -0.1943988711
C   C155      1.0  0.58755  0.97475  0.04654  1.0000 -0.1943988711
C   C156      1.0  0.92821  0.54101  0.95346  1.0000 -0.1943988711
C   C157      1.0  0.58755  0.54101  0.61280  1.0000 -0.1943988711
C   C158      1.0  0.61280  0.58755  0.54101  1.0000 -0.1943988711
C   C159      1.0  0.54101  0.61280  0.58755  1.0000 -0.1943988711
C   C160      1.0  0.02525  0.95346  0.41245  1.0000 -0.1943988711
C   C161      1.0  0.38720  0.92821  0.97475  1.0000 -0.1943988711
C   C162      1.0  0.97475  0.38720  0.92821  1.0000 -0.1943988711
C   C163      1.0  0.04654  0.07179  0.45899  1.0000 -0.1943988711
C   C164      1.0  0.95346  0.41245  0.02525  1.0000 -0.1943988711
C   C165      1.0  0.45899  0.04654  0.07179  1.0000 -0.1943988711
C   C166      1.0  0.92821  0.97475  0.38720  1.0000 -0.1943988711
C   C167      1.0  0.41245  0.02525  0.95346  1.0000 -0.1943988711
C   C168      1.0  0.07179  0.45899  0.04654  1.0000 -0.1943988711
C   C169      1.0  0.28536  0.57686  0.47700  1.0000 -0.0328170255
C   C170      1.0  0.47700  0.28536  0.57686  1.0000 -0.0328170255
C   C171      1.0  0.57686  0.47700  0.28536  1.0000 -0.0328170255
C   C172      1.0  0.19164  0.29150  0.71464  1.0000 -0.0328170255
C   C173      1.0  0.52300  0.09986  0.80836  1.0000 -0.0328170255
C   C174      1.0  0.80836  0.52300  0.09986  1.0000 -0.0328170255
C   C175      1.0  0.70850  0.90014  0.42314  1.0000 -0.0328170255
C   C176      1.0  0.29150  0.71464  0.19164  1.0000 -0.0328170255
C   C177      1.0  0.42314  0.70850  0.90014  1.0000 -0.0328170255
C   C178      1.0  0.09986  0.80836  0.52300  1.0000 -0.0328170255
C   C179      1.0  0.71464  0.19164  0.29150  1.0000 -0.0328170255
C   C180      1.0  0.90014  0.42314  0.70850  1.0000 -0.0328170255
C   C181      1.0  0.71464  0.42314  0.52300  1.0000 -0.0328170255
C   C182      1.0  0.52300  0.71464  0.42314  1.0000 -0.0328170255
C   C183      1.0  0.42314  0.52300  0.71464  1.0000 -0.0328170255
C   C184      1.0  0.80836  0.70850  0.28536  1.0000 -0.0328170255
C   C185      1.0  0.47700  0.90014  0.19164  1.0000 -0.0328170255
C   C186      1.0  0.19164  0.47700  0.90014  1.0000 -0.0328170255
C   C187      1.0  0.29150  0.09986  0.57686  1.0000 -0.0328170255
C   C188      1.0  0.70850  0.28536  0.80836  1.0000 -0.0328170255
C   C189      1.0  0.57686  0.29150  0.09986  1.0000 -0.0328170255
C   C190      1.0  0.90014  0.19164  0.47700  1.0000 -0.0328170255
C   C191      1.0  0.28536  0.80836  0.70850  1.0000 -0.0328170255
C   C192      1.0  0.09986  0.57686  0.29150  1.0000 -0.0328170255
C   C193      1.0  0.38012  0.45238  0.42728  1.0000 0.0804190111
C   C194      1.0  0.42728  0.38012  0.45238  1.0000 0.0804190111
C   C195      1.0  0.45238  0.42728  0.38012  1.0000 0.0804190111
C   C196      1.0  0.04716  0.07226  0.61988  1.0000 0.0804190111
C   C197      1.0  0.57272  0.02510  0.95284  1.0000 0.0804190111
C   C198      1.0  0.95284  0.57272  0.02510  1.0000 0.0804190111
C   C199      1.0  0.92774  0.97490  0.54762  1.0000 0.0804190111
C   C200      1.0  0.07226  0.61988  0.04716  1.0000 0.0804190111
C   C201      1.0  0.54762  0.92774  0.97490  1.0000 0.0804190111
C   C202      1.0  0.02510  0.95284  0.57272  1.0000 0.0804190111
C   C203      1.0  0.61988  0.04716  0.07226  1.0000 0.0804190111
C   C204      1.0  0.97490  0.54762  0.92774  1.0000 0.0804190111
C   C205      1.0  0.61988  0.54762  0.57272  1.0000 0.0804190111
C   C206      1.0  0.57272  0.61988  0.54762  1.0000 0.0804190111
C   C207      1.0  0.54762  0.57272  0.61988  1.0000 0.0804190111
C   C208      1.0  0.95284  0.92774  0.38012  1.0000 0.0804190111
C   C209      1.0  0.42728  0.97490  0.04716  1.0000 0.0804190111
C   C210      1.0  0.04716  0.42728  0.97490  1.0000 0.0804190111
C   C211      1.0  0.07226  0.02510  0.45238  1.0000 0.0804190111
C   C212      1.0  0.92774  0.38012  0.95284  1.0000 0.0804190111
C   C213      1.0  0.45238  0.07226  0.02510  1.0000 0.0804190111
C   C214      1.0  0.97490  0.04716  0.42728  1.0000 0.0804190111
C   C215      1.0  0.38012  0.95284  0.92774  1.0000 0.0804190111
C   C216      1.0  0.02510  0.45238  0.07226  1.0000 0.0804190111
O   O1        1.0  0.19897  0.59655  0.49782  1.0000 -0.5194050798
O   O2        1.0  0.49782  0.19897  0.59655  1.0000 -0.5194050798
O   O3        1.0  0.59655  0.49782  0.19897  1.0000 -0.5194050798
O   O4        1.0  0.29885  0.39758  0.80103  1.0000 -0.5194050798
O   O5        1.0  0.50218  0.09873  0.70115  1.0000 -0.5194050798
O   O6        1.0  0.70115  0.50218  0.09873  1.0000 -0.5194050798
O   O7        1.0  0.60242  0.90127  0.40345  1.0000 -0.5194050798
O   O8        1.0  0.39758  0.80103  0.29885  1.0000 -0.5194050798
O   O9        1.0  0.40345  0.60242  0.90127  1.0000 -0.5194050798
O   O10       1.0  0.09873  0.70115  0.50218  1.0000 -0.5194050798
O   O11       1.0  0.80103  0.29885  0.39758  1.0000 -0.5194050798
O   O12       1.0  0.90127  0.40345  0.60242  1.0000 -0.5194050798
O   O13       1.0  0.80103  0.40345  0.50218  1.0000 -0.5194050798
O   O14       1.0  0.50218  0.80103  0.40345  1.0000 -0.5194050798
O   O15       1.0  0.40345  0.50218  0.80103  1.0000 -0.5194050798
O   O16       1.0  0.70115  0.60242  0.19897  1.0000 -0.5194050798
O   O17       1.0  0.49782  0.90127  0.29885  1.0000 -0.5194050798
O   O18       1.0  0.29885  0.49782  0.90127  1.0000 -0.5194050798
O   O19       1.0  0.39758  0.09873  0.59655  1.0000 -0.5194050798
O   O20       1.0  0.60242  0.19897  0.70115  1.0000 -0.5194050798
O   O21       1.0  0.59655  0.39758  0.09873  1.0000 -0.5194050798
O   O22       1.0  0.90127  0.29885  0.49782  1.0000 -0.5194050798
O   O23       1.0  0.19897  0.70115  0.60242  1.0000 -0.5194050798
O   O24       1.0  0.09873  0.59655  0.39758  1.0000 -0.5194050798
O   O25       1.0  0.28107  0.68004  0.49795  1.0000 -0.5194050798
O   O26       1.0  0.49795  0.28107  0.68004  1.0000 -0.5194050798
O   O27       1.0  0.68004  0.49795  0.28107  1.0000 -0.5194050798
O   O28       1.0  0.21688  0.39897  0.71893  1.0000 -0.5194050798
O   O29       1.0  0.50205  0.18209  0.78312  1.0000 -0.5194050798
O   O30       1.0  0.78312  0.50205  0.18209  1.0000 -0.5194050798
O   O31       1.0  0.60103  0.81791  0.31996  1.0000 -0.5194050798
O   O32       1.0  0.39897  0.71893  0.21688  1.0000 -0.5194050798
O   O33       1.0  0.31996  0.60103  0.81791  1.0000 -0.5194050798
O   O34       1.0  0.18209  0.78312  0.50205  1.0000 -0.5194050798
O   O35       1.0  0.71893  0.21688  0.39897  1.0000 -0.5194050798
O   O36       1.0  0.81791  0.31996  0.60103  1.0000 -0.5194050798
O   O37       1.0  0.71893  0.31996  0.50205  1.0000 -0.5194050798
O   O38       1.0  0.50205  0.71893  0.31996  1.0000 -0.5194050798
O   O39       1.0  0.31996  0.50205  0.71893  1.0000 -0.5194050798
O   O40       1.0  0.78312  0.60103  0.28107  1.0000 -0.5194050798
O   O41       1.0  0.49795  0.81791  0.21688  1.0000 -0.5194050798
O   O42       1.0  0.21688  0.49795  0.81791  1.0000 -0.5194050798
O   O43       1.0  0.39897  0.18209  0.68004  1.0000 -0.5194050798
O   O44       1.0  0.60103  0.28107  0.78312  1.0000 -0.5194050798
O   O45       1.0  0.68004  0.39897  0.18209  1.0000 -0.5194050798
O   O46       1.0  0.81791  0.21688  0.49795  1.0000 -0.5194050798
O   O47       1.0  0.28107  0.78312  0.60103  1.0000 -0.5194050798
O   O48       1.0  0.18209  0.68004  0.39897  1.0000 -0.5194050798
