# DDEC6 charges by PACMAN v1.1 (https://github.com/mtap-research/PACMAN-charge/)
data_2014[Cu][pts]3[ASR]1
_chemical_formula_sum              "Cu16 H240 C288 I16 N32 O32"
_cell_length_a       12.716
_cell_length_b       12.716
_cell_length_c       62.078
_cell_angle_alpha    90
_cell_angle_beta     90
_cell_angle_gamma    90

_symmetry_space_group_name_H-M    "P 1"
_symmetry_Int_Tables_number       1

loop_
  _symmetry_equiv_pos_as_xyz
  'x, y, z'

loop_
  _atom_site_type_symbol
  _atom_site_label
  _atom_site_symmetry_multiplicity
  _atom_site_fract_x
  _atom_site_fract_y
  _atom_site_fract_z
  _atom_site_occupancy
  _atom_site_charge
Cu  Cu1       1.0  0.47011  0.55077  0.32469  1.0000 0.1779215327
Cu  Cu2       1.0  0.52989  0.44923  0.82469  1.0000 0.1779215327
Cu  Cu3       1.0  0.94923  0.97011  0.07469  1.0000 0.1779215327
Cu  Cu4       1.0  0.05077  0.02989  0.57469  1.0000 0.1779215327
Cu  Cu5       1.0  0.49524  0.55523  0.36534  1.0000 0.1857836386
Cu  Cu6       1.0  0.50476  0.44477  0.86534  1.0000 0.1857836386
Cu  Cu7       1.0  0.94477  0.99524  0.11534  1.0000 0.1857836386
Cu  Cu8       1.0  0.05523  0.00476  0.61534  1.0000 0.1857836386
Cu  Cu9       1.0  0.97011  0.94923  0.92531  1.0000 0.1779215327
Cu  Cu10      1.0  0.55077  0.47011  0.67531  1.0000 0.1779215327
Cu  Cu11      1.0  0.02989  0.05077  0.42531  1.0000 0.1779215327
Cu  Cu12      1.0  0.44923  0.52989  0.17531  1.0000 0.1779215327
Cu  Cu13      1.0  0.99524  0.94477  0.88466  1.0000 0.1857836386
Cu  Cu14      1.0  0.55523  0.49524  0.63466  1.0000 0.1857836386
Cu  Cu15      1.0  0.00476  0.05523  0.38466  1.0000 0.1857836386
Cu  Cu16      1.0  0.44477  0.50476  0.13466  1.0000 0.1857836386
H   H1        1.0  0.44360  0.01430  0.14870  1.0000 0.1190941722
H   H2        1.0  0.55640  0.98570  0.64870  1.0000 0.1190941722
H   H3        1.0  0.48570  0.94360  0.89870  1.0000 0.1190941722
H   H4        1.0  0.51430  0.05640  0.39870  1.0000 0.1190941722
H   H5        1.0  0.29420  0.88330  0.14390  1.0000 0.1386717107
H   H6        1.0  0.70580  0.11670  0.64390  1.0000 0.1386717107
H   H7        1.0  0.61670  0.79420  0.89390  1.0000 0.1386717107
H   H8        1.0  0.38330  0.20580  0.39390  1.0000 0.1386717107
H   H9        1.0  0.14680  0.87780  0.12290  1.0000 0.1109826066
H   H10       1.0  0.85320  0.12220  0.62290  1.0000 0.1109826066
H   H11       1.0  0.62220  0.64680  0.87290  1.0000 0.1109826066
H   H12       1.0  0.37780  0.35320  0.37290  1.0000 0.1109826066
H   H13       1.0  0.02640  0.12220  0.15230  1.0000 0.1109826066
H   H14       1.0  0.97360  0.87780  0.65230  1.0000 0.1109826066
H   H15       1.0  0.37780  0.52640  0.90230  1.0000 0.1109826066
H   H16       1.0  0.62220  0.47360  0.40230  1.0000 0.1109826066
H   H17       1.0  0.16900  0.13540  0.17460  1.0000 0.1386717107
H   H18       1.0  0.83100  0.86460  0.67460  1.0000 0.1386717107
H   H19       1.0  0.36460  0.66900  0.92460  1.0000 0.1386717107
H   H20       1.0  0.63540  0.33100  0.42460  1.0000 0.1386717107
H   H21       1.0  0.59950  0.13950  0.13920  1.0000 0.1386717107
H   H22       1.0  0.40050  0.86050  0.63920  1.0000 0.1386717107
H   H23       1.0  0.36050  0.09950  0.88920  1.0000 0.1386717107
H   H24       1.0  0.63950  0.90050  0.38920  1.0000 0.1386717107
H   H25       1.0  0.74310  0.11720  0.11710  1.0000 0.1026868402
H   H26       1.0  0.25690  0.88280  0.61710  1.0000 0.1026868402
H   H27       1.0  0.38280  0.24310  0.86710  1.0000 0.1026868402
H   H28       1.0  0.61720  0.75690  0.36710  1.0000 0.1026868402
H   H29       1.0  0.86200  0.90810  0.15670  1.0000 0.1109826066
H   H30       1.0  0.13800  0.09190  0.65670  1.0000 0.1109826066
H   H31       1.0  0.59190  0.36200  0.90670  1.0000 0.1109826066
H   H32       1.0  0.40810  0.63800  0.40670  1.0000 0.1109826066
H   H33       1.0  0.72240  0.92870  0.17990  1.0000 0.1314661454
H   H34       1.0  0.27760  0.07130  0.67990  1.0000 0.1314661454
H   H35       1.0  0.57130  0.22240  0.92990  1.0000 0.1314661454
H   H36       1.0  0.42870  0.77760  0.42990  1.0000 0.1314661454
H   H37       1.0  0.17730  0.91060  0.19670  1.0000 0.1109826066
H   H38       1.0  0.82270  0.08940  0.69670  1.0000 0.1109826066
H   H39       1.0  0.58940  0.67730  0.94670  1.0000 0.1109826066
H   H40       1.0  0.41060  0.32270  0.44670  1.0000 0.1109826066
H   H41       1.0  0.15180  0.93570  0.22140  1.0000 0.1190941722
H   H42       1.0  0.84820  0.06430  0.72140  1.0000 0.1190941722
H   H43       1.0  0.56430  0.65180  0.97140  1.0000 0.1190941722
H   H44       1.0  0.43570  0.34820  0.47140  1.0000 0.1190941722
H   H45       1.0  0.25950  0.87850  0.21500  1.0000 0.1190941722
H   H46       1.0  0.74050  0.12150  0.71500  1.0000 0.1190941722
H   H47       1.0  0.62150  0.75950  0.96500  1.0000 0.1190941722
H   H48       1.0  0.37850  0.24050  0.46500  1.0000 0.1190941722
H   H49       1.0  0.68330  0.17980  0.19100  1.0000 0.1109826066
H   H50       1.0  0.31670  0.82020  0.69100  1.0000 0.1109826066
H   H51       1.0  0.32020  0.18330  0.94100  1.0000 0.1109826066
H   H52       1.0  0.67980  0.81670  0.44100  1.0000 0.1109826066
H   H53       1.0  0.74690  0.16010  0.21290  1.0000 0.1190941722
H   H54       1.0  0.25310  0.83990  0.71290  1.0000 0.1190941722
H   H55       1.0  0.33990  0.24690  0.96290  1.0000 0.1190941722
H   H56       1.0  0.66010  0.75310  0.46290  1.0000 0.1190941722
H   H57       1.0  0.63180  0.21090  0.21370  1.0000 0.1190941722
H   H58       1.0  0.36820  0.78910  0.71370  1.0000 0.1190941722
H   H59       1.0  0.28910  0.13180  0.96370  1.0000 0.1190941722
H   H60       1.0  0.71090  0.86820  0.46370  1.0000 0.1190941722
H   H61       1.0  0.44250  0.05930  0.29170  1.0000 0.1190941722
H   H62       1.0  0.55750  0.94070  0.79170  1.0000 0.1190941722
H   H63       1.0  0.44070  0.94250  0.04170  1.0000 0.1190941722
H   H64       1.0  0.55930  0.05750  0.54170  1.0000 0.1190941722
H   H65       1.0  0.56200  0.32230  0.26160  1.0000 0.1314661454
H   H66       1.0  0.43800  0.67770  0.76160  1.0000 0.1314661454
H   H67       1.0  0.17770  0.06200  0.01160  1.0000 0.1314661454
H   H68       1.0  0.82230  0.93800  0.51160  1.0000 0.1314661454
H   H69       1.0  0.56830  0.46680  0.28530  1.0000 0.1026868402
H   H70       1.0  0.43170  0.53320  0.78530  1.0000 0.1026868402
H   H71       1.0  0.03320  0.06830  0.03530  1.0000 0.1026868402
H   H72       1.0  0.96680  0.93170  0.53530  1.0000 0.1026868402
H   H73       1.0  0.33240  0.35950  0.31910  1.0000 0.1026868402
H   H74       1.0  0.66760  0.64050  0.81910  1.0000 0.1026868402
H   H75       1.0  0.14050  0.83240  0.06910  1.0000 0.1026868402
H   H76       1.0  0.85950  0.16760  0.56910  1.0000 0.1026868402
H   H77       1.0  0.31890  0.21270  0.29720  1.0000 0.1314661454
H   H78       1.0  0.68110  0.78730  0.79720  1.0000 0.1314661454
H   H79       1.0  0.28730  0.81890  0.04720  1.0000 0.1314661454
H   H80       1.0  0.71270  0.18110  0.54720  1.0000 0.1314661454
H   H81       1.0  0.55990  0.91490  0.30020  1.0000 0.1314661454
H   H82       1.0  0.44010  0.08510  0.80020  1.0000 0.1314661454
H   H83       1.0  0.58510  0.05990  0.05020  1.0000 0.1314661454
H   H84       1.0  0.41490  0.94010  0.55020  1.0000 0.1314661454
H   H85       1.0  0.57060  0.76410  0.32070  1.0000 0.1026868402
H   H86       1.0  0.42940  0.23590  0.82070  1.0000 0.1026868402
H   H87       1.0  0.73590  0.07060  0.07070  1.0000 0.1026868402
H   H88       1.0  0.26410  0.92940  0.57070  1.0000 0.1026868402
H   H89       1.0  0.34600  0.63030  0.28700  1.0000 0.1026868402
H   H90       1.0  0.65400  0.36970  0.78700  1.0000 0.1026868402
H   H91       1.0  0.86970  0.84600  0.03700  1.0000 0.1026868402
H   H92       1.0  0.13030  0.15400  0.53700  1.0000 0.1026868402
H   H93       1.0  0.33660  0.77210  0.26430  1.0000 0.1314661454
H   H94       1.0  0.66340  0.22790  0.76430  1.0000 0.1314661454
H   H95       1.0  0.72790  0.83660  0.01430  1.0000 0.1314661454
H   H96       1.0  0.27210  0.16340  0.51430  1.0000 0.1314661454
H   H97       1.0  0.31070  0.22540  0.21600  1.0000 0.1190941722
H   H98       1.0  0.68930  0.77460  0.71600  1.0000 0.1190941722
H   H99       1.0  0.27460  0.81070  0.96600  1.0000 0.1190941722
H   H100      1.0  0.72540  0.18930  0.46600  1.0000 0.1190941722
H   H101      1.0  0.35850  0.34190  0.21580  1.0000 0.1109826066
H   H102      1.0  0.64150  0.65810  0.71580  1.0000 0.1109826066
H   H103      1.0  0.15810  0.85850  0.96580  1.0000 0.1109826066
H   H104      1.0  0.84190  0.14150  0.46580  1.0000 0.1109826066
H   H105      1.0  0.30780  0.29560  0.23740  1.0000 0.1109826066
H   H106      1.0  0.69220  0.70440  0.73740  1.0000 0.1109826066
H   H107      1.0  0.20440  0.80780  0.98740  1.0000 0.1109826066
H   H108      1.0  0.79560  0.19220  0.48740  1.0000 0.1109826066
H   H109      1.0  0.58690  0.87300  0.22270  1.0000 0.1190941722
H   H110      1.0  0.41310  0.12700  0.72270  1.0000 0.1190941722
H   H111      1.0  0.62700  0.08690  0.97270  1.0000 0.1190941722
H   H112      1.0  0.37300  0.91310  0.47270  1.0000 0.1190941722
H   H113      1.0  0.53500  0.76050  0.21820  1.0000 0.1190941722
H   H114      1.0  0.46500  0.23950  0.71820  1.0000 0.1190941722
H   H115      1.0  0.73950  0.03500  0.96820  1.0000 0.1190941722
H   H116      1.0  0.26050  0.96500  0.46820  1.0000 0.1190941722
H   H117      1.0  0.57280  0.79050  0.24200  1.0000 0.1109826066
H   H118      1.0  0.42720  0.20950  0.74200  1.0000 0.1109826066
H   H119      1.0  0.70950  0.07280  0.99200  1.0000 0.1109826066
H   H120      1.0  0.29050  0.92720  0.49200  1.0000 0.1109826066
H   H121      1.0  0.94360  0.48570  0.10130  1.0000 0.1190941722
H   H122      1.0  0.01430  0.44360  0.85130  1.0000 0.1190941722
H   H123      1.0  0.05640  0.51430  0.60130  1.0000 0.1190941722
H   H124      1.0  0.98570  0.55640  0.35130  1.0000 0.1190941722
H   H125      1.0  0.79420  0.61670  0.10610  1.0000 0.1386717107
H   H126      1.0  0.88330  0.29420  0.85610  1.0000 0.1386717107
H   H127      1.0  0.20580  0.38330  0.60610  1.0000 0.1386717107
H   H128      1.0  0.11670  0.70580  0.35610  1.0000 0.1386717107
H   H129      1.0  0.64680  0.62220  0.12710  1.0000 0.1109826066
H   H130      1.0  0.87780  0.14680  0.87710  1.0000 0.1109826066
H   H131      1.0  0.35320  0.37780  0.62710  1.0000 0.1109826066
H   H132      1.0  0.12220  0.85320  0.37710  1.0000 0.1109826066
H   H133      1.0  0.52640  0.37780  0.09770  1.0000 0.1109826066
H   H134      1.0  0.12220  0.02640  0.84770  1.0000 0.1109826066
H   H135      1.0  0.47360  0.62220  0.59770  1.0000 0.1109826066
H   H136      1.0  0.87780  0.97360  0.34770  1.0000 0.1109826066
H   H137      1.0  0.66900  0.36460  0.07540  1.0000 0.1386717107
H   H138      1.0  0.13540  0.16900  0.82540  1.0000 0.1386717107
H   H139      1.0  0.33100  0.63540  0.57540  1.0000 0.1386717107
H   H140      1.0  0.86460  0.83100  0.32540  1.0000 0.1386717107
H   H141      1.0  0.09950  0.36050  0.11080  1.0000 0.1386717107
H   H142      1.0  0.13950  0.59950  0.86080  1.0000 0.1386717107
H   H143      1.0  0.90050  0.63950  0.61080  1.0000 0.1386717107
H   H144      1.0  0.86050  0.40050  0.36080  1.0000 0.1386717107
H   H145      1.0  0.24310  0.38280  0.13290  1.0000 0.1026868402
H   H146      1.0  0.11720  0.74310  0.88290  1.0000 0.1026868402
H   H147      1.0  0.75690  0.61720  0.63290  1.0000 0.1026868402
H   H148      1.0  0.88280  0.25690  0.38290  1.0000 0.1026868402
H   H149      1.0  0.36200  0.59190  0.09330  1.0000 0.1109826066
H   H150      1.0  0.90810  0.86200  0.84330  1.0000 0.1109826066
H   H151      1.0  0.63800  0.40810  0.59330  1.0000 0.1109826066
H   H152      1.0  0.09190  0.13800  0.34330  1.0000 0.1109826066
H   H153      1.0  0.22240  0.57130  0.07010  1.0000 0.1314661454
H   H154      1.0  0.92870  0.72240  0.82010  1.0000 0.1314661454
H   H155      1.0  0.77760  0.42870  0.57010  1.0000 0.1314661454
H   H156      1.0  0.07130  0.27760  0.32010  1.0000 0.1314661454
H   H157      1.0  0.67730  0.58940  0.05330  1.0000 0.1109826066
H   H158      1.0  0.91060  0.17730  0.80330  1.0000 0.1109826066
H   H159      1.0  0.32270  0.41060  0.55330  1.0000 0.1109826066
H   H160      1.0  0.08940  0.82270  0.30330  1.0000 0.1109826066
H   H161      1.0  0.65180  0.56430  0.02860  1.0000 0.1190941722
H   H162      1.0  0.93570  0.15180  0.77860  1.0000 0.1190941722
H   H163      1.0  0.34820  0.43570  0.52860  1.0000 0.1190941722
H   H164      1.0  0.06430  0.84820  0.27860  1.0000 0.1190941722
H   H165      1.0  0.75950  0.62150  0.03500  1.0000 0.1190941722
H   H166      1.0  0.87850  0.25950  0.78500  1.0000 0.1190941722
H   H167      1.0  0.24050  0.37850  0.53500  1.0000 0.1190941722
H   H168      1.0  0.12150  0.74050  0.28500  1.0000 0.1190941722
H   H169      1.0  0.18330  0.32020  0.05900  1.0000 0.1109826066
H   H170      1.0  0.17980  0.68330  0.80900  1.0000 0.1109826066
H   H171      1.0  0.81670  0.67980  0.55900  1.0000 0.1109826066
H   H172      1.0  0.82020  0.31670  0.30900  1.0000 0.1109826066
H   H173      1.0  0.24690  0.33990  0.03710  1.0000 0.1190941722
H   H174      1.0  0.16010  0.74690  0.78710  1.0000 0.1190941722
H   H175      1.0  0.75310  0.66010  0.53710  1.0000 0.1190941722
H   H176      1.0  0.83990  0.25310  0.28710  1.0000 0.1190941722
H   H177      1.0  0.13180  0.28910  0.03630  1.0000 0.1190941722
H   H178      1.0  0.21090  0.63180  0.78630  1.0000 0.1190941722
H   H179      1.0  0.86820  0.71090  0.53630  1.0000 0.1190941722
H   H180      1.0  0.78910  0.36820  0.28630  1.0000 0.1190941722
H   H181      1.0  0.94250  0.44070  0.95830  1.0000 0.1190941722
H   H182      1.0  0.05930  0.44250  0.70830  1.0000 0.1190941722
H   H183      1.0  0.05750  0.55930  0.45830  1.0000 0.1190941722
H   H184      1.0  0.94070  0.55750  0.20830  1.0000 0.1190941722
H   H185      1.0  0.06200  0.17770  0.98840  1.0000 0.1314661454
H   H186      1.0  0.32230  0.56200  0.73840  1.0000 0.1314661454
H   H187      1.0  0.93800  0.82230  0.48840  1.0000 0.1314661454
H   H188      1.0  0.67770  0.43800  0.23840  1.0000 0.1314661454
H   H189      1.0  0.06830  0.03320  0.96470  1.0000 0.1026868402
H   H190      1.0  0.46680  0.56830  0.71470  1.0000 0.1026868402
H   H191      1.0  0.93170  0.96680  0.46470  1.0000 0.1026868402
H   H192      1.0  0.53320  0.43170  0.21470  1.0000 0.1026868402
H   H193      1.0  0.83240  0.14050  0.93090  1.0000 0.1026868402
H   H194      1.0  0.35950  0.33240  0.68090  1.0000 0.1026868402
H   H195      1.0  0.16760  0.85950  0.43090  1.0000 0.1026868402
H   H196      1.0  0.64050  0.66760  0.18090  1.0000 0.1026868402
H   H197      1.0  0.81890  0.28730  0.95280  1.0000 0.1314661454
H   H198      1.0  0.21270  0.31890  0.70280  1.0000 0.1314661454
H   H199      1.0  0.18110  0.71270  0.45280  1.0000 0.1314661454
H   H200      1.0  0.78730  0.68110  0.20280  1.0000 0.1314661454
H   H201      1.0  0.05990  0.58510  0.94980  1.0000 0.1314661454
H   H202      1.0  0.91490  0.55990  0.69980  1.0000 0.1314661454
H   H203      1.0  0.94010  0.41490  0.44980  1.0000 0.1314661454
H   H204      1.0  0.08510  0.44010  0.19980  1.0000 0.1314661454
H   H205      1.0  0.07060  0.73590  0.92930  1.0000 0.1026868402
H   H206      1.0  0.76410  0.57060  0.67930  1.0000 0.1026868402
H   H207      1.0  0.92940  0.26410  0.42930  1.0000 0.1026868402
H   H208      1.0  0.23590  0.42940  0.17930  1.0000 0.1026868402
H   H209      1.0  0.84600  0.86970  0.96300  1.0000 0.1026868402
H   H210      1.0  0.63030  0.34600  0.71300  1.0000 0.1026868402
H   H211      1.0  0.15400  0.13030  0.46300  1.0000 0.1026868402
H   H212      1.0  0.36970  0.65400  0.21300  1.0000 0.1026868402
H   H213      1.0  0.83660  0.72790  0.98570  1.0000 0.1314661454
H   H214      1.0  0.77210  0.33660  0.73570  1.0000 0.1314661454
H   H215      1.0  0.16340  0.27210  0.48570  1.0000 0.1314661454
H   H216      1.0  0.22790  0.66340  0.23570  1.0000 0.1314661454
H   H217      1.0  0.81070  0.27460  0.03400  1.0000 0.1190941722
H   H218      1.0  0.22540  0.31070  0.78400  1.0000 0.1190941722
H   H219      1.0  0.18930  0.72540  0.53400  1.0000 0.1190941722
H   H220      1.0  0.77460  0.68930  0.28400  1.0000 0.1190941722
H   H221      1.0  0.85850  0.15810  0.03420  1.0000 0.1109826066
H   H222      1.0  0.34190  0.35850  0.78420  1.0000 0.1109826066
H   H223      1.0  0.14150  0.84190  0.53420  1.0000 0.1109826066
H   H224      1.0  0.65810  0.64150  0.28420  1.0000 0.1109826066
H   H225      1.0  0.80780  0.20440  0.01260  1.0000 0.1109826066
H   H226      1.0  0.29560  0.30780  0.76260  1.0000 0.1109826066
H   H227      1.0  0.19220  0.79560  0.51260  1.0000 0.1109826066
H   H228      1.0  0.70440  0.69220  0.26260  1.0000 0.1109826066
H   H229      1.0  0.08690  0.62700  0.02730  1.0000 0.1190941722
H   H230      1.0  0.87300  0.58690  0.77730  1.0000 0.1190941722
H   H231      1.0  0.91310  0.37300  0.52730  1.0000 0.1190941722
H   H232      1.0  0.12700  0.41310  0.27730  1.0000 0.1190941722
H   H233      1.0  0.03500  0.73950  0.03180  1.0000 0.1190941722
H   H234      1.0  0.76050  0.53500  0.78180  1.0000 0.1190941722
H   H235      1.0  0.96500  0.26050  0.53180  1.0000 0.1190941722
H   H236      1.0  0.23950  0.46500  0.28180  1.0000 0.1190941722
H   H237      1.0  0.07280  0.70950  0.00800  1.0000 0.1109826066
H   H238      1.0  0.79050  0.57280  0.75800  1.0000 0.1109826066
H   H239      1.0  0.92720  0.29050  0.50800  1.0000 0.1109826066
H   H240      1.0  0.20950  0.42720  0.25800  1.0000 0.1109826066
C   C1        1.0  0.44550  0.04320  0.20773  1.0000 -0.0763531354
C   C2        1.0  0.55450  0.95680  0.70773  1.0000 -0.0763531354
C   C3        1.0  0.45680  0.94550  0.95773  1.0000 -0.0763531354
C   C4        1.0  0.54320  0.05450  0.45773  1.0000 -0.0763531354
C   C5        1.0  0.35060  0.03100  0.19628  1.0000 0.1386717107
C   C6        1.0  0.64940  0.96900  0.69628  1.0000 0.1386717107
C   C7        1.0  0.46900  0.85060  0.94628  1.0000 0.1386717107
C   C8        1.0  0.53100  0.14940  0.44628  1.0000 0.1386717107
C   C9        1.0  0.35140  0.02270  0.17432  1.0000 -0.0334687801
C   C10       1.0  0.64860  0.97730  0.67432  1.0000 -0.0334687801
C   C11       1.0  0.47730  0.85140  0.92432  1.0000 -0.0334687801
C   C12       1.0  0.52270  0.14860  0.42432  1.0000 -0.0334687801
C   C13       1.0  0.44430  0.02230  0.16395  1.0000 -0.1694382913
C   C14       1.0  0.55570  0.97770  0.66395  1.0000 -0.1694382913
C   C15       1.0  0.47770  0.94430  0.91395  1.0000 -0.1694382913
C   C16       1.0  0.52230  0.05570  0.41395  1.0000 -0.1694382913
C   C17       1.0  0.54140  0.03300  0.17408  1.0000 -0.0334687801
C   C18       1.0  0.45860  0.96700  0.67408  1.0000 -0.0334687801
C   C19       1.0  0.46700  0.04140  0.92408  1.0000 -0.0334687801
C   C20       1.0  0.53300  0.95860  0.42408  1.0000 -0.0334687801
C   C21       1.0  0.53700  0.04660  0.19641  1.0000 0.1386717107
C   C22       1.0  0.46300  0.95340  0.69641  1.0000 0.1386717107
C   C23       1.0  0.45340  0.03700  0.94641  1.0000 0.1386717107
C   C24       1.0  0.54660  0.96300  0.44641  1.0000 0.1386717107
C   C25       1.0  0.25160  0.01420  0.16130  1.0000 0.1386717107
C   C26       1.0  0.74840  0.98580  0.66130  1.0000 0.1386717107
C   C27       1.0  0.48580  0.75160  0.91130  1.0000 0.1386717107
C   C28       1.0  0.51420  0.24840  0.41130  1.0000 0.1386717107
C   C29       1.0  0.24050  0.93440  0.14578  1.0000 -0.1900156892
C   C30       1.0  0.75950  0.06560  0.64578  1.0000 -0.1900156892
C   C31       1.0  0.56560  0.74050  0.89578  1.0000 -0.1900156892
C   C32       1.0  0.43440  0.25950  0.39578  1.0000 -0.1900156892
C   C33       1.0  0.15210  0.93110  0.13358  1.0000 0.0802259228
C   C34       1.0  0.84790  0.06890  0.63358  1.0000 0.0802259228
C   C35       1.0  0.56890  0.65210  0.88358  1.0000 0.0802259228
C   C36       1.0  0.43110  0.34790  0.38358  1.0000 0.0802259228
C   C37       1.0  0.08210  0.07310  0.15074  1.0000 0.0597779777
C   C38       1.0  0.91790  0.92690  0.65074  1.0000 0.0597779777
C   C39       1.0  0.42690  0.58210  0.90074  1.0000 0.0597779777
C   C40       1.0  0.57310  0.41790  0.40074  1.0000 0.0597779777
C   C41       1.0  0.16720  0.08260  0.16384  1.0000 -0.1900156892
C   C42       1.0  0.83280  0.91740  0.66384  1.0000 -0.1900156892
C   C43       1.0  0.41740  0.66720  0.91384  1.0000 -0.1900156892
C   C44       1.0  0.58260  0.33280  0.41384  1.0000 -0.1900156892
C   C45       1.0  0.63830  0.02860  0.16144  1.0000 0.1314661454
C   C46       1.0  0.36170  0.97140  0.66144  1.0000 0.1314661454
C   C47       1.0  0.47140  0.13830  0.91144  1.0000 0.1314661454
C   C48       1.0  0.52860  0.86170  0.41144  1.0000 0.1314661454
C   C49       1.0  0.65160  0.08930  0.14297  1.0000 -0.1900156892
C   C50       1.0  0.34840  0.91070  0.64297  1.0000 -0.1900156892
C   C51       1.0  0.41070  0.15160  0.89297  1.0000 -0.1900156892
C   C52       1.0  0.58930  0.84840  0.39297  1.0000 -0.1900156892
C   C53       1.0  0.73890  0.07760  0.13009  1.0000 0.0802259228
C   C54       1.0  0.26110  0.92240  0.63009  1.0000 0.0802259228
C   C55       1.0  0.42240  0.23890  0.88009  1.0000 0.0802259228
C   C56       1.0  0.57760  0.76110  0.38009  1.0000 0.0802259228
C   C57       1.0  0.80790  0.95650  0.15314  1.0000 0.0597779777
C   C58       1.0  0.19210  0.04350  0.65314  1.0000 0.0597779777
C   C59       1.0  0.54350  0.30790  0.90314  1.0000 0.0597779777
C   C60       1.0  0.45650  0.69210  0.40314  1.0000 0.0597779777
C   C61       1.0  0.72280  0.96610  0.16665  1.0000 -0.1900156892
C   C62       1.0  0.27720  0.03390  0.66667  1.0000 -0.1900156892
C   C63       1.0  0.53390  0.22280  0.91665  1.0000 -0.1900156892
C   C64       1.0  0.46610  0.77720  0.41665  1.0000 -0.1900156892
C   C65       1.0  0.20770  0.93110  0.21056  1.0000 -0.2414584094
C   C66       1.0  0.79230  0.06890  0.71056  1.0000 -0.2414584094
C   C67       1.0  0.56890  0.70770  0.96056  1.0000 -0.2414584094
C   C68       1.0  0.43110  0.29230  0.46056  1.0000 -0.2414584094
C   C69       1.0  0.67700  0.16010  0.20622  1.0000 -0.2414584094
C   C70       1.0  0.32300  0.83990  0.70622  1.0000 -0.2414584094
C   C71       1.0  0.33990  0.17700  0.95622  1.0000 -0.2414584094
C   C72       1.0  0.66010  0.82300  0.45622  1.0000 -0.2414584094
C   C73       1.0  0.44480  0.04860  0.23194  1.0000 -0.0907154511
C   C74       1.0  0.55520  0.95140  0.73194  1.0000 -0.0907154511
C   C75       1.0  0.45140  0.94480  0.98194  1.0000 -0.0907154511
C   C76       1.0  0.54860  0.05520  0.48194  1.0000 -0.0907154511
C   C77       1.0  0.44400  0.14360  0.24254  1.0000 0.1599704167
C   C78       1.0  0.55600  0.85640  0.74254  1.0000 0.1599704167
C   C79       1.0  0.35640  0.94400  0.99254  1.0000 0.1599704167
C   C80       1.0  0.64360  0.05600  0.49254  1.0000 0.1599704167
C   C81       1.0  0.43990  0.14830  0.26523  1.0000 -0.0334687801
C   C82       1.0  0.56010  0.85170  0.76523  1.0000 -0.0334687801
C   C83       1.0  0.35170  0.93990  0.01523  1.0000 -0.0334687801
C   C84       1.0  0.64830  0.06010  0.51523  1.0000 -0.0334687801
C   C85       1.0  0.44220  0.05630  0.27641  1.0000 -0.1900156892
C   C86       1.0  0.55780  0.94370  0.77641  1.0000 -0.1900156892
C   C87       1.0  0.44370  0.94220  0.02641  1.0000 -0.1900156892
C   C88       1.0  0.55630  0.05780  0.52641  1.0000 -0.1900156892
C   C89       1.0  0.44400  0.95760  0.26651  1.0000 -0.0414355825
C   C90       1.0  0.55600  0.04240  0.76651  1.0000 -0.0414355825
C   C91       1.0  0.54240  0.94400  0.01651  1.0000 -0.0414355825
C   C92       1.0  0.45760  0.05600  0.51651  1.0000 -0.0414355825
C   C93       1.0  0.44200  0.95540  0.24406  1.0000 0.1599704167
C   C94       1.0  0.55800  0.04460  0.74406  1.0000 0.1599704167
C   C95       1.0  0.54460  0.94200  0.99406  1.0000 0.1599704167
C   C96       1.0  0.45540  0.05800  0.49406  1.0000 0.1599704167
C   C97       1.0  0.44220  0.24870  0.27727  1.0000 0.1386717107
C   C98       1.0  0.55780  0.75130  0.77727  1.0000 0.1386717107
C   C99       1.0  0.25130  0.94220  0.02727  1.0000 0.1386717107
C   C100      1.0  0.74870  0.05780  0.52727  1.0000 0.1386717107
C   C101      1.0  0.51480  0.32670  0.27343  1.0000 -0.1987423086
C   C102      1.0  0.48520  0.67330  0.77343  1.0000 -0.1987423086
C   C103      1.0  0.17330  0.01480  0.02343  1.0000 -0.1987423086
C   C104      1.0  0.82670  0.98520  0.52343  1.0000 -0.1987423086
C   C105      1.0  0.51700  0.41380  0.28762  1.0000 0.0802259228
C   C106      1.0  0.48300  0.58620  0.78762  1.0000 0.0802259228
C   C107      1.0  0.08620  0.01700  0.03762  1.0000 0.0802259228
C   C108      1.0  0.91380  0.98300  0.53762  1.0000 0.0802259228
C   C109      1.0  0.37980  0.35150  0.30738  1.0000 0.0694812395
C   C110      1.0  0.62020  0.64850  0.80738  1.0000 0.0694812395
C   C111      1.0  0.14850  0.87980  0.05738  1.0000 0.0694812395
C   C112      1.0  0.85150  0.12020  0.55738  1.0000 0.0694812395
C   C113      1.0  0.37200  0.26350  0.29444  1.0000 -0.2080224016
C   C114      1.0  0.62800  0.73650  0.79444  1.0000 -0.2080224016
C   C115      1.0  0.23650  0.87200  0.04444  1.0000 -0.2080224016
C   C116      1.0  0.76350  0.12800  0.54444  1.0000 -0.2080224016
C   C117      1.0  0.44800  0.85950  0.27958  1.0000 0.1314661454
C   C118      1.0  0.55200  0.14050  0.77958  1.0000 0.1314661454
C   C119      1.0  0.64050  0.94800  0.02958  1.0000 0.1314661454
C   C120      1.0  0.35950  0.05200  0.52958  1.0000 0.1314661454
C   C121      1.0  0.51670  0.85610  0.29691  1.0000 -0.1987423086
C   C122      1.0  0.48330  0.14390  0.79691  1.0000 -0.1987423086
C   C123      1.0  0.64390  0.01670  0.04691  1.0000 -0.1987423086
C   C124      1.0  0.35610  0.98330  0.54691  1.0000 -0.1987423086
C   C125      1.0  0.52140  0.76640  0.30925  1.0000 0.0694812395
C   C126      1.0  0.47860  0.23360  0.80925  1.0000 0.0694812395
C   C127      1.0  0.73360  0.02140  0.05925  1.0000 0.0694812395
C   C128      1.0  0.26640  0.97860  0.55925  1.0000 0.0694812395
C   C129      1.0  0.39180  0.68810  0.28943  1.0000 0.0694812395
C   C130      1.0  0.60820  0.31190  0.78943  1.0000 0.0694812395
C   C131      1.0  0.81190  0.89180  0.03943  1.0000 0.0694812395
C   C132      1.0  0.18810  0.10820  0.53943  1.0000 0.0694812395
C   C133      1.0  0.38470  0.77270  0.27602  1.0000 -0.1900156892
C   C134      1.0  0.61530  0.22730  0.77602  1.0000 -0.1900156892
C   C135      1.0  0.72730  0.88470  0.02602  1.0000 -0.1900156892
C   C136      1.0  0.27270  0.11530  0.52602  1.0000 -0.1900156892
C   C137      1.0  0.34860  0.27830  0.22450  1.0000 -0.2475748425
C   C138      1.0  0.65140  0.72170  0.72450  1.0000 -0.2475748425
C   C139      1.0  0.22170  0.84860  0.97450  1.0000 -0.2475748425
C   C140      1.0  0.77830  0.15140  0.47450  1.0000 -0.2475748425
C   C141      1.0  0.54170  0.81770  0.22865  1.0000 -0.2414584094
C   C142      1.0  0.45830  0.18230  0.72865  1.0000 -0.2414584094
C   C143      1.0  0.68230  0.04170  0.97865  1.0000 -0.2414584094
C   C144      1.0  0.31770  0.95830  0.47865  1.0000 -0.2414584094
C   C145      1.0  0.94550  0.45680  0.04227  1.0000 -0.0763531354
C   C146      1.0  0.04320  0.44550  0.79227  1.0000 -0.0763531354
C   C147      1.0  0.05450  0.54320  0.54227  1.0000 -0.0763531354
C   C148      1.0  0.95680  0.55450  0.29227  1.0000 -0.0763531354
C   C149      1.0  0.85060  0.46900  0.05372  1.0000 0.1386717107
C   C150      1.0  0.03100  0.35060  0.80372  1.0000 0.1386717107
C   C151      1.0  0.14940  0.53100  0.55372  1.0000 0.1386717107
C   C152      1.0  0.96900  0.64940  0.30372  1.0000 0.1386717107
C   C153      1.0  0.85140  0.47730  0.07568  1.0000 -0.0334687801
C   C154      1.0  0.02270  0.35140  0.82568  1.0000 -0.0334687801
C   C155      1.0  0.14860  0.52270  0.57568  1.0000 -0.0334687801
C   C156      1.0  0.97730  0.64860  0.32568  1.0000 -0.0334687801
C   C157      1.0  0.94430  0.47770  0.08605  1.0000 -0.1694382913
C   C158      1.0  0.02230  0.44430  0.83605  1.0000 -0.1694382913
C   C159      1.0  0.05570  0.52230  0.58605  1.0000 -0.1694382913
C   C160      1.0  0.97770  0.55570  0.33605  1.0000 -0.1694382913
C   C161      1.0  0.04140  0.46700  0.07592  1.0000 -0.0334687801
C   C162      1.0  0.03300  0.54140  0.82592  1.0000 -0.0334687801
C   C163      1.0  0.95860  0.53300  0.57592  1.0000 -0.0334687801
C   C164      1.0  0.96700  0.45860  0.32592  1.0000 -0.0334687801
C   C165      1.0  0.03700  0.45340  0.05359  1.0000 0.1386717107
C   C166      1.0  0.04660  0.53700  0.80359  1.0000 0.1386717107
C   C167      1.0  0.96300  0.54660  0.55359  1.0000 0.1386717107
C   C168      1.0  0.95340  0.46300  0.30359  1.0000 0.1386717107
C   C169      1.0  0.75160  0.48580  0.08870  1.0000 0.1386717107
C   C170      1.0  0.01420  0.25160  0.83870  1.0000 0.1386717107
C   C171      1.0  0.24840  0.51420  0.58870  1.0000 0.1386717107
C   C172      1.0  0.98580  0.74840  0.33870  1.0000 0.1386717107
C   C173      1.0  0.74050  0.56560  0.10422  1.0000 -0.1900156892
C   C174      1.0  0.93440  0.24050  0.85422  1.0000 -0.1900156892
C   C175      1.0  0.25950  0.43440  0.60422  1.0000 -0.1900156892
C   C176      1.0  0.06560  0.75950  0.35422  1.0000 -0.1900156892
C   C177      1.0  0.65210  0.56890  0.11642  1.0000 0.0802259228
C   C178      1.0  0.93110  0.15210  0.86642  1.0000 0.0802259228
C   C179      1.0  0.34790  0.43110  0.61642  1.0000 0.0802259228
C   C180      1.0  0.06890  0.84790  0.36642  1.0000 0.0802259228
C   C181      1.0  0.58210  0.42690  0.09926  1.0000 0.0597779777
C   C182      1.0  0.07310  0.08210  0.84926  1.0000 0.0597779777
C   C183      1.0  0.41790  0.57310  0.59926  1.0000 0.0597779777
C   C184      1.0  0.92690  0.91790  0.34926  1.0000 0.0597779777
C   C185      1.0  0.66720  0.41740  0.08616  1.0000 -0.1900156892
C   C186      1.0  0.08260  0.16720  0.83616  1.0000 -0.1900156892
C   C187      1.0  0.33280  0.58260  0.58616  1.0000 -0.1900156892
C   C188      1.0  0.91740  0.83280  0.33616  1.0000 -0.1900156892
C   C189      1.0  0.13830  0.47140  0.08856  1.0000 0.1314661454
C   C190      1.0  0.02860  0.63830  0.83856  1.0000 0.1314661454
C   C191      1.0  0.86170  0.52860  0.58856  1.0000 0.1314661454
C   C192      1.0  0.97140  0.36170  0.33856  1.0000 0.1314661454
C   C193      1.0  0.15160  0.41070  0.10703  1.0000 -0.1900156892
C   C194      1.0  0.08930  0.65160  0.85703  1.0000 -0.1900156892
C   C195      1.0  0.84840  0.58930  0.60703  1.0000 -0.1900156892
C   C196      1.0  0.91070  0.34840  0.35703  1.0000 -0.1900156892
C   C197      1.0  0.23890  0.42240  0.11991  1.0000 0.0802259228
C   C198      1.0  0.07760  0.73890  0.86991  1.0000 0.0802259228
C   C199      1.0  0.76110  0.57760  0.61991  1.0000 0.0802259228
C   C200      1.0  0.92240  0.26110  0.36991  1.0000 0.0802259228
C   C201      1.0  0.30790  0.54350  0.09686  1.0000 0.0597779777
C   C202      1.0  0.95650  0.80790  0.84686  1.0000 0.0597779777
C   C203      1.0  0.69210  0.45650  0.59686  1.0000 0.0597779777
C   C204      1.0  0.04350  0.19210  0.34686  1.0000 0.0597779777
C   C205      1.0  0.22280  0.53390  0.08335  1.0000 -0.1900156892
C   C206      1.0  0.96610  0.72280  0.83335  1.0000 -0.1900156892
C   C207      1.0  0.77720  0.46610  0.58335  1.0000 -0.1900156892
C   C208      1.0  0.03390  0.27720  0.33333  1.0000 -0.1900156892
C   C209      1.0  0.70770  0.56890  0.03944  1.0000 -0.2414584094
C   C210      1.0  0.93110  0.20770  0.78944  1.0000 -0.2414584094
C   C211      1.0  0.29230  0.43110  0.53944  1.0000 -0.2414584094
C   C212      1.0  0.06890  0.79230  0.28944  1.0000 -0.2414584094
C   C213      1.0  0.17700  0.33990  0.04378  1.0000 -0.2414584094
C   C214      1.0  0.16010  0.67700  0.79378  1.0000 -0.2414584094
C   C215      1.0  0.82300  0.66010  0.54378  1.0000 -0.2414584094
C   C216      1.0  0.83990  0.32300  0.29378  1.0000 -0.2414584094
C   C217      1.0  0.94480  0.45140  0.01806  1.0000 -0.0907154511
C   C218      1.0  0.04860  0.44480  0.76806  1.0000 -0.0907154511
C   C219      1.0  0.05520  0.54860  0.51806  1.0000 -0.0907154511
C   C220      1.0  0.95140  0.55520  0.26806  1.0000 -0.0907154511
C   C221      1.0  0.94400  0.35640  0.00746  1.0000 0.1599704167
C   C222      1.0  0.14360  0.44400  0.75746  1.0000 0.1599704167
C   C223      1.0  0.05600  0.64360  0.50746  1.0000 0.1599704167
C   C224      1.0  0.85640  0.55600  0.25746  1.0000 0.1599704167
C   C225      1.0  0.93990  0.35170  0.98477  1.0000 -0.0334687801
C   C226      1.0  0.14830  0.43990  0.73477  1.0000 -0.0334687801
C   C227      1.0  0.06010  0.64830  0.48477  1.0000 -0.0334687801
C   C228      1.0  0.85170  0.56010  0.23477  1.0000 -0.0334687801
C   C229      1.0  0.94220  0.44370  0.97359  1.0000 -0.1900156892
C   C230      1.0  0.05630  0.44220  0.72359  1.0000 -0.1900156892
C   C231      1.0  0.05780  0.55630  0.47359  1.0000 -0.1900156892
C   C232      1.0  0.94370  0.55780  0.22359  1.0000 -0.1900156892
C   C233      1.0  0.94400  0.54240  0.98349  1.0000 -0.0414355825
C   C234      1.0  0.95760  0.44400  0.73349  1.0000 -0.0414355825
C   C235      1.0  0.05600  0.45760  0.48349  1.0000 -0.0414355825
C   C236      1.0  0.04240  0.55600  0.23349  1.0000 -0.0414355825
C   C237      1.0  0.94200  0.54460  0.00594  1.0000 0.1599704167
C   C238      1.0  0.95540  0.44200  0.75594  1.0000 0.1599704167
C   C239      1.0  0.05800  0.45540  0.50594  1.0000 0.1599704167
C   C240      1.0  0.04460  0.55800  0.25594  1.0000 0.1599704167
C   C241      1.0  0.94220  0.25130  0.97273  1.0000 0.1386717107
C   C242      1.0  0.24870  0.44220  0.72273  1.0000 0.1386717107
C   C243      1.0  0.05780  0.74870  0.47273  1.0000 0.1386717107
C   C244      1.0  0.75130  0.55780  0.22273  1.0000 0.1386717107
C   C245      1.0  0.01480  0.17330  0.97657  1.0000 -0.1987423086
C   C246      1.0  0.32670  0.51480  0.72657  1.0000 -0.1987423086
C   C247      1.0  0.98520  0.82670  0.47657  1.0000 -0.1987423086
C   C248      1.0  0.67330  0.48520  0.22657  1.0000 -0.1987423086
C   C249      1.0  0.01700  0.08620  0.96238  1.0000 0.0802259228
C   C250      1.0  0.41380  0.51700  0.71238  1.0000 0.0802259228
C   C251      1.0  0.98300  0.91380  0.46238  1.0000 0.0802259228
C   C252      1.0  0.58620  0.48300  0.21238  1.0000 0.0802259228
C   C253      1.0  0.87980  0.14850  0.94262  1.0000 0.0694812395
C   C254      1.0  0.35150  0.37980  0.69262  1.0000 0.0694812395
C   C255      1.0  0.12020  0.85150  0.44262  1.0000 0.0694812395
C   C256      1.0  0.64850  0.62020  0.19262  1.0000 0.0694812395
C   C257      1.0  0.87200  0.23650  0.95556  1.0000 -0.2080224016
C   C258      1.0  0.26350  0.37200  0.70556  1.0000 -0.2080224016
C   C259      1.0  0.12800  0.76350  0.45556  1.0000 -0.2080224016
C   C260      1.0  0.73650  0.62800  0.20556  1.0000 -0.2080224016
C   C261      1.0  0.94800  0.64050  0.97042  1.0000 0.1314661454
C   C262      1.0  0.85950  0.44800  0.72042  1.0000 0.1314661454
C   C263      1.0  0.05200  0.35950  0.47042  1.0000 0.1314661454
C   C264      1.0  0.14050  0.55200  0.22042  1.0000 0.1314661454
C   C265      1.0  0.01670  0.64390  0.95309  1.0000 -0.1987423086
C   C266      1.0  0.85610  0.51670  0.70309  1.0000 -0.1987423086
C   C267      1.0  0.98330  0.35610  0.45309  1.0000 -0.1987423086
C   C268      1.0  0.14390  0.48330  0.20309  1.0000 -0.1987423086
C   C269      1.0  0.02140  0.73360  0.94075  1.0000 0.0694812395
C   C270      1.0  0.76640  0.52140  0.69075  1.0000 0.0694812395
C   C271      1.0  0.97860  0.26640  0.44075  1.0000 0.0694812395
C   C272      1.0  0.23360  0.47860  0.19075  1.0000 0.0694812395
C   C273      1.0  0.89180  0.81190  0.96057  1.0000 0.0694812395
C   C274      1.0  0.68810  0.39180  0.71057  1.0000 0.0694812395
C   C275      1.0  0.10820  0.18810  0.46057  1.0000 0.0597779777
C   C276      1.0  0.31190  0.60820  0.21057  1.0000 0.0694812395
C   C277      1.0  0.88470  0.72730  0.97398  1.0000 -0.1900156892
C   C278      1.0  0.77270  0.38470  0.72398  1.0000 -0.1900156892
C   C279      1.0  0.11530  0.27270  0.47398  1.0000 -0.1900156892
C   C280      1.0  0.22730  0.61530  0.22398  1.0000 -0.1900156892
C   C281      1.0  0.84860  0.22170  0.02550  1.0000 -0.2475748425
C   C282      1.0  0.27830  0.34860  0.77550  1.0000 -0.2475748425
C   C283      1.0  0.15140  0.77830  0.52550  1.0000 -0.2475748425
C   C284      1.0  0.72170  0.65140  0.27550  1.0000 -0.2475748425
C   C285      1.0  0.04170  0.68230  0.02135  1.0000 -0.2414584094
C   C286      1.0  0.81770  0.54170  0.77135  1.0000 -0.2414584094
C   C287      1.0  0.95830  0.31770  0.52135  1.0000 -0.2414584094
C   C288      1.0  0.18230  0.45830  0.27135  1.0000 -0.2414584094
I   I1        1.0  0.30180  0.55638  0.34913  1.0000 -0.487136797
I   I2        1.0  0.69820  0.44362  0.84913  1.0000 -0.487136797
I   I3        1.0  0.94362  0.80180  0.09913  1.0000 -0.487136797
I   I4        1.0  0.05638  0.19820  0.59913  1.0000 -0.487136797
I   I5        1.0  0.66220  0.54593  0.34021  1.0000 -0.4692176738
I   I6        1.0  0.33780  0.45407  0.84021  1.0000 -0.4692176738
I   I7        1.0  0.95407  0.16220  0.09021  1.0000 -0.4692176738
I   I8        1.0  0.04593  0.83780  0.59021  1.0000 -0.4692176738
I   I9        1.0  0.80180  0.94362  0.90087  1.0000 -0.487136797
I   I10       1.0  0.55638  0.30180  0.65087  1.0000 -0.487136797
I   I11       1.0  0.19820  0.05638  0.40087  1.0000 -0.487136797
I   I12       1.0  0.44362  0.69820  0.15087  1.0000 -0.487136797
I   I13       1.0  0.16220  0.95407  0.90979  1.0000 -0.4692176738
I   I14       1.0  0.54593  0.66220  0.65979  1.0000 -0.4692176738
I   I15       1.0  0.83780  0.04593  0.40979  1.0000 -0.4692176738
I   I16       1.0  0.45407  0.33780  0.15979  1.0000 -0.4692176738
N   N1        1.0  0.07290  0.99760  0.13566  1.0000 -0.1786879152
N   N2        1.0  0.92710  0.00240  0.63566  1.0000 -0.1786879152
N   N3        1.0  0.50240  0.57290  0.88566  1.0000 -0.1786879152
N   N4        1.0  0.49760  0.42710  0.38566  1.0000 -0.1786879152
N   N5        1.0  0.81690  0.01390  0.13495  1.0000 -0.1694382913
N   N6        1.0  0.18310  0.98610  0.63495  1.0000 -0.1694382913
N   N7        1.0  0.48610  0.31690  0.88495  1.0000 -0.1694382913
N   N8        1.0  0.51390  0.68310  0.38495  1.0000 -0.1694382913
N   N9        1.0  0.45160  0.42510  0.30393  1.0000 -0.1786879152
N   N10       1.0  0.54840  0.57490  0.80393  1.0000 -0.1786879152
N   N11       1.0  0.07490  0.95160  0.05393  1.0000 -0.1786879152
N   N12       1.0  0.92510  0.04840  0.55393  1.0000 -0.1786879152
N   N13       1.0  0.46020  0.68200  0.30592  1.0000 -0.1786879152
N   N14       1.0  0.53980  0.31800  0.80592  1.0000 -0.1786879152
N   N15       1.0  0.81800  0.96020  0.05592  1.0000 -0.1786879152
N   N16       1.0  0.18200  0.03980  0.55592  1.0000 -0.1786879152
N   N17       1.0  0.57290  0.50240  0.11434  1.0000 -0.1786879152
N   N18       1.0  0.99760  0.07290  0.86434  1.0000 -0.1786879152
N   N19       1.0  0.42710  0.49760  0.61434  1.0000 -0.1786879152
N   N20       1.0  0.00240  0.92710  0.36434  1.0000 -0.1786879152
N   N21       1.0  0.31690  0.48610  0.11505  1.0000 -0.1694382913
N   N22       1.0  0.01390  0.81690  0.86505  1.0000 -0.1694382913
N   N23       1.0  0.68310  0.51390  0.61505  1.0000 -0.1694382913
N   N24       1.0  0.98610  0.18310  0.36505  1.0000 -0.1694382913
N   N25       1.0  0.95160  0.07490  0.94607  1.0000 -0.1786879152
N   N26       1.0  0.42510  0.45160  0.69607  1.0000 -0.1786879152
N   N27       1.0  0.04840  0.92510  0.44607  1.0000 -0.1786879152
N   N28       1.0  0.57490  0.54840  0.19607  1.0000 -0.1786879152
N   N29       1.0  0.96020  0.81800  0.94408  1.0000 -0.1786879152
N   N30       1.0  0.68200  0.46020  0.69408  1.0000 -0.1786879152
N   N31       1.0  0.03980  0.18200  0.44408  1.0000 -0.1786879152
N   N32       1.0  0.31800  0.53980  0.19408  1.0000 -0.1786879152
O   O1        1.0  0.25790  0.03110  0.20846  1.0000 -0.1786879152
O   O2        1.0  0.74210  0.96890  0.70846  1.0000 -0.1786879152
O   O3        1.0  0.46890  0.75790  0.95846  1.0000 -0.1786879152
O   O4        1.0  0.53110  0.24210  0.45846  1.0000 -0.1786879152
O   O5        1.0  0.63110  0.05540  0.20785  1.0000 -0.1900156892
O   O6        1.0  0.36890  0.94460  0.70785  1.0000 -0.1900156892
O   O7        1.0  0.44460  0.13110  0.95785  1.0000 -0.1900156892
O   O8        1.0  0.55540  0.86890  0.45785  1.0000 -0.1900156892
O   O9        1.0  0.45020  0.23690  0.23077  1.0000 -0.1987423086
O   O10       1.0  0.54980  0.76310  0.73077  1.0000 -0.1987423086
O   O11       1.0  0.26310  0.95020  0.98077  1.0000 -0.1987423086
O   O12       1.0  0.73690  0.04980  0.48077  1.0000 -0.1987423086
O   O13       1.0  0.44100  0.85980  0.23311  1.0000 -0.1900156892
O   O14       1.0  0.55900  0.14020  0.73311  1.0000 -0.1900156892
O   O15       1.0  0.64020  0.94100  0.98311  1.0000 -0.1900156892
O   O16       1.0  0.35980  0.05900  0.48311  1.0000 -0.1900156892
O   O17       1.0  0.75790  0.46890  0.04154  1.0000 -0.1786879152
O   O18       1.0  0.03110  0.25790  0.79154  1.0000 -0.1786879152
O   O19       1.0  0.24210  0.53110  0.54154  1.0000 -0.1786879152
O   O20       1.0  0.96890  0.74210  0.29154  1.0000 -0.1786879152
O   O21       1.0  0.13110  0.44460  0.04215  1.0000 -0.1900156892
O   O22       1.0  0.05540  0.63110  0.79215  1.0000 -0.1900156892
O   O23       1.0  0.86890  0.55540  0.54215  1.0000 -0.1900156892
O   O24       1.0  0.94460  0.36890  0.29215  1.0000 -0.1900156892
O   O25       1.0  0.95020  0.26310  0.01923  1.0000 -0.1987423086
O   O26       1.0  0.23690  0.45020  0.76923  1.0000 -0.1987423086
O   O27       1.0  0.04980  0.73690  0.51923  1.0000 -0.1987423086
O   O28       1.0  0.76310  0.54980  0.26923  1.0000 -0.1987423086
O   O29       1.0  0.94100  0.64020  0.01689  1.0000 -0.1900156892
O   O30       1.0  0.85980  0.44100  0.76689  1.0000 -0.1900156892
O   O31       1.0  0.05900  0.35980  0.51689  1.0000 -0.1900156892
O   O32       1.0  0.14020  0.55900  0.26689  1.0000 -0.1900156892
