# DDEC6 charges by PACMAN v1.1 (https://github.com/mtap-research/PACMAN-charge/)
data_2014[Zn][nan]3[ASR]36
_chemical_formula_sum              "Zn8 H40 C44 N4 O28"
_cell_length_a       10.3349
_cell_length_b       11.8962
_cell_length_c       20.2894
_cell_angle_alpha    90
_cell_angle_beta     90
_cell_angle_gamma    90

_symmetry_space_group_name_H-M    "P 1"
_symmetry_Int_Tables_number       1

loop_
  _symmetry_equiv_pos_as_xyz
  'x, y, z'

loop_
  _atom_site_type_symbol
  _atom_site_label
  _atom_site_symmetry_multiplicity
  _atom_site_fract_x
  _atom_site_fract_y
  _atom_site_fract_z
  _atom_site_occupancy
  _atom_site_charge
Zn  Zn1       1.0  0.14246  0.67650  0.99072  1.0000 0.9287992119
Zn  Zn2       1.0  0.35754  0.32350  0.49072  1.0000 0.9287992119
Zn  Zn3       1.0  0.64246  0.82350  0.00928  1.0000 0.9287992119
Zn  Zn4       1.0  0.85754  0.17650  0.50928  1.0000 0.9287992119
Zn  Zn5       1.0  0.45562  0.58325  0.99026  1.0000 0.9671805798
Zn  Zn6       1.0  0.04438  0.41675  0.49026  1.0000 0.9671805798
Zn  Zn7       1.0  0.95562  0.91675  0.00974  1.0000 0.9671805798
Zn  Zn8       1.0  0.54438  0.08325  0.50974  1.0000 0.9671805798
H   H1        1.0  0.44960  0.49480  0.79370  1.0000 0.1181766259
H   H2        1.0  0.05040  0.50520  0.29370  1.0000 0.1181766259
H   H3        1.0  0.94960  0.00520  0.20630  1.0000 0.1181766259
H   H4        1.0  0.55040  0.99480  0.70630  1.0000 0.1181766259
H   H5        1.0  0.05700  0.51120  0.68890  1.0000 0.1181766259
H   H6        1.0  0.44300  0.48880  0.18890  1.0000 0.1181766259
H   H7        1.0  0.55700  0.98880  0.31110  1.0000 0.1181766259
H   H8        1.0  0.94300  0.01120  0.81110  1.0000 0.1181766259
H   H9        1.0  0.43970  0.44700  0.68180  1.0000 0.1181766259
H   H10       1.0  0.06030  0.55300  0.18180  1.0000 0.1181766259
H   H11       1.0  0.93970  0.05300  0.31820  1.0000 0.1181766259
H   H12       1.0  0.56030  0.94700  0.81820  1.0000 0.1181766259
H   H13       1.0  0.23400  0.96800  0.01100  1.0000 0.0889456048
H   H14       1.0  0.26600  0.03200  0.51100  1.0000 0.0889456048
H   H15       1.0  0.73400  0.53200  0.98900  1.0000 0.0889456048
H   H16       1.0  0.76600  0.46800  0.48900  1.0000 0.0889456048
H   H17       1.0  0.04180  0.58020  0.84570  1.0000 0.2733627755
H   H18       1.0  0.45820  0.41980  0.34570  1.0000 0.2733627755
H   H19       1.0  0.54180  0.91980  0.15430  1.0000 0.2753141522
H   H20       1.0  0.95820  0.08020  0.65430  1.0000 0.2733627755
H   H21       1.0  0.96910  0.52690  0.79290  1.0000 0.2485845634
H   H22       1.0  0.53090  0.47310  0.29290  1.0000 0.2445624172
H   H23       1.0  0.46910  0.97310  0.20710  1.0000 0.2485845634
H   H24       1.0  0.03090  0.02690  0.70710  1.0000 0.2445624172
H   H25       1.0  0.01160  0.64280  0.78610  1.0000 0.2485845634
H   H26       1.0  0.48840  0.35720  0.28610  1.0000 0.2485845634
H   H27       1.0  0.51160  0.85720  0.21390  1.0000 0.2485845634
H   H28       1.0  0.98840  0.14280  0.71390  1.0000 0.2485845634
H   H29       1.0  0.13930  0.93200  0.11940  1.0000 0.1275890245
H   H30       1.0  0.36070  0.06800  0.61940  1.0000 0.1275890245
H   H31       1.0  0.63930  0.56800  0.88060  1.0000 0.1275890245
H   H32       1.0  0.86070  0.43200  0.38060  1.0000 0.1275890245
H   H33       1.0  0.28720  0.96090  0.12070  1.0000 0.1181766259
H   H34       1.0  0.21280  0.03910  0.62070  1.0000 0.1181766259
H   H35       1.0  0.78720  0.53910  0.87930  1.0000 0.1181766259
H   H36       1.0  0.71280  0.46090  0.37930  1.0000 0.1181766259
H   H37       1.0  0.24170  0.83570  0.12740  1.0000 0.1275890245
H   H38       1.0  0.25830  0.16430  0.62740  1.0000 0.1275890245
H   H39       1.0  0.74170  0.66430  0.87260  1.0000 0.1275890245
H   H40       1.0  0.75830  0.33570  0.37260  1.0000 0.1275890245
C   C1        1.0  0.25880  0.52990  0.80570  1.0000 -0.1297223578
C   C2        1.0  0.24120  0.47010  0.30570  1.0000 -0.1297223578
C   C3        1.0  0.75880  0.97010  0.19430  1.0000 -0.1297223578
C   C4        1.0  0.74120  0.02990  0.69430  1.0000 -0.1297223578
C   C5        1.0  0.24230  0.47350  0.67240  1.0000 -0.0407971471
C   C6        1.0  0.25770  0.52650  0.17240  1.0000 -0.0407971471
C   C7        1.0  0.74230  0.02650  0.32760  1.0000 -0.0407971471
C   C8        1.0  0.75770  0.97350  0.82760  1.0000 -0.0407971471
C   C9        1.0  0.14850  0.53840  0.77350  1.0000 0.1813631094
C   C10       1.0  0.35150  0.46160  0.27350  1.0000 0.1813631094
C   C11       1.0  0.64850  0.96160  0.22650  1.0000 0.1813631094
C   C12       1.0  0.85150  0.03840  0.72650  1.0000 0.1813631094
C   C13       1.0  0.37080  0.49730  0.77160  1.0000 -0.1093991847
C   C14       1.0  0.12920  0.50270  0.27160  1.0000 -0.1093991847
C   C15       1.0  0.87080  0.00270  0.22840  1.0000 -0.1093991847
C   C16       1.0  0.62920  0.99730  0.72840  1.0000 -0.1093991847
C   C17       1.0  0.13790  0.50820  0.70900  1.0000 -0.2178633549
C   C18       1.0  0.36210  0.49180  0.20900  1.0000 -0.2178633549
C   C19       1.0  0.63790  0.99180  0.29100  1.0000 -0.2178633549
C   C20       1.0  0.86210  0.00820  0.79100  1.0000 -0.2178633549
C   C21       1.0  0.36560  0.46850  0.70460  1.0000 -0.1297223578
C   C22       1.0  0.13440  0.53150  0.20460  1.0000 -0.1297223578
C   C23       1.0  0.86560  0.03150  0.29540  1.0000 -0.1297223578
C   C24       1.0  0.63440  0.96850  0.79540  1.0000 -0.1297223578
C   C25       1.0  0.27830  0.55860  0.87790  1.0000 0.5969136654
C   C26       1.0  0.22170  0.44140  0.37790  1.0000 0.5969136654
C   C27       1.0  0.77830  0.94140  0.12210  1.0000 0.5969136654
C   C28       1.0  0.72170  0.05860  0.62210  1.0000 0.5969136654
C   C29       1.0  0.35300  0.82850  0.01350  1.0000 0.5710467099
C   C30       1.0  0.14700  0.17150  0.51350  1.0000 0.5710467099
C   C31       1.0  0.85300  0.67150  0.98650  1.0000 0.5710467099
C   C32       1.0  0.64700  0.32850  0.48650  1.0000 0.5710467099
C   C33       1.0  0.22990  0.89340  0.03140  1.0000 0.0889456048
C   C34       1.0  0.27010  0.10660  0.53140  1.0000 0.0889456048
C   C35       1.0  0.72990  0.60660  0.96860  1.0000 0.0889456048
C   C36       1.0  0.77010  0.39340  0.46860  1.0000 0.0889456048
C   C37       1.0  0.23250  0.44390  0.60250  1.0000 0.5853109657
C   C38       1.0  0.26750  0.55610  0.10250  1.0000 0.5853109657
C   C39       1.0  0.73250  0.05610  0.39750  1.0000 0.5853109657
C   C40       1.0  0.76750  0.94390  0.89750  1.0000 0.5853109657
C   C41       1.0  0.22400  0.90680  0.10680  1.0000 -0.4697941915
C   C42       1.0  0.27600  0.09320  0.60680  1.0000 -0.4697941915
C   C43       1.0  0.72400  0.59320  0.89320  1.0000 -0.4697941915
C   C44       1.0  0.77600  0.40680  0.39320  1.0000 -0.4697941915
N   N1        1.0  0.03200  0.57550  0.80220  1.0000 -0.5110571513
N   N2        1.0  0.46800  0.42450  0.30220  1.0000 -0.5110571513
N   N3        1.0  0.53200  0.92450  0.19780  1.0000 -0.5153631867
N   N4        1.0  0.96800  0.07550  0.69780  1.0000 -0.5110571513
O   O1        1.0  0.17960  0.59800  0.90680  1.0000 -0.5406866373
O   O2        1.0  0.32040  0.40200  0.40680  1.0000 -0.5406866373
O   O3        1.0  0.67960  0.90200  0.09320  1.0000 -0.5406866373
O   O4        1.0  0.82040  0.09800  0.59320  1.0000 -0.5406866373
O   O5        1.0  0.38480  0.54300  0.90360  1.0000 -0.5463912786
O   O6        1.0  0.11520  0.45700  0.40360  1.0000 -0.5463912786
O   O7        1.0  0.88480  0.95700  0.09640  1.0000 -0.5463912786
O   O8        1.0  0.61520  0.04300  0.59640  1.0000 -0.5463912786
O   O9        1.0  0.12200  0.45470  0.57650  1.0000 -0.5825041086
O   O10       1.0  0.37800  0.54530  0.07650  1.0000 -0.5825041086
O   O11       1.0  0.62200  0.04530  0.42350  1.0000 -0.5825041086
O   O12       1.0  0.87800  0.95470  0.92350  1.0000 -0.5825041086
O   O13       1.0  0.33250  0.41250  0.57300  1.0000 -0.5320478977
O   O14       1.0  0.16750  0.58750  0.07300  1.0000 -0.5320478977
O   O15       1.0  0.83250  0.08750  0.42700  1.0000 -0.5320478977
O   O16       1.0  0.66750  0.91250  0.92700  1.0000 -0.5320478977
O   O17       1.0  0.11920  0.83800  0.00780  1.0000 -0.6237461866
O   O18       1.0  0.38080  0.16200  0.50780  1.0000 -0.6264276207
O   O19       1.0  0.61920  0.66200  0.99220  1.0000 -0.6264276207
O   O20       1.0  0.88080  0.33800  0.49220  1.0000 -0.6237461866
O   O21       1.0  0.33960  0.73160  0.99120  1.0000 -0.5581924469
O   O22       1.0  0.16040  0.26840  0.49120  1.0000 -0.5581924469
O   O23       1.0  0.83960  0.76840  0.00880  1.0000 -0.5581924469
O   O24       1.0  0.66040  0.23160  0.50880  1.0000 -0.5581924469
O   O25       1.0  0.45870  0.87530  0.02460  1.0000 -0.5110571513
O   O26       1.0  0.04130  0.12470  0.52460  1.0000 -0.5110571513
O   O27       1.0  0.95870  0.62470  0.97540  1.0000 -0.5110571513
O   O28       1.0  0.54130  0.37530  0.47540  1.0000 -0.5110571513
