# DDEC6 charges by PACMAN v1.1 (https://github.com/mtap-research/PACMAN-charge/)
data_2014[Gd][nan]3[ASR]2
_chemical_formula_sum              "Gd4 H28 C56 O24"
_cell_length_a       6.4399
_cell_length_b       17.023
_cell_length_c       23.833
_cell_angle_alpha    90
_cell_angle_beta     90.792
_cell_angle_gamma    90

_symmetry_space_group_name_H-M    "P 1"
_symmetry_Int_Tables_number       1

loop_
  _symmetry_equiv_pos_as_xyz
  'x, y, z'

loop_
  _atom_site_type_symbol
  _atom_site_label
  _atom_site_symmetry_multiplicity
  _atom_site_fract_x
  _atom_site_fract_y
  _atom_site_fract_z
  _atom_site_occupancy
  _atom_site_charge
Gd  Gd1       1.0  0.73703  0.93688  0.97784  1.0000 2.0462289752
Gd  Gd2       1.0  0.26297  0.43688  0.52216  1.0000 2.0462289752
Gd  Gd3       1.0  0.26297  0.06312  0.02216  1.0000 2.0462289752
Gd  Gd4       1.0  0.73703  0.56312  0.47784  1.0000 2.0462289752
H   H1        1.0  0.38770  0.21210  0.18330  1.0000 0.1314335653
H   H2        1.0  0.61230  0.71210  0.31670  1.0000 0.1314335653
H   H3        1.0  0.61230  0.78790  0.81670  1.0000 0.1314335653
H   H4        1.0  0.38770  0.28790  0.68330  1.0000 0.1314335653
H   H5        1.0  0.97800  0.16930  0.22800  1.0000 0.1199130877
H   H6        1.0  0.02200  0.66930  0.27200  1.0000 0.1199130877
H   H7        1.0  0.02200  0.83070  0.77200  1.0000 0.1199130877
H   H8        1.0  0.97800  0.33070  0.72800  1.0000 0.1199130877
H   H9        1.0  0.01550  0.09210  0.15150  1.0000 0.1199130877
H   H10       1.0  0.98450  0.59210  0.34850  1.0000 0.1199130877
H   H11       1.0  0.98450  0.90790  0.84850  1.0000 0.1199130877
H   H12       1.0  0.01550  0.40790  0.65150  1.0000 0.1199130877
H   H13       1.0  0.93340  0.29700  0.26580  1.0000 0.1314335653
H   H14       1.0  0.06660  0.79700  0.23420  1.0000 0.1314335653
H   H15       1.0  0.06660  0.70300  0.73420  1.0000 0.1314335653
H   H16       1.0  0.93340  0.20300  0.76580  1.0000 0.1314335653
H   H17       1.0  0.30060  0.30270  0.35490  1.0000 0.1199130877
H   H18       1.0  0.69940  0.80270  0.14510  1.0000 0.1199130877
H   H19       1.0  0.69940  0.69730  0.64510  1.0000 0.1199130877
H   H20       1.0  0.30060  0.19730  0.85490  1.0000 0.1199130877
H   H21       1.0  0.35180  0.21870  0.27900  1.0000 0.1128551571
H   H22       1.0  0.64820  0.71870  0.22100  1.0000 0.1128551571
H   H23       1.0  0.64820  0.78130  0.72100  1.0000 0.1128551571
H   H24       1.0  0.35180  0.28130  0.77900  1.0000 0.1128551571
H   H25       1.0  0.90700  0.42500  0.36880  1.0000 0.3525169642
H   H26       1.0  0.09300  0.92500  0.13120  1.0000 0.3525169642
H   H27       1.0  0.09300  0.57500  0.63120  1.0000 0.3525169642
H   H28       1.0  0.90700  0.07500  0.86880  1.0000 0.3525169642
C   C1        1.0  0.76710  0.06120  0.06770  1.0000 0.6484005304
C   C2        1.0  0.23290  0.56120  0.43230  1.0000 0.6484005304
C   C3        1.0  0.23290  0.93880  0.93230  1.0000 0.6484005304
C   C4        1.0  0.76710  0.43880  0.56770  1.0000 0.6484005304
C   C5        1.0  0.72950  0.10750  0.11670  1.0000 -0.2044630346
C   C6        1.0  0.27050  0.60750  0.38330  1.0000 -0.2053389249
C   C7        1.0  0.27050  0.89250  0.88330  1.0000 -0.2044630346
C   C8        1.0  0.72950  0.39250  0.61670  1.0000 -0.2044630346
C   C9        1.0  0.53390  0.14570  0.12630  1.0000 0.3901025953
C   C10       1.0  0.46610  0.64570  0.37370  1.0000 0.3901025953
C   C11       1.0  0.46610  0.85430  0.87370  1.0000 0.3901025953
C   C12       1.0  0.53390  0.35430  0.62630  1.0000 0.3901025953
C   C13       1.0  0.51560  0.18940  0.17550  1.0000 -0.2673094271
C   C14       1.0  0.48440  0.68940  0.32450  1.0000 -0.2673094271
C   C15       1.0  0.48440  0.81060  0.82450  1.0000 -0.2673094271
C   C16       1.0  0.51560  0.31060  0.67550  1.0000 -0.2673094271
C   C17       1.0  0.67720  0.20090  0.21340  1.0000 0.1128551571
C   C18       1.0  0.32280  0.70090  0.28660  1.0000 0.1128551571
C   C19       1.0  0.32280  0.79910  0.78660  1.0000 0.1128551571
C   C20       1.0  0.67720  0.29910  0.71340  1.0000 0.1128551571
C   C21       1.0  0.86710  0.16300  0.20300  1.0000 -0.1896796187
C   C22       1.0  0.13290  0.66300  0.29700  1.0000 -0.1896796187
C   C23       1.0  0.13290  0.83700  0.79700  1.0000 -0.1896796187
C   C24       1.0  0.86710  0.33700  0.70300  1.0000 -0.1896796187
C   C25       1.0  0.88960  0.11760  0.15690  1.0000 -0.0717011241
C   C26       1.0  0.11040  0.61760  0.34310  1.0000 -0.0717011241
C   C27       1.0  0.11040  0.88240  0.84310  1.0000 -0.0717011241
C   C28       1.0  0.88960  0.38240  0.65690  1.0000 -0.0717011241
C   C29       1.0  0.64430  0.25150  0.26370  1.0000 0.0858100878
C   C30       1.0  0.35570  0.75150  0.23630  1.0000 0.0858100878
C   C31       1.0  0.35570  0.74850  0.73630  1.0000 0.0858100878
C   C32       1.0  0.64430  0.24850  0.76370  1.0000 0.0858100878
C   C33       1.0  0.80520  0.29830  0.28330  1.0000 -0.2512165679
C   C34       1.0  0.19480  0.79830  0.21670  1.0000 -0.2512165679
C   C35       1.0  0.19480  0.70170  0.71670  1.0000 -0.2512165679
C   C36       1.0  0.80520  0.20170  0.78330  1.0000 -0.2512165679
C   C37       1.0  0.77520  0.34750  0.32910  1.0000 0.2772428693
C   C38       1.0  0.22480  0.84750  0.17090  1.0000 0.2772428693
C   C39       1.0  0.22480  0.65250  0.67090  1.0000 0.2772428693
C   C40       1.0  0.77520  0.15250  0.82910  1.0000 0.2772428693
C   C41       1.0  0.58890  0.34950  0.35680  1.0000 -0.1746300904
C   C42       1.0  0.41110  0.84950  0.14320  1.0000 -0.1746300904
C   C43       1.0  0.41110  0.65050  0.64320  1.0000 -0.1746300904
C   C44       1.0  0.58890  0.15050  0.85680  1.0000 -0.1755115537
C   C45       1.0  0.42850  0.30170  0.33720  1.0000 -0.0622740554
C   C46       1.0  0.57150  0.80170  0.16280  1.0000 -0.0622740554
C   C47       1.0  0.57150  0.69830  0.66280  1.0000 -0.0622740554
C   C48       1.0  0.42850  0.19830  0.83720  1.0000 -0.0622740554
C   C49       1.0  0.45850  0.25170  0.29110  1.0000 -0.1755115537
C   C50       1.0  0.54150  0.75170  0.20890  1.0000 -0.1746300904
C   C51       1.0  0.54150  0.74830  0.70890  1.0000 -0.1755115537
C   C52       1.0  0.45850  0.24830  0.79110  1.0000 -0.1755115537
C   C53       1.0  0.55320  0.40040  0.40670  1.0000 0.6691876354
C   C54       1.0  0.44680  0.90040  0.09330  1.0000 0.6691876354
C   C55       1.0  0.44680  0.59960  0.59330  1.0000 0.6691876354
C   C56       1.0  0.55320  0.09960  0.90670  1.0000 0.6691876354
O   O1        1.0  0.93910  0.02510  0.05970  1.0000 -0.7284009827
O   O2        1.0  0.06090  0.52510  0.44030  1.0000 -0.7284009827
O   O3        1.0  0.06090  0.97490  0.94030  1.0000 -0.7284009827
O   O4        1.0  0.93910  0.47490  0.55970  1.0000 -0.7284009827
O   O5        1.0  0.62450  0.05090  0.03030  1.0000 -0.7284009827
O   O6        1.0  0.37550  0.55090  0.46970  1.0000 -0.7284009827
O   O7        1.0  0.37550  0.94910  0.96970  1.0000 -0.7284009827
O   O8        1.0  0.62450  0.44910  0.53030  1.0000 -0.7284009827
O   O9        1.0  0.39710  0.38780  0.43730  1.0000 -0.647390574
O   O10       1.0  0.60290  0.88780  0.06270  1.0000 -0.647390574
O   O11       1.0  0.60290  0.61220  0.56270  1.0000 -0.647390574
O   O12       1.0  0.39710  0.11220  0.93730  1.0000 -0.647390574
O   O13       1.0  0.68070  0.45760  0.41360  1.0000 -0.65774478
O   O14       1.0  0.31930  0.95760  0.08640  1.0000 -0.65774478
O   O15       1.0  0.31930  0.54240  0.58640  1.0000 -0.65774478
O   O16       1.0  0.68070  0.04240  0.91360  1.0000 -0.65774478
O   O17       1.0  0.37130  0.13890  0.09230  1.0000 -0.6988828031
O   O18       1.0  0.62870  0.63890  0.40770  1.0000 -0.6988828031
O   O19       1.0  0.62870  0.86110  0.90770  1.0000 -0.6988828031
O   O20       1.0  0.37130  0.36110  0.59230  1.0000 -0.6988828031
O   O21       1.0  0.94230  0.39420  0.34430  1.0000 -0.4599817989
O   O22       1.0  0.05770  0.89420  0.15570  1.0000 -0.4599817989
O   O23       1.0  0.05770  0.60580  0.65570  1.0000 -0.4599817989
O   O24       1.0  0.94230  0.10580  0.84430  1.0000 -0.4599817989
