# DDEC6 charges by PACMAN v1.1 (https://github.com/mtap-research/PACMAN-charge/)
data_2014[Er][vmd]3[ASR]1
_chemical_formula_sum              "Er8 H32 C32 O64"
_cell_length_a       14.7243
_cell_length_b       12.9861
_cell_length_c       12.7671
_cell_angle_alpha    90
_cell_angle_beta     105.008
_cell_angle_gamma    90

_symmetry_space_group_name_H-M    "P 1"
_symmetry_Int_Tables_number       1

loop_
  _symmetry_equiv_pos_as_xyz
  'x, y, z'

loop_
  _atom_site_type_symbol
  _atom_site_label
  _atom_site_symmetry_multiplicity
  _atom_site_fract_x
  _atom_site_fract_y
  _atom_site_fract_z
  _atom_site_occupancy
  _atom_site_charge
Er  Er1       1.0  0.23835  0.06496  0.30994  1.0000 2.0652552157
Er  Er2       1.0  0.73835  0.56496  0.30993  1.0000 2.0652552157
Er  Er3       1.0  0.77017  0.06610  0.19188  1.0000 2.0439984112
Er  Er4       1.0  0.27016  0.56610  0.19188  1.0000 2.0439984112
Er  Er5       1.0  0.77017  0.93390  0.69188  1.0000 2.0439984112
Er  Er6       1.0  0.27016  0.43390  0.69188  1.0000 2.0439984112
Er  Er7       1.0  0.23835  0.93504  0.80993  1.0000 2.0652552157
Er  Er8       1.0  0.73835  0.43504  0.80994  1.0000 2.0652552157
H   H1        1.0  0.29125  0.98464  0.08078  1.0000 0.0471548844
H   H2        1.0  0.34114  0.82793  0.24861  1.0000 0.0396237972
H   H3        1.0  0.50730  0.00598  0.37859  1.0000 0.0725586548
H   H4        1.0  0.16603  0.26402  0.47689  1.0000 0.0471548844
H   H5        1.0  0.79125  0.48464  0.08078  1.0000 0.0471548844
H   H6        1.0  0.84114  0.32793  0.24861  1.0000 0.0396237972
H   H7        1.0  0.00730  0.50597  0.37860  1.0000 0.0725586548
H   H8        1.0  0.66603  0.76402  0.47689  1.0000 0.0471548844
H   H9        1.0  0.70938  0.98539  0.41756  1.0000 0.0471548844
H   H10       1.0  0.65691  0.83289  0.25135  1.0000 0.0343983181
H   H11       1.0  0.49916  0.00610  0.11474  1.0000 0.0725586548
H   H12       1.0  0.20938  0.48539  0.41756  1.0000 0.0471548844
H   H13       1.0  0.15690  0.33289  0.25135  1.0000 0.0343983181
H   H14       1.0  0.99915  0.50610  0.11473  1.0000 0.0725586548
H   H15       1.0  0.70938  0.01461  0.91757  1.0000 0.0471548844
H   H16       1.0  0.65691  0.16711  0.75136  1.0000 0.0343983181
H   H17       1.0  0.49915  0.99390  0.61474  1.0000 0.0725586548
H   H18       1.0  0.20938  0.51461  0.91757  1.0000 0.0471548844
H   H19       1.0  0.15690  0.66711  0.75135  1.0000 0.0343983181
H   H20       1.0  0.99915  0.49390  0.61473  1.0000 0.0725586548
H   H21       1.0  0.29126  0.01537  0.58078  1.0000 0.0471548844
H   H22       1.0  0.34114  0.17208  0.74861  1.0000 0.0396237972
H   H23       1.0  0.50730  0.99402  0.87860  1.0000 0.0725586548
H   H24       1.0  0.16603  0.73598  0.97689  1.0000 0.0471548844
H   H25       1.0  0.79125  0.51535  0.58078  1.0000 0.0471548844
H   H26       1.0  0.84114  0.67207  0.74860  1.0000 0.0396237972
H   H27       1.0  0.00730  0.49403  0.87860  1.0000 0.0725586548
H   H28       1.0  0.66603  0.23598  0.97689  1.0000 0.0471548844
H   H29       1.0  0.99591  0.21761  0.24580  1.0000 0.0471548844
H   H30       1.0  0.49591  0.71761  0.24579  1.0000 0.0471548844
H   H31       1.0  0.99591  0.78239  0.74579  1.0000 0.0471548844
H   H32       1.0  0.49591  0.28239  0.74579  1.0000 0.0471548844
C   C1        1.0  0.21842  0.01940  0.04916  1.0000 0.5812281876
C   C2        1.0  0.26800  0.81489  0.25891  1.0000 0.6000128596
C   C3        1.0  0.43002  0.01853  0.36018  1.0000 0.4946422487
C   C4        1.0  0.71841  0.51940  0.04916  1.0000 0.5812281876
C   C5        1.0  0.76800  0.31490  0.25891  1.0000 0.6000128596
C   C6        1.0  0.93001  0.51853  0.36019  1.0000 0.4946422487
C   C7        1.0  0.78131  0.02151  0.45086  1.0000 0.5812281876
C   C8        1.0  0.72897  0.81677  0.23922  1.0000 0.6000128596
C   C9        1.0  0.57558  0.02615  0.13853  1.0000 0.4958093076
C   C10       1.0  0.28131  0.52151  0.45086  1.0000 0.5812281876
C   C11       1.0  0.22897  0.31678  0.23922  1.0000 0.6000128596
C   C12       1.0  0.07559  0.52615  0.13853  1.0000 0.4958093076
C   C13       1.0  0.78130  0.97849  0.95086  1.0000 0.5812281876
C   C14       1.0  0.72897  0.18322  0.73922  1.0000 0.6000128596
C   C15       1.0  0.57558  0.97385  0.63854  1.0000 0.4958093076
C   C16       1.0  0.28130  0.47850  0.95086  1.0000 0.5812281876
C   C17       1.0  0.22897  0.68322  0.73922  1.0000 0.6000128596
C   C18       1.0  0.07559  0.47385  0.63854  1.0000 0.4958093076
C   C19       1.0  0.21840  0.98060  0.54915  1.0000 0.5812281876
C   C20       1.0  0.26800  0.18511  0.75892  1.0000 0.6000128596
C   C21       1.0  0.43002  0.98147  0.86020  1.0000 0.4946422487
C   C22       1.0  0.71841  0.48060  0.54916  1.0000 0.5812281876
C   C23       1.0  0.76800  0.68511  0.75892  1.0000 0.6000128596
C   C24       1.0  0.93001  0.48146  0.86019  1.0000 0.4946422487
C   C25       1.0  0.00258  0.13149  0.25334  1.0000 0.631900972
C   C26       1.0  0.50258  0.63148  0.25335  1.0000 0.631900972
C   C27       1.0  0.00258  0.86852  0.75335  1.0000 0.631900972
C   C28       1.0  0.50258  0.36852  0.75335  1.0000 0.631900972
C   C29       1.0  0.24428  0.25067  0.49950  1.0000 0.5812281876
C   C30       1.0  0.74428  0.24934  0.99950  1.0000 0.5812281876
C   C31       1.0  0.74429  0.75067  0.49950  1.0000 0.5812281876
C   C32       1.0  0.24428  0.74934  0.99950  1.0000 0.5812281876
O   O1        1.0  0.18577  0.01432  0.94781  1.0000 -0.530116351
O   O2        1.0  0.18334  0.05636  0.12098  1.0000 -0.5411164851
O   O3        1.0  0.08502  0.09616  0.27513  1.0000 -0.5908337363
O   O4        1.0  0.38290  0.03968  0.26290  1.0000 -0.5908337363
O   O5        1.0  0.22409  0.89430  0.27422  1.0000 -0.5785577313
O   O6        1.0  0.23907  0.72315  0.25290  1.0000 -0.5785577313
O   O7        1.0  0.38786  0.01318  0.43593  1.0000 -0.559368232
O   O8        1.0  0.27358  0.17743  0.45173  1.0000 -0.5908337363
O   O9        1.0  0.68577  0.51431  0.94781  1.0000 -0.530116351
O   O10       1.0  0.68335  0.55636  0.12098  1.0000 -0.5411164851
O   O11       1.0  0.58502  0.59617  0.27514  1.0000 -0.5908337363
O   O12       1.0  0.88290  0.53968  0.26291  1.0000 -0.5908337363
O   O13       1.0  0.72409  0.39429  0.27422  1.0000 -0.5785577313
O   O14       1.0  0.73907  0.22314  0.25290  1.0000 -0.5785577313
O   O15       1.0  0.88786  0.51318  0.43593  1.0000 -0.559368232
O   O16       1.0  0.77358  0.67742  0.45173  1.0000 -0.5908337363
O   O17       1.0  0.81214  0.01894  0.55230  1.0000 -0.530116351
O   O18       1.0  0.81730  0.05888  0.37992  1.0000 -0.5411164851
O   O19       1.0  0.92716  0.08152  0.24031  1.0000 -0.559368232
O   O20       1.0  0.61944  0.03471  0.23855  1.0000 -0.5721536965
O   O21       1.0  0.77509  0.89497  0.22465  1.0000 -0.5785577313
O   O22       1.0  0.75390  0.72412  0.24191  1.0000 -0.5721536965
O   O23       1.0  0.61969  0.03995  0.06487  1.0000 -0.5908337363
O   O24       1.0  0.79351  0.19053  0.07049  1.0000 -0.5785577313
O   O25       1.0  0.31214  0.51894  0.55230  1.0000 -0.530116351
O   O26       1.0  0.31730  0.55888  0.37992  1.0000 -0.5411164851
O   O27       1.0  0.42716  0.58152  0.24032  1.0000 -0.559368232
O   O28       1.0  0.11943  0.53471  0.23854  1.0000 -0.5721536965
O   O29       1.0  0.27509  0.39497  0.22465  1.0000 -0.5785577313
O   O30       1.0  0.25390  0.22412  0.24191  1.0000 -0.5721536965
O   O31       1.0  0.11968  0.53994  0.06487  1.0000 -0.5908337363
O   O32       1.0  0.29351  0.69052  0.07049  1.0000 -0.5785577313
O   O33       1.0  0.81214  0.98106  0.05232  1.0000 -0.530116351
O   O34       1.0  0.81730  0.94112  0.87992  1.0000 -0.5411164851
O   O35       1.0  0.92716  0.91848  0.74032  1.0000 -0.559368232
O   O36       1.0  0.61944  0.96529  0.73855  1.0000 -0.5721536965
O   O37       1.0  0.77509  0.10503  0.72467  1.0000 -0.5785577313
O   O38       1.0  0.75390  0.27588  0.74190  1.0000 -0.5721536965
O   O39       1.0  0.61969  0.96005  0.56487  1.0000 -0.5908337363
O   O40       1.0  0.79351  0.80948  0.57049  1.0000 -0.5785577313
O   O41       1.0  0.31214  0.48106  0.05232  1.0000 -0.530116351
O   O42       1.0  0.31730  0.44111  0.87992  1.0000 -0.5411164851
O   O43       1.0  0.42716  0.41848  0.74032  1.0000 -0.559368232
O   O44       1.0  0.11943  0.46529  0.73854  1.0000 -0.5721536965
O   O45       1.0  0.27509  0.60503  0.72467  1.0000 -0.5785577313
O   O46       1.0  0.25390  0.77588  0.74191  1.0000 -0.5721536965
O   O47       1.0  0.11968  0.46005  0.56487  1.0000 -0.5908337363
O   O48       1.0  0.29351  0.30948  0.57049  1.0000 -0.5785577313
O   O49       1.0  0.18578  0.98569  0.44784  1.0000 -0.530116351
O   O50       1.0  0.18335  0.94365  0.62097  1.0000 -0.5411164851
O   O51       1.0  0.08502  0.90384  0.77515  1.0000 -0.5908337363
O   O52       1.0  0.38290  0.96032  0.76291  1.0000 -0.5908337363
O   O53       1.0  0.22409  0.10571  0.77423  1.0000 -0.5785577313
O   O54       1.0  0.23907  0.27686  0.75290  1.0000 -0.5785577313
O   O55       1.0  0.38786  0.98682  0.93593  1.0000 -0.559368232
O   O56       1.0  0.27358  0.82257  0.95172  1.0000 -0.5908337363
O   O57       1.0  0.68577  0.48568  0.44781  1.0000 -0.530116351
O   O58       1.0  0.68334  0.44365  0.62098  1.0000 -0.5411164851
O   O59       1.0  0.58503  0.40383  0.77514  1.0000 -0.5908337363
O   O60       1.0  0.88290  0.46032  0.76291  1.0000 -0.5908337363
O   O61       1.0  0.72409  0.60570  0.77423  1.0000 -0.5785577313
O   O62       1.0  0.73907  0.77686  0.75290  1.0000 -0.5785577313
O   O63       1.0  0.88786  0.48681  0.93594  1.0000 -0.559368232
O   O64       1.0  0.77358  0.32257  0.95172  1.0000 -0.5908337363
