# DDEC6 charges by PACMAN v1.1 (https://github.com/mtap-research/PACMAN-charge/)
data_2014[Cd][dmp]3[ASR]1
_chemical_formula_sum              "Cd4 H32 C48 N8 O16"
_cell_length_a       6.0392
_cell_length_b       12.3195
_cell_length_c       25.366
_cell_angle_alpha    90
_cell_angle_beta     90
_cell_angle_gamma    90

_symmetry_space_group_name_H-M    "P 1"
_symmetry_Int_Tables_number       1

loop_
  _symmetry_equiv_pos_as_xyz
  'x, y, z'

loop_
  _atom_site_type_symbol
  _atom_site_label
  _atom_site_symmetry_multiplicity
  _atom_site_fract_x
  _atom_site_fract_y
  _atom_site_fract_z
  _atom_site_occupancy
  _atom_site_charge
Cd  Cd1       1.0  0.69971  0.86492  0.37137  1.0000 0.8126212846
Cd  Cd2       1.0  0.30029  0.36492  0.62863  1.0000 0.8126212846
Cd  Cd3       1.0  0.80029  0.86492  0.87137  1.0000 0.8126212846
Cd  Cd4       1.0  0.19971  0.36492  0.12863  1.0000 0.8126212846
H   H1        1.0  0.91700  0.01820  0.46040  1.0000 0.1074342023
H   H2        1.0  0.08300  0.51820  0.53960  1.0000 0.1074342023
H   H3        1.0  0.58300  0.01820  0.96040  1.0000 0.1074342023
H   H4        1.0  0.41700  0.51820  0.03960  1.0000 0.1074342023
H   H5        1.0  0.83040  0.13710  0.52590  1.0000 0.1407511013
H   H6        1.0  0.16960  0.63710  0.47410  1.0000 0.1407511013
H   H7        1.0  0.66960  0.13710  0.02590  1.0000 0.1407511013
H   H8        1.0  0.33040  0.63710  0.97410  1.0000 0.1407511013
H   H9        1.0  0.24750  0.18560  0.45680  1.0000 0.1348607729
H   H10       1.0  0.75250  0.68560  0.54320  1.0000 0.1348607729
H   H11       1.0  0.25250  0.18560  0.95680  1.0000 0.1348607729
H   H12       1.0  0.74750  0.68560  0.04320  1.0000 0.1348607729
H   H13       1.0  0.35390  0.06560  0.39200  1.0000 0.1074342023
H   H14       1.0  0.64610  0.56560  0.60800  1.0000 0.1074342023
H   H15       1.0  0.14610  0.06560  0.89200  1.0000 0.1074342023
H   H16       1.0  0.85390  0.56560  0.10800  1.0000 0.1074342023
H   H17       1.0  0.06780  0.67630  0.36210  1.0000 0.1157809834
H   H18       1.0  0.93220  0.17630  0.63790  1.0000 0.1157809834
H   H19       1.0  0.43220  0.67630  0.86210  1.0000 0.1157809834
H   H20       1.0  0.56780  0.17630  0.13790  1.0000 0.1157809834
H   H21       1.0  0.19920  0.54430  0.30770  1.0000 0.1407511013
H   H22       1.0  0.80080  0.04430  0.69230  1.0000 0.1407511013
H   H23       1.0  0.30080  0.54430  0.80770  1.0000 0.1407511013
H   H24       1.0  0.69920  0.04430  0.19230  1.0000 0.1407511013
H   H25       1.0  0.65160  0.57480  0.22180  1.0000 0.1407511013
H   H26       1.0  0.34840  0.07480  0.77820  1.0000 0.1407511013
H   H27       1.0  0.84840  0.57480  0.72180  1.0000 0.1407511013
H   H28       1.0  0.15160  0.07480  0.27820  1.0000 0.1407511013
H   H29       1.0  0.53560  0.70540  0.28000  1.0000 0.1074342023
H   H30       1.0  0.46440  0.20540  0.72000  1.0000 0.1074342023
H   H31       1.0  0.96440  0.70540  0.78000  1.0000 0.1074342023
H   H32       1.0  0.03560  0.20540  0.22000  1.0000 0.1074342023
C   C1        1.0  0.77750  0.05020  0.46030  1.0000 0.0436157922
C   C2        1.0  0.22250  0.55020  0.53970  1.0000 0.0436157922
C   C3        1.0  0.72250  0.05020  0.96030  1.0000 0.0436157922
C   C4        1.0  0.27750  0.55020  0.03970  1.0000 0.0436157922
C   C5        1.0  0.72710  0.12210  0.49970  1.0000 -0.1487888654
C   C6        1.0  0.27290  0.62210  0.50030  1.0000 -0.1487888654
C   C7        1.0  0.77290  0.12210  0.99970  1.0000 -0.1487888654
C   C8        1.0  0.22710  0.62210  0.00030  1.0000 -0.1487888654
C   C9        1.0  0.52380  0.17220  0.50060  1.0000 0.0306054636
C   C10       1.0  0.47620  0.67220  0.49940  1.0000 0.0306054636
C   C11       1.0  0.97620  0.17220  0.00060  1.0000 0.0306054636
C   C12       1.0  0.02380  0.67220  0.99940  1.0000 0.0306054636
C   C13       1.0  0.38400  0.15100  0.45900  1.0000 -0.1584263646
C   C14       1.0  0.61600  0.65100  0.54100  1.0000 -0.1584263646
C   C15       1.0  0.11600  0.15100  0.95900  1.0000 -0.1584263646
C   C16       1.0  0.88400  0.65100  0.04100  1.0000 -0.1584263646
C   C17       1.0  0.44890  0.07730  0.42030  1.0000 0.0866225178
C   C18       1.0  0.55110  0.57730  0.57970  1.0000 0.0866225178
C   C19       1.0  0.05110  0.07730  0.92030  1.0000 0.0866225178
C   C20       1.0  0.94890  0.57730  0.07970  1.0000 0.0866225178
C   C21       1.0  0.45170  0.24420  0.54470  1.0000 0.5358723293
C   C22       1.0  0.54830  0.74420  0.45530  1.0000 0.5358723293
C   C23       1.0  0.04830  0.24420  0.04470  1.0000 0.5358723293
C   C24       1.0  0.95170  0.74420  0.95530  1.0000 0.5358723293
C   C25       1.0  0.98300  0.65620  0.33310  1.0000 0.0547645095
C   C26       1.0  0.01700  0.15620  0.66690  1.0000 0.0547645095
C   C27       1.0  0.51700  0.65620  0.83310  1.0000 0.0547645095
C   C28       1.0  0.48300  0.15620  0.16690  1.0000 0.0547645095
C   C29       1.0  0.06390  0.57710  0.30030  1.0000 -0.1487888654
C   C30       1.0  0.93610  0.07710  0.69970  1.0000 -0.1487888654
C   C31       1.0  0.43610  0.57710  0.80030  1.0000 -0.1487888654
C   C32       1.0  0.56390  0.07710  0.19970  1.0000 -0.1487888654
C   C33       1.0  0.94630  0.54660  0.25720  1.0000 0.0306054636
C   C34       1.0  0.05370  0.04660  0.74280  1.0000 0.0306054636
C   C35       1.0  0.55370  0.54660  0.75720  1.0000 0.0306054636
C   C36       1.0  0.44630  0.04660  0.24280  1.0000 0.0306054636
C   C37       1.0  0.74160  0.59480  0.24990  1.0000 -0.1584263646
C   C38       1.0  0.25840  0.09480  0.75010  1.0000 -0.1584263646
C   C39       1.0  0.75840  0.59480  0.74990  1.0000 -0.1584263646
C   C40       1.0  0.24160  0.09480  0.25010  1.0000 -0.1584263646
C   C41       1.0  0.67340  0.67350  0.28530  1.0000 0.0839509855
C   C42       1.0  0.32660  0.17350  0.71470  1.0000 0.0839509855
C   C43       1.0  0.82660  0.67350  0.78530  1.0000 0.0839509855
C   C44       1.0  0.17340  0.17350  0.21470  1.0000 0.0839509855
C   C45       1.0  0.04110  0.46910  0.21730  1.0000 0.5313138256
C   C46       1.0  0.95890  0.96910  0.78270  1.0000 0.5313138256
C   C47       1.0  0.45890  0.46910  0.71730  1.0000 0.5313138256
C   C48       1.0  0.54110  0.96910  0.28270  1.0000 0.5313138256
N   N1        1.0  0.63600  0.02340  0.42145  1.0000 -0.2219011762
N   N2        1.0  0.36400  0.52340  0.57855  1.0000 -0.2219011762
N   N3        1.0  0.86400  0.02340  0.92145  1.0000 -0.2219011762
N   N4        1.0  0.13600  0.52340  0.07855  1.0000 -0.2219011762
N   N5        1.0  0.78960  0.70570  0.32560  1.0000 -0.2219011762
N   N6        1.0  0.21040  0.20570  0.67440  1.0000 -0.2219011762
N   N7        1.0  0.71040  0.70570  0.82560  1.0000 -0.2219011762
N   N8        1.0  0.28960  0.20570  0.17440  1.0000 -0.2219011762
O   O1        1.0  0.25490  0.27070  0.54797  1.0000 -0.5284606328
O   O2        1.0  0.74510  0.77070  0.45203  1.0000 -0.5284606328
O   O3        1.0  0.24510  0.27070  0.04797  1.0000 -0.5284606328
O   O4        1.0  0.75490  0.77070  0.95203  1.0000 -0.5284606328
O   O5        1.0  0.59320  0.27130  0.57914  1.0000 -0.5394921312
O   O6        1.0  0.40680  0.77130  0.42086  1.0000 -0.5394921312
O   O7        1.0  0.90680  0.27130  0.07914  1.0000 -0.5394921312
O   O8        1.0  0.09320  0.77130  0.92086  1.0000 -0.5394921312
O   O9        1.0  0.91200  0.41870  0.18659  1.0000 -0.5394921312
O   O10       1.0  0.08800  0.91870  0.81341  1.0000 -0.5394921312
O   O11       1.0  0.58800  0.41870  0.68659  1.0000 -0.5394921312
O   O12       1.0  0.41200  0.91870  0.31341  1.0000 -0.5394921312
O   O13       1.0  0.24570  0.46380  0.21284  1.0000 -0.5394921312
O   O14       1.0  0.75430  0.96380  0.78716  1.0000 -0.5394921312
O   O15       1.0  0.25430  0.46380  0.71284  1.0000 -0.5394921312
O   O16       1.0  0.74570  0.96380  0.28716  1.0000 -0.5394921312
