# DDEC6 charges by PACMAN v1.1 (https://github.com/mtap-research/PACMAN-charge/)
data_2014[Fe][nan]3[ASR]9
_chemical_formula_sum              "Fe12 H352 C496 O68"
_cell_length_a       14.9208
_cell_length_b       38.398
_cell_length_c       41.28
_cell_angle_alpha    90
_cell_angle_beta     90
_cell_angle_gamma    90

_symmetry_space_group_name_H-M    "P 1"
_symmetry_Int_Tables_number       1

loop_
  _symmetry_equiv_pos_as_xyz
  'x, y, z'

loop_
  _atom_site_type_symbol
  _atom_site_label
  _atom_site_symmetry_multiplicity
  _atom_site_fract_x
  _atom_site_fract_y
  _atom_site_fract_z
  _atom_site_occupancy
  _atom_site_charge
Fe  Fe1       1.0  0.95996  0.25000  0.18737  1.0000 1.18334191
Fe  Fe2       1.0  0.04004  0.75000  0.81263  1.0000 1.18334191
Fe  Fe3       1.0  0.95996  0.75000  0.31263  1.0000 1.18334191
Fe  Fe4       1.0  0.04004  0.25000  0.68737  1.0000 1.18334191
Fe  Fe5       1.0  0.92780  0.25000  0.10808  1.0000 1.1421084599
Fe  Fe6       1.0  0.07220  0.75000  0.89192  1.0000 1.1421084599
Fe  Fe7       1.0  0.92780  0.75000  0.39192  1.0000 1.1421084599
Fe  Fe8       1.0  0.07220  0.25000  0.60808  1.0000 1.1421084599
Fe  Fe9       1.0  0.75273  0.25000  0.15692  1.0000 1.156888415
Fe  Fe10      1.0  0.24727  0.75000  0.84308  1.0000 1.156888415
Fe  Fe11      1.0  0.75273  0.75000  0.34308  1.0000 1.156888415
Fe  Fe12      1.0  0.24727  0.25000  0.65692  1.0000 1.156888415
H   H1        1.0  0.10300  0.16810  0.08840  1.0000 0.1303164832
H   H2        1.0  0.89700  0.66810  0.91160  1.0000 0.1303164832
H   H3        1.0  0.10300  0.83190  0.41160  1.0000 0.1303164832
H   H4        1.0  0.89700  0.33190  0.58840  1.0000 0.1303164832
H   H5        1.0  0.89700  0.83190  0.91160  1.0000 0.1303164832
H   H6        1.0  0.10300  0.33190  0.08840  1.0000 0.1303164832
H   H7        1.0  0.89700  0.16810  0.58840  1.0000 0.1303164832
H   H8        1.0  0.10300  0.66810  0.41160  1.0000 0.1303164832
H   H9        1.0  0.20650  0.12550  0.08000  1.0000 0.1303164832
H   H10       1.0  0.79350  0.62550  0.92000  1.0000 0.1303164832
H   H11       1.0  0.20650  0.87450  0.42000  1.0000 0.1303164832
H   H12       1.0  0.79350  0.37450  0.58000  1.0000 0.1303164832
H   H13       1.0  0.79350  0.87450  0.92000  1.0000 0.1303164832
H   H14       1.0  0.20650  0.37450  0.08000  1.0000 0.1303164832
H   H15       1.0  0.79350  0.12550  0.58000  1.0000 0.1303164832
H   H16       1.0  0.20650  0.62550  0.42000  1.0000 0.1303164832
H   H17       1.0  0.27370  0.12810  0.17300  1.0000 0.1197909292
H   H18       1.0  0.72630  0.62810  0.82700  1.0000 0.1197909292
H   H19       1.0  0.27370  0.87190  0.32700  1.0000 0.1197909292
H   H20       1.0  0.72630  0.37190  0.67300  1.0000 0.1197909292
H   H21       1.0  0.72630  0.87190  0.82700  1.0000 0.1197909292
H   H22       1.0  0.27370  0.37190  0.17300  1.0000 0.1197909292
H   H23       1.0  0.72630  0.12810  0.67300  1.0000 0.1197909292
H   H24       1.0  0.27370  0.62810  0.32700  1.0000 0.1197909292
H   H25       1.0  0.16850  0.16990  0.18200  1.0000 0.1371320268
H   H26       1.0  0.83150  0.66990  0.81800  1.0000 0.1303164832
H   H27       1.0  0.16850  0.83010  0.31800  1.0000 0.1303164832
H   H28       1.0  0.83150  0.33010  0.68200  1.0000 0.1371320268
H   H29       1.0  0.83150  0.83010  0.81800  1.0000 0.1303164832
H   H30       1.0  0.16850  0.33010  0.18200  1.0000 0.1371320268
H   H31       1.0  0.83150  0.16990  0.68200  1.0000 0.1371320268
H   H32       1.0  0.16850  0.66990  0.31800  1.0000 0.1303164832
H   H33       1.0  0.34450  0.10840  0.07230  1.0000 0.1197909292
H   H34       1.0  0.65550  0.60840  0.92770  1.0000 0.1197909292
H   H35       1.0  0.34450  0.89160  0.42770  1.0000 0.1197909292
H   H36       1.0  0.65550  0.39160  0.57230  1.0000 0.1197909292
H   H37       1.0  0.65550  0.89160  0.92770  1.0000 0.1197909292
H   H38       1.0  0.34450  0.39160  0.07230  1.0000 0.1197909292
H   H39       1.0  0.65550  0.10840  0.57230  1.0000 0.1197909292
H   H40       1.0  0.34450  0.60840  0.42770  1.0000 0.1197909292
H   H41       1.0  0.44560  0.06610  0.06020  1.0000 0.1197909292
H   H42       1.0  0.55440  0.56610  0.93980  1.0000 0.1197909292
H   H43       1.0  0.44560  0.93390  0.43980  1.0000 0.1197909292
H   H44       1.0  0.55440  0.43390  0.56020  1.0000 0.1197909292
H   H45       1.0  0.55440  0.93390  0.93980  1.0000 0.1197909292
H   H46       1.0  0.44560  0.43390  0.06020  1.0000 0.1197909292
H   H47       1.0  0.55440  0.06610  0.56020  1.0000 0.1197909292
H   H48       1.0  0.44560  0.56610  0.43980  1.0000 0.1197909292
H   H49       1.0  0.42960  0.03080  0.14850  1.0000 0.1197909292
H   H50       1.0  0.57040  0.53080  0.85150  1.0000 0.1197909292
H   H51       1.0  0.42960  0.96920  0.35150  1.0000 0.1197909292
H   H52       1.0  0.57040  0.46920  0.64850  1.0000 0.1197909292
H   H53       1.0  0.57040  0.96920  0.85150  1.0000 0.1197909292
H   H54       1.0  0.42960  0.46920  0.14850  1.0000 0.1197909292
H   H55       1.0  0.57040  0.03080  0.64850  1.0000 0.1197909292
H   H56       1.0  0.42960  0.53080  0.35150  1.0000 0.1197909292
H   H57       1.0  0.32410  0.07150  0.16050  1.0000 0.1197909292
H   H58       1.0  0.67590  0.57150  0.83950  1.0000 0.1197909292
H   H59       1.0  0.32410  0.92850  0.33950  1.0000 0.1197909292
H   H60       1.0  0.67590  0.42850  0.66050  1.0000 0.1197909292
H   H61       1.0  0.67590  0.92850  0.83950  1.0000 0.1197909292
H   H62       1.0  0.32410  0.42850  0.16050  1.0000 0.1197909292
H   H63       1.0  0.67590  0.07150  0.66050  1.0000 0.1197909292
H   H64       1.0  0.32410  0.57150  0.33950  1.0000 0.1197909292
H   H65       1.0  0.45340  0.00510  0.05080  1.0000 0.1100615166
H   H66       1.0  0.54660  0.50510  0.94920  1.0000 0.1100615166
H   H67       1.0  0.45340  0.99490  0.44920  1.0000 0.1100615166
H   H68       1.0  0.54660  0.49490  0.55080  1.0000 0.1100615166
H   H69       1.0  0.54660  0.99490  0.94920  1.0000 0.1100615166
H   H70       1.0  0.45340  0.49490  0.05080  1.0000 0.1100615166
H   H71       1.0  0.54660  0.00510  0.55080  1.0000 0.1100615166
H   H72       1.0  0.45340  0.50510  0.44920  1.0000 0.1100615166
H   H73       1.0  0.42010  0.98060  0.07870  1.0000 0.0998339686
H   H74       1.0  0.57990  0.48060  0.92130  1.0000 0.0998339686
H   H75       1.0  0.42010  0.01940  0.42130  1.0000 0.0998339686
H   H76       1.0  0.57990  0.51940  0.57870  1.0000 0.0998339686
H   H77       1.0  0.57990  0.01940  0.92130  1.0000 0.0998339686
H   H78       1.0  0.42010  0.51940  0.07870  1.0000 0.0998339686
H   H79       1.0  0.57990  0.98060  0.57870  1.0000 0.0998339686
H   H80       1.0  0.42010  0.48060  0.42130  1.0000 0.0998339686
H   H81       1.0  0.60410  0.92230  0.07990  1.0000 0.1197909292
H   H82       1.0  0.39590  0.42230  0.92010  1.0000 0.1197909292
H   H83       1.0  0.60410  0.07770  0.42010  1.0000 0.1197909292
H   H84       1.0  0.39590  0.57770  0.57990  1.0000 0.1197909292
H   H85       1.0  0.39590  0.07770  0.92010  1.0000 0.1197909292
H   H86       1.0  0.60410  0.57770  0.07990  1.0000 0.1197909292
H   H87       1.0  0.39590  0.92230  0.57990  1.0000 0.1197909292
H   H88       1.0  0.60410  0.42230  0.42010  1.0000 0.1197909292
H   H89       1.0  0.51190  0.93020  0.09660  1.0000 0.1100615166
H   H90       1.0  0.48810  0.43020  0.90340  1.0000 0.1100615166
H   H91       1.0  0.51190  0.06980  0.40340  1.0000 0.1100615166
H   H92       1.0  0.48810  0.56980  0.59660  1.0000 0.1100615166
H   H93       1.0  0.48810  0.06980  0.90340  1.0000 0.1100615166
H   H94       1.0  0.51190  0.56980  0.09660  1.0000 0.1100615166
H   H95       1.0  0.48810  0.93020  0.59660  1.0000 0.1100615166
H   H96       1.0  0.51190  0.43020  0.40340  1.0000 0.1100615166
H   H97       1.0  0.57550  0.00680  0.13930  1.0000 0.0998339686
H   H98       1.0  0.42450  0.50680  0.86070  1.0000 0.0998339686
H   H99       1.0  0.57550  0.99320  0.36070  1.0000 0.0998339686
H   H100      1.0  0.42450  0.49320  0.63930  1.0000 0.0998339686
H   H101      1.0  0.42450  0.99320  0.86070  1.0000 0.0998339686
H   H102      1.0  0.57550  0.49320  0.13930  1.0000 0.0998339686
H   H103      1.0  0.42450  0.00680  0.63930  1.0000 0.0998339686
H   H104      1.0  0.57550  0.50680  0.36070  1.0000 0.0998339686
H   H105      1.0  0.49400  0.98190  0.13300  1.0000 0.0998339686
H   H106      1.0  0.50600  0.48190  0.86700  1.0000 0.0998339686
H   H107      1.0  0.49400  0.01810  0.36700  1.0000 0.0998339686
H   H108      1.0  0.50600  0.51810  0.63300  1.0000 0.0998339686
H   H109      1.0  0.50600  0.01810  0.86700  1.0000 0.0998339686
H   H110      1.0  0.49400  0.51810  0.13300  1.0000 0.0998339686
H   H111      1.0  0.50600  0.98190  0.63300  1.0000 0.0998339686
H   H112      1.0  0.49400  0.48190  0.36700  1.0000 0.0998339686
H   H113      1.0  0.58490  0.04590  0.06100  1.0000 0.1100615166
H   H114      1.0  0.41510  0.54590  0.93900  1.0000 0.1100615166
H   H115      1.0  0.58490  0.95410  0.43900  1.0000 0.1100615166
H   H116      1.0  0.41510  0.45410  0.56100  1.0000 0.1100615166
H   H117      1.0  0.41510  0.95410  0.93900  1.0000 0.1100615166
H   H118      1.0  0.58490  0.45410  0.06100  1.0000 0.1100615166
H   H119      1.0  0.41510  0.04590  0.56100  1.0000 0.1100615166
H   H120      1.0  0.58490  0.54590  0.43900  1.0000 0.1100615166
H   H121      1.0  0.63180  0.04580  0.09500  1.0000 0.1100615166
H   H122      1.0  0.36820  0.54580  0.90500  1.0000 0.1100615166
H   H123      1.0  0.63180  0.95420  0.40500  1.0000 0.1100615166
H   H124      1.0  0.36820  0.45420  0.59500  1.0000 0.1100615166
H   H125      1.0  0.36820  0.95420  0.90500  1.0000 0.1100615166
H   H126      1.0  0.63180  0.45420  0.09500  1.0000 0.1100615166
H   H127      1.0  0.36820  0.04580  0.59500  1.0000 0.1100615166
H   H128      1.0  0.63180  0.54580  0.40500  1.0000 0.1100615166
H   H129      1.0  0.60210  0.99360  0.02390  1.0000 0.1100615166
H   H130      1.0  0.39790  0.49360  0.97610  1.0000 0.1100615166
H   H131      1.0  0.60210  0.00640  0.47610  1.0000 0.1100615166
H   H132      1.0  0.39790  0.50640  0.52390  1.0000 0.1100615166
H   H133      1.0  0.39790  0.00640  0.97610  1.0000 0.1100615166
H   H134      1.0  0.60210  0.50640  0.02390  1.0000 0.1100615166
H   H135      1.0  0.39790  0.99360  0.52390  1.0000 0.1100615166
H   H136      1.0  0.60210  0.49360  0.47610  1.0000 0.1100615166
H   H137      1.0  0.66000  0.96180  0.03520  1.0000 0.1100615166
H   H138      1.0  0.34000  0.46180  0.96480  1.0000 0.1100615166
H   H139      1.0  0.66000  0.03820  0.46480  1.0000 0.1100615166
H   H140      1.0  0.34000  0.53820  0.53520  1.0000 0.1100615166
H   H141      1.0  0.34000  0.03820  0.96480  1.0000 0.1100615166
H   H142      1.0  0.66000  0.53820  0.03520  1.0000 0.1100615166
H   H143      1.0  0.34000  0.96180  0.53520  1.0000 0.1100615166
H   H144      1.0  0.66000  0.46180  0.46480  1.0000 0.1100615166
H   H145      1.0  0.72500  0.99430  0.11260  1.0000 0.1100615166
H   H146      1.0  0.27500  0.49430  0.88740  1.0000 0.1100615166
H   H147      1.0  0.72500  0.00570  0.38740  1.0000 0.1100615166
H   H148      1.0  0.27500  0.50570  0.61260  1.0000 0.1100615166
H   H149      1.0  0.27500  0.00570  0.88740  1.0000 0.1100615166
H   H150      1.0  0.72500  0.50570  0.11260  1.0000 0.1100615166
H   H151      1.0  0.27500  0.99430  0.61260  1.0000 0.1100615166
H   H152      1.0  0.72500  0.49430  0.38740  1.0000 0.1100615166
H   H153      1.0  0.73540  0.96210  0.08950  1.0000 0.1197909292
H   H154      1.0  0.26460  0.46210  0.91050  1.0000 0.1197909292
H   H155      1.0  0.73540  0.03790  0.41050  1.0000 0.1197909292
H   H156      1.0  0.26460  0.53790  0.58950  1.0000 0.1197909292
H   H157      1.0  0.26460  0.03790  0.91050  1.0000 0.1197909292
H   H158      1.0  0.73540  0.53790  0.08950  1.0000 0.1197909292
H   H159      1.0  0.26460  0.96210  0.58950  1.0000 0.1197909292
H   H160      1.0  0.73540  0.46210  0.41050  1.0000 0.1197909292
H   H161      1.0  0.36450  0.95720  0.03580  1.0000 0.1197909292
H   H162      1.0  0.63550  0.45720  0.96420  1.0000 0.1197909292
H   H163      1.0  0.36450  0.04280  0.46420  1.0000 0.1197909292
H   H164      1.0  0.63550  0.54280  0.53580  1.0000 0.1197909292
H   H165      1.0  0.63550  0.04280  0.96420  1.0000 0.1197909292
H   H166      1.0  0.36450  0.54280  0.03580  1.0000 0.1197909292
H   H167      1.0  0.63550  0.95720  0.53580  1.0000 0.1197909292
H   H168      1.0  0.36450  0.45720  0.46420  1.0000 0.1197909292
H   H169      1.0  0.29900  0.92100  0.99930  1.0000 0.1100615166
H   H170      1.0  0.70100  0.42100  0.00070  1.0000 0.1100615166
H   H171      1.0  0.29900  0.07900  0.50070  1.0000 0.1100615166
H   H172      1.0  0.70100  0.57900  0.49930  1.0000 0.1100615166
H   H173      1.0  0.70100  0.07900  0.00070  1.0000 0.1100615166
H   H174      1.0  0.29900  0.57900  0.99930  1.0000 0.1100615166
H   H175      1.0  0.70100  0.92100  0.49930  1.0000 0.1100615166
H   H176      1.0  0.29900  0.42100  0.50070  1.0000 0.1100615166
H   H177      1.0  0.53010  0.87620  0.98230  1.0000 0.1303164832
H   H178      1.0  0.46990  0.37620  0.01770  1.0000 0.1303164832
H   H179      1.0  0.53010  0.12380  0.51770  1.0000 0.1303164832
H   H180      1.0  0.46990  0.62380  0.48230  1.0000 0.1303164832
H   H181      1.0  0.46990  0.12380  0.01770  1.0000 0.1303164832
H   H182      1.0  0.53010  0.62380  0.98230  1.0000 0.1303164832
H   H183      1.0  0.46990  0.87620  0.48230  1.0000 0.1303164832
H   H184      1.0  0.53010  0.37620  0.51770  1.0000 0.1303164832
H   H185      1.0  0.59900  0.91390  0.01800  1.0000 0.1303164832
H   H186      1.0  0.40100  0.41390  0.98200  1.0000 0.1303164832
H   H187      1.0  0.59900  0.08610  0.48200  1.0000 0.1303164832
H   H188      1.0  0.40100  0.58610  0.51800  1.0000 0.1303164832
H   H189      1.0  0.40100  0.08610  0.98200  1.0000 0.1303164832
H   H190      1.0  0.59900  0.58610  0.01800  1.0000 0.1303164832
H   H191      1.0  0.40100  0.91390  0.51800  1.0000 0.1303164832
H   H192      1.0  0.59900  0.41390  0.48200  1.0000 0.1303164832
H   H193      1.0  0.24110  0.86940  0.98550  1.0000 0.1197909292
H   H194      1.0  0.75890  0.36940  0.01450  1.0000 0.1197909292
H   H195      1.0  0.24110  0.13060  0.51450  1.0000 0.1197909292
H   H196      1.0  0.75890  0.63060  0.48550  1.0000 0.1197909292
H   H197      1.0  0.75890  0.13060  0.01450  1.0000 0.1197909292
H   H198      1.0  0.24110  0.63060  0.98550  1.0000 0.1197909292
H   H199      1.0  0.75890  0.86940  0.48550  1.0000 0.1197909292
H   H200      1.0  0.24110  0.36940  0.51450  1.0000 0.1197909292
H   H201      1.0  0.17260  0.83050  0.95180  1.0000 0.1303164832
H   H202      1.0  0.82740  0.33050  0.04820  1.0000 0.1303164832
H   H203      1.0  0.17260  0.16950  0.54820  1.0000 0.1303164832
H   H204      1.0  0.82740  0.66950  0.45180  1.0000 0.1303164832
H   H205      1.0  0.82740  0.16950  0.04820  1.0000 0.1303164832
H   H206      1.0  0.17260  0.66950  0.95180  1.0000 0.1303164832
H   H207      1.0  0.82740  0.83050  0.45180  1.0000 0.1303164832
H   H208      1.0  0.17260  0.33050  0.54820  1.0000 0.1303164832
H   H209      1.0  0.39290  0.82160  0.90150  1.0000 0.1303164832
H   H210      1.0  0.60710  0.32160  0.09850  1.0000 0.1303164832
H   H211      1.0  0.39290  0.17840  0.59850  1.0000 0.1303164832
H   H212      1.0  0.60710  0.67840  0.40150  1.0000 0.1303164832
H   H213      1.0  0.60710  0.17840  0.09850  1.0000 0.1303164832
H   H214      1.0  0.39290  0.67840  0.90150  1.0000 0.1303164832
H   H215      1.0  0.60710  0.82160  0.40150  1.0000 0.1303164832
H   H216      1.0  0.39290  0.32160  0.59850  1.0000 0.1303164832
H   H217      1.0  0.46450  0.85980  0.93590  1.0000 0.1197909292
H   H218      1.0  0.53550  0.35980  0.06410  1.0000 0.1197909292
H   H219      1.0  0.46450  0.14020  0.56410  1.0000 0.1197909292
H   H220      1.0  0.53550  0.64020  0.43590  1.0000 0.1197909292
H   H221      1.0  0.53550  0.14020  0.06410  1.0000 0.1197909292
H   H222      1.0  0.46450  0.64020  0.93590  1.0000 0.1197909292
H   H223      1.0  0.53550  0.85980  0.43590  1.0000 0.1197909292
H   H224      1.0  0.46450  0.35980  0.56410  1.0000 0.1197909292
H   H225      1.0  0.72360  0.91050  0.11540  1.0000 0.1371320268
H   H226      1.0  0.27640  0.41050  0.88460  1.0000 0.1303164832
H   H227      1.0  0.72360  0.08950  0.38460  1.0000 0.1371320268
H   H228      1.0  0.27640  0.58950  0.61540  1.0000 0.1371320268
H   H229      1.0  0.27640  0.08950  0.88460  1.0000 0.1371320268
H   H230      1.0  0.72360  0.58950  0.11540  1.0000 0.1371320268
H   H231      1.0  0.27640  0.91050  0.61540  1.0000 0.1371320268
H   H232      1.0  0.72360  0.41050  0.38460  1.0000 0.1303164832
H   H233      1.0  0.77000  0.87400  0.15670  1.0000 0.1197909292
H   H234      1.0  0.23000  0.37400  0.84330  1.0000 0.1197909292
H   H235      1.0  0.77000  0.12600  0.34330  1.0000 0.1197909292
H   H236      1.0  0.23000  0.62600  0.65670  1.0000 0.1197909292
H   H237      1.0  0.23000  0.12600  0.84330  1.0000 0.1197909292
H   H238      1.0  0.77000  0.62600  0.15670  1.0000 0.1197909292
H   H239      1.0  0.23000  0.87400  0.65670  1.0000 0.1197909292
H   H240      1.0  0.77000  0.37400  0.34330  1.0000 0.1197909292
H   H241      1.0  0.60590  0.91920  0.21400  1.0000 0.1100615166
H   H242      1.0  0.39410  0.41920  0.78600  1.0000 0.1197909292
H   H243      1.0  0.60590  0.08080  0.28600  1.0000 0.1197909292
H   H244      1.0  0.39410  0.58080  0.71400  1.0000 0.1197909292
H   H245      1.0  0.39410  0.08080  0.78600  1.0000 0.1197909292
H   H246      1.0  0.60590  0.58080  0.21400  1.0000 0.1100615166
H   H247      1.0  0.39410  0.91920  0.71400  1.0000 0.1197909292
H   H248      1.0  0.60590  0.41920  0.28600  1.0000 0.1197909292
H   H249      1.0  0.56390  0.95660  0.17340  1.0000 0.1197909292
H   H250      1.0  0.43610  0.45660  0.82660  1.0000 0.1197909292
H   H251      1.0  0.56390  0.04340  0.32660  1.0000 0.1197909292
H   H252      1.0  0.43610  0.54340  0.67340  1.0000 0.1197909292
H   H253      1.0  0.43610  0.04340  0.82660  1.0000 0.1197909292
H   H254      1.0  0.56390  0.54340  0.17340  1.0000 0.1197909292
H   H255      1.0  0.43610  0.95660  0.67340  1.0000 0.1197909292
H   H256      1.0  0.56390  0.45660  0.32660  1.0000 0.1197909292
H   H257      1.0  0.85460  0.86450  0.20230  1.0000 0.1197909292
H   H258      1.0  0.14540  0.36450  0.79770  1.0000 0.1197909292
H   H259      1.0  0.85460  0.13550  0.29770  1.0000 0.1197909292
H   H260      1.0  0.14540  0.63550  0.70230  1.0000 0.1197909292
H   H261      1.0  0.14540  0.13550  0.79770  1.0000 0.1197909292
H   H262      1.0  0.85460  0.63550  0.20230  1.0000 0.1197909292
H   H263      1.0  0.14540  0.86450  0.70230  1.0000 0.1197909292
H   H264      1.0  0.85460  0.36450  0.29770  1.0000 0.1197909292
H   H265      1.0  0.89890  0.82700  0.24150  1.0000 0.1371320268
H   H266      1.0  0.10110  0.32700  0.75850  1.0000 0.1371320268
H   H267      1.0  0.89890  0.17300  0.25850  1.0000 0.1371320268
H   H268      1.0  0.10110  0.67300  0.74150  1.0000 0.1371320268
H   H269      1.0  0.10110  0.17300  0.75850  1.0000 0.1371320268
H   H270      1.0  0.89890  0.67300  0.24150  1.0000 0.1371320268
H   H271      1.0  0.10110  0.82700  0.74150  1.0000 0.1371320268
H   H272      1.0  0.89890  0.32700  0.25850  1.0000 0.1371320268
H   H273      1.0  0.65790  0.82970  0.28010  1.0000 0.1371320268
H   H274      1.0  0.34210  0.32970  0.71990  1.0000 0.1371320268
H   H275      1.0  0.65790  0.17030  0.21990  1.0000 0.1371320268
H   H276      1.0  0.34210  0.67030  0.78010  1.0000 0.1371320268
H   H277      1.0  0.34210  0.17030  0.71990  1.0000 0.1371320268
H   H278      1.0  0.65790  0.67030  0.28010  1.0000 0.1371320268
H   H279      1.0  0.34210  0.82970  0.78010  1.0000 0.1371320268
H   H280      1.0  0.65790  0.32970  0.21990  1.0000 0.1371320268
H   H281      1.0  0.61290  0.86770  0.24050  1.0000 0.1197909292
H   H282      1.0  0.38710  0.36770  0.75950  1.0000 0.1197909292
H   H283      1.0  0.61290  0.13230  0.25950  1.0000 0.1197909292
H   H284      1.0  0.38710  0.63230  0.74050  1.0000 0.1197909292
H   H285      1.0  0.38710  0.13230  0.75950  1.0000 0.1197909292
H   H286      1.0  0.61290  0.63230  0.24050  1.0000 0.1197909292
H   H287      1.0  0.38710  0.86770  0.74050  1.0000 0.1197909292
H   H288      1.0  0.61290  0.36770  0.25950  1.0000 0.1197909292
H   H289      1.0  0.75570  0.99540  0.01150  1.0000 0.1197909292
H   H290      1.0  0.24430  0.49540  0.98850  1.0000 0.1197909292
H   H291      1.0  0.75570  0.00460  0.48850  1.0000 0.1197909292
H   H292      1.0  0.24430  0.50460  0.51150  1.0000 0.1303164832
H   H293      1.0  0.24430  0.00460  0.98850  1.0000 0.1197909292
H   H294      1.0  0.75570  0.50460  0.01150  1.0000 0.1303164832
H   H295      1.0  0.24430  0.99540  0.51150  1.0000 0.1197909292
H   H296      1.0  0.75570  0.49540  0.48850  1.0000 0.1197909292
H   H297      1.0  0.87250  0.02810  0.98840  1.0000 0.1197909292
H   H298      1.0  0.12750  0.52810  0.01160  1.0000 0.1197909292
H   H299      1.0  0.87250  0.97190  0.51160  1.0000 0.1197909292
H   H300      1.0  0.12750  0.47190  0.48840  1.0000 0.1197909292
H   H301      1.0  0.12750  0.97190  0.01160  1.0000 0.1197909292
H   H302      1.0  0.87250  0.47190  0.98840  1.0000 0.1197909292
H   H303      1.0  0.12750  0.02810  0.48840  1.0000 0.1197909292
H   H304      1.0  0.87250  0.52810  0.51160  1.0000 0.1197909292
H   H305      1.0  0.89700  0.07950  0.07060  1.0000 0.1197909292
H   H306      1.0  0.10300  0.57950  0.92940  1.0000 0.1197909292
H   H307      1.0  0.89700  0.92050  0.42940  1.0000 0.1197909292
H   H308      1.0  0.10300  0.42050  0.57060  1.0000 0.1197909292
H   H309      1.0  0.10300  0.92050  0.92940  1.0000 0.1197909292
H   H310      1.0  0.89700  0.42050  0.07060  1.0000 0.1197909292
H   H311      1.0  0.10300  0.07950  0.57060  1.0000 0.1197909292
H   H312      1.0  0.89700  0.57950  0.42940  1.0000 0.1197909292
H   H313      1.0  0.77870  0.04930  0.09100  1.0000 0.1197909292
H   H314      1.0  0.22130  0.54930  0.90900  1.0000 0.1197909292
H   H315      1.0  0.77870  0.95070  0.40900  1.0000 0.1197909292
H   H316      1.0  0.22130  0.45070  0.59100  1.0000 0.1197909292
H   H317      1.0  0.22130  0.95070  0.90900  1.0000 0.1197909292
H   H318      1.0  0.77870  0.45070  0.09100  1.0000 0.1197909292
H   H319      1.0  0.22130  0.04930  0.59100  1.0000 0.1197909292
H   H320      1.0  0.77870  0.54930  0.40900  1.0000 0.1197909292
H   H321      1.0  0.01180  0.03900  0.98200  1.0000 0.1100615166
H   H322      1.0  0.98820  0.53900  0.01800  1.0000 0.1100615166
H   H323      1.0  0.01180  0.96100  0.51800  1.0000 0.1100615166
H   H324      1.0  0.98820  0.46100  0.48200  1.0000 0.1100615166
H   H325      1.0  0.98820  0.96100  0.01800  1.0000 0.1100615166
H   H326      1.0  0.01180  0.46100  0.98200  1.0000 0.1100615166
H   H327      1.0  0.98820  0.03900  0.48200  1.0000 0.1100615166
H   H328      1.0  0.01180  0.53900  0.51800  1.0000 0.1100615166
H   H329      1.0  0.14110  0.06700  0.96090  1.0000 0.1100615166
H   H330      1.0  0.85890  0.56700  0.03910  1.0000 0.1100615166
H   H331      1.0  0.14110  0.93300  0.53910  1.0000 0.1100615166
H   H332      1.0  0.85890  0.43300  0.46090  1.0000 0.1100615166
H   H333      1.0  0.85890  0.93300  0.03910  1.0000 0.1100615166
H   H334      1.0  0.14110  0.43300  0.96090  1.0000 0.1100615166
H   H335      1.0  0.85890  0.06700  0.46090  1.0000 0.1100615166
H   H336      1.0  0.14110  0.56700  0.53910  1.0000 0.1100615166
H   H337      1.0  0.10430  0.14530  0.02320  1.0000 0.1197909292
H   H338      1.0  0.89570  0.64530  0.97680  1.0000 0.1197909292
H   H339      1.0  0.10430  0.85470  0.47680  1.0000 0.1197909292
H   H340      1.0  0.89570  0.35470  0.52320  1.0000 0.1197909292
H   H341      1.0  0.89570  0.85470  0.97680  1.0000 0.1197909292
H   H342      1.0  0.10430  0.35470  0.02320  1.0000 0.1197909292
H   H343      1.0  0.89570  0.14530  0.52320  1.0000 0.1197909292
H   H344      1.0  0.10430  0.64530  0.47680  1.0000 0.1197909292
H   H345      1.0  0.96290  0.11780  0.03900  1.0000 0.1100615166
H   H346      1.0  0.03710  0.61780  0.96100  1.0000 0.1100615166
H   H347      1.0  0.96290  0.88220  0.46100  1.0000 0.1100615166
H   H348      1.0  0.03710  0.38220  0.53900  1.0000 0.1100615166
H   H349      1.0  0.03710  0.88220  0.96100  1.0000 0.1100615166
H   H350      1.0  0.96290  0.38220  0.03900  1.0000 0.1100615166
H   H351      1.0  0.03710  0.11780  0.53900  1.0000 0.1100615166
H   H352      1.0  0.96290  0.61780  0.46100  1.0000 0.1100615166
C   C1        1.0  0.05670  0.20189  0.14129  1.0000 0.5999974058
C   C2        1.0  0.94330  0.70189  0.85871  1.0000 0.5999974058
C   C3        1.0  0.05670  0.79811  0.35871  1.0000 0.5999974058
C   C4        1.0  0.94330  0.29811  0.64129  1.0000 0.5999974058
C   C5        1.0  0.94330  0.79811  0.85871  1.0000 0.5999974058
C   C6        1.0  0.05670  0.29811  0.14129  1.0000 0.5999974058
C   C7        1.0  0.94330  0.20189  0.64129  1.0000 0.5999974058
C   C8        1.0  0.05670  0.70189  0.35871  1.0000 0.5999974058
C   C9        1.0  0.12420  0.17422  0.13636  1.0000 -0.0412241222
C   C10       1.0  0.87580  0.67422  0.86364  1.0000 -0.0412241222
C   C11       1.0  0.12420  0.82578  0.36364  1.0000 -0.0412241222
C   C12       1.0  0.87580  0.32578  0.63636  1.0000 -0.0412241222
C   C13       1.0  0.87580  0.82578  0.86364  1.0000 -0.0412241222
C   C14       1.0  0.12420  0.32578  0.13636  1.0000 -0.0412241222
C   C15       1.0  0.87580  0.17422  0.63636  1.0000 -0.0412241222
C   C16       1.0  0.12420  0.67422  0.36364  1.0000 -0.0412241222
C   C17       1.0  0.13740  0.16022  0.10566  1.0000 -0.0811861792
C   C18       1.0  0.86260  0.66022  0.89434  1.0000 -0.0811861792
C   C19       1.0  0.13740  0.83978  0.39434  1.0000 -0.0811861792
C   C20       1.0  0.86260  0.33978  0.60566  1.0000 -0.0811861792
C   C21       1.0  0.86260  0.83978  0.89434  1.0000 -0.0811861792
C   C22       1.0  0.13740  0.33978  0.10566  1.0000 -0.0811861792
C   C23       1.0  0.86260  0.16022  0.60566  1.0000 -0.0811861792
C   C24       1.0  0.13740  0.66022  0.39434  1.0000 -0.0811861792
C   C25       1.0  0.20050  0.13494  0.10059  1.0000 -0.1398596854
C   C26       1.0  0.79950  0.63494  0.89941  1.0000 -0.1398596854
C   C27       1.0  0.20050  0.86506  0.39941  1.0000 -0.1398596854
C   C28       1.0  0.79950  0.36506  0.60059  1.0000 -0.1398596854
C   C29       1.0  0.79950  0.86506  0.89941  1.0000 -0.1398596854
C   C30       1.0  0.20050  0.36506  0.10059  1.0000 -0.1398596854
C   C31       1.0  0.79950  0.13494  0.60059  1.0000 -0.1398596854
C   C32       1.0  0.20050  0.63494  0.39941  1.0000 -0.1398596854
C   C33       1.0  0.25560  0.12294  0.12522  1.0000 0.086582818
C   C34       1.0  0.74440  0.62294  0.87478  1.0000 0.086582818
C   C35       1.0  0.25560  0.87706  0.37478  1.0000 0.086582818
C   C36       1.0  0.74440  0.37706  0.62522  1.0000 0.086582818
C   C37       1.0  0.74440  0.87706  0.87478  1.0000 0.086582818
C   C38       1.0  0.25560  0.37706  0.12522  1.0000 0.086582818
C   C39       1.0  0.74440  0.12294  0.62522  1.0000 0.086582818
C   C40       1.0  0.25560  0.62294  0.37478  1.0000 0.086582818
C   C41       1.0  0.24010  0.13632  0.15561  1.0000 -0.1398596854
C   C42       1.0  0.75990  0.63632  0.84439  1.0000 -0.1398596854
C   C43       1.0  0.24010  0.86368  0.34439  1.0000 -0.1398596854
C   C44       1.0  0.75990  0.36368  0.65561  1.0000 -0.1398596854
C   C45       1.0  0.75990  0.86368  0.84439  1.0000 -0.1398596854
C   C46       1.0  0.24010  0.36368  0.15561  1.0000 -0.1398596854
C   C47       1.0  0.75990  0.13632  0.65561  1.0000 -0.1398596854
C   C48       1.0  0.24010  0.63632  0.34439  1.0000 -0.1398596854
C   C49       1.0  0.17640  0.16141  0.16112  1.0000 -0.0811861792
C   C50       1.0  0.82360  0.66141  0.83888  1.0000 -0.0811861792
C   C51       1.0  0.17640  0.83859  0.33888  1.0000 -0.0811861792
C   C52       1.0  0.82360  0.33859  0.66112  1.0000 -0.0811861792
C   C53       1.0  0.82360  0.83859  0.83888  1.0000 -0.0811861792
C   C54       1.0  0.17640  0.33859  0.16112  1.0000 -0.0811861792
C   C55       1.0  0.82360  0.16141  0.66112  1.0000 -0.0811861792
C   C56       1.0  0.17640  0.66141  0.33888  1.0000 -0.0811861792
C   C57       1.0  0.32570  0.09629  0.11859  1.0000 0.0613165984
C   C58       1.0  0.67430  0.59629  0.88141  1.0000 0.0613165984
C   C59       1.0  0.32570  0.90371  0.38141  1.0000 0.0613165984
C   C60       1.0  0.67430  0.40371  0.61859  1.0000 0.0613165984
C   C61       1.0  0.67430  0.90371  0.88141  1.0000 0.0613165984
C   C62       1.0  0.32570  0.40371  0.11859  1.0000 0.0613165984
C   C63       1.0  0.67430  0.09629  0.61859  1.0000 0.0613165984
C   C64       1.0  0.32570  0.59629  0.38141  1.0000 0.0613165984
C   C65       1.0  0.36180  0.09295  0.08844  1.0000 -0.1398596854
C   C66       1.0  0.63820  0.59295  0.91156  1.0000 -0.1398596854
C   C67       1.0  0.36180  0.90705  0.41156  1.0000 -0.1398596854
C   C68       1.0  0.63820  0.40705  0.58844  1.0000 -0.1398596854
C   C69       1.0  0.63820  0.90705  0.91156  1.0000 -0.1398596854
C   C70       1.0  0.36180  0.40705  0.08844  1.0000 -0.1398596854
C   C71       1.0  0.63820  0.09295  0.58844  1.0000 -0.1398596854
C   C72       1.0  0.36180  0.59295  0.41156  1.0000 -0.1398596854
C   C73       1.0  0.42340  0.06733  0.08123  1.0000 -0.1607593252
C   C74       1.0  0.57660  0.56733  0.91877  1.0000 -0.1607593252
C   C75       1.0  0.42340  0.93267  0.41877  1.0000 -0.1607593252
C   C76       1.0  0.57660  0.43267  0.58123  1.0000 -0.1607593252
C   C77       1.0  0.57660  0.93267  0.91877  1.0000 -0.1607593252
C   C78       1.0  0.42340  0.43267  0.08123  1.0000 -0.1607593252
C   C79       1.0  0.57660  0.06733  0.58123  1.0000 -0.1607593252
C   C80       1.0  0.42340  0.56733  0.41877  1.0000 -0.1607593252
C   C81       1.0  0.45370  0.04330  0.10387  1.0000 0.048257964
C   C82       1.0  0.54630  0.54330  0.89613  1.0000 0.048257964
C   C83       1.0  0.45370  0.95670  0.39613  1.0000 0.048257964
C   C84       1.0  0.54630  0.45670  0.60387  1.0000 0.048257964
C   C85       1.0  0.54630  0.95670  0.89613  1.0000 0.048257964
C   C86       1.0  0.45370  0.45670  0.10387  1.0000 0.048257964
C   C87       1.0  0.54630  0.04330  0.60387  1.0000 0.048257964
C   C88       1.0  0.45370  0.54330  0.39613  1.0000 0.048257964
C   C89       1.0  0.41380  0.04655  0.13238  1.0000 -0.1607593252
C   C90       1.0  0.58620  0.54655  0.86762  1.0000 -0.1607593252
C   C91       1.0  0.41380  0.95345  0.36762  1.0000 -0.1607593252
C   C92       1.0  0.58620  0.45345  0.63238  1.0000 -0.1607593252
C   C93       1.0  0.58620  0.95345  0.86762  1.0000 -0.1607593252
C   C94       1.0  0.41380  0.45345  0.13238  1.0000 -0.1607593252
C   C95       1.0  0.58620  0.04655  0.63238  1.0000 -0.1607593252
C   C96       1.0  0.41380  0.54655  0.36762  1.0000 -0.1607593252
C   C97       1.0  0.35030  0.07167  0.14004  1.0000 -0.1398596854
C   C98       1.0  0.64970  0.57167  0.85996  1.0000 -0.1398596854
C   C99       1.0  0.35030  0.92833  0.35996  1.0000 -0.1398596854
C   C100      1.0  0.64970  0.42833  0.64004  1.0000 -0.1398596854
C   C101      1.0  0.64970  0.92833  0.85996  1.0000 -0.1398596854
C   C102      1.0  0.35030  0.42833  0.14004  1.0000 -0.1398596854
C   C103      1.0  0.64970  0.07167  0.64004  1.0000 -0.1398596854
C   C104      1.0  0.35030  0.57167  0.35996  1.0000 -0.1398596854
C   C105      1.0  0.51780  0.01500  0.09423  1.0000 0.1781257014
C   C106      1.0  0.48220  0.51500  0.90577  1.0000 0.1781257014
C   C107      1.0  0.51780  0.98500  0.40577  1.0000 0.1781257014
C   C108      1.0  0.48220  0.48500  0.59423  1.0000 0.1781257014
C   C109      1.0  0.48220  0.98500  0.90577  1.0000 0.1781257014
C   C110      1.0  0.51780  0.48500  0.09423  1.0000 0.1781257014
C   C111      1.0  0.48220  0.01500  0.59423  1.0000 0.1781257014
C   C112      1.0  0.51780  0.51500  0.40577  1.0000 0.1781257014
C   C113      1.0  0.47280  0.99121  0.06910  1.0000 -0.309234745
C   C114      1.0  0.52720  0.49121  0.93090  1.0000 -0.309234745
C   C115      1.0  0.47280  0.00879  0.43090  1.0000 -0.309234745
C   C116      1.0  0.52720  0.50879  0.56910  1.0000 -0.309234745
C   C117      1.0  0.52720  0.00879  0.93090  1.0000 -0.309234745
C   C118      1.0  0.47280  0.50879  0.06910  1.0000 -0.309234745
C   C119      1.0  0.52720  0.99121  0.56910  1.0000 -0.309234745
C   C120      1.0  0.47280  0.49121  0.43090  1.0000 -0.309234745
C   C121      1.0  0.53550  0.96274  0.05716  1.0000 0.1781257014
C   C122      1.0  0.46450  0.46274  0.94284  1.0000 0.1781257014
C   C123      1.0  0.53550  0.03726  0.44284  1.0000 0.1781257014
C   C124      1.0  0.46450  0.53726  0.55716  1.0000 0.1781257014
C   C125      1.0  0.46450  0.03726  0.94284  1.0000 0.1781257014
C   C126      1.0  0.53550  0.53726  0.05716  1.0000 0.1781257014
C   C127      1.0  0.46450  0.96274  0.55716  1.0000 0.1781257014
C   C128      1.0  0.53550  0.46274  0.44284  1.0000 0.1781257014
C   C129      1.0  0.56440  0.94082  0.08695  1.0000 -0.2833309575
C   C130      1.0  0.43560  0.44082  0.91305  1.0000 -0.2875848099
C   C131      1.0  0.56440  0.05918  0.41305  1.0000 -0.2833309575
C   C132      1.0  0.43560  0.55918  0.58695  1.0000 -0.2833309575
C   C133      1.0  0.43560  0.05918  0.91305  1.0000 -0.2833309575
C   C134      1.0  0.56440  0.55918  0.08695  1.0000 -0.2833309575
C   C135      1.0  0.43560  0.94082  0.58695  1.0000 -0.2833309575
C   C136      1.0  0.56440  0.44082  0.41305  1.0000 -0.2875848099
C   C137      1.0  0.61220  0.96308  0.11229  1.0000 0.1781257014
C   C138      1.0  0.38780  0.46308  0.88771  1.0000 0.1781257014
C   C139      1.0  0.61220  0.03692  0.38771  1.0000 0.1781257014
C   C140      1.0  0.38780  0.53692  0.61229  1.0000 0.1781257014
C   C141      1.0  0.38780  0.03692  0.88771  1.0000 0.1781257014
C   C142      1.0  0.61220  0.53692  0.11229  1.0000 0.1781257014
C   C143      1.0  0.38780  0.96308  0.61229  1.0000 0.1781257014
C   C144      1.0  0.61220  0.46308  0.38771  1.0000 0.1781257014
C   C145      1.0  0.54660  0.99229  0.12315  1.0000 -0.3007777697
C   C146      1.0  0.45340  0.49229  0.87685  1.0000 -0.3007777697
C   C147      1.0  0.54660  0.00771  0.37685  1.0000 -0.3007777697
C   C148      1.0  0.45340  0.50771  0.62315  1.0000 -0.3007777697
C   C149      1.0  0.45340  0.00771  0.87685  1.0000 -0.3007777697
C   C150      1.0  0.54660  0.50771  0.12315  1.0000 -0.3007777697
C   C151      1.0  0.45340  0.99229  0.62315  1.0000 -0.3007777697
C   C152      1.0  0.54660  0.49229  0.37685  1.0000 -0.3007777697
C   C153      1.0  0.60230  0.03122  0.07904  1.0000 -0.3007777697
C   C154      1.0  0.39770  0.53122  0.92096  1.0000 -0.3007777697
C   C155      1.0  0.60230  0.96878  0.42096  1.0000 -0.3007777697
C   C156      1.0  0.39770  0.46878  0.57904  1.0000 -0.3007777697
C   C157      1.0  0.39770  0.96878  0.92096  1.0000 -0.3007777697
C   C158      1.0  0.60230  0.46878  0.07904  1.0000 -0.3007777697
C   C159      1.0  0.39770  0.03122  0.57904  1.0000 -0.3007777697
C   C160      1.0  0.60230  0.53122  0.42096  1.0000 -0.3007777697
C   C161      1.0  0.61940  0.97982  0.04257  1.0000 -0.309234745
C   C162      1.0  0.38060  0.47982  0.95743  1.0000 -0.309234745
C   C163      1.0  0.61940  0.02018  0.45743  1.0000 -0.309234745
C   C164      1.0  0.38060  0.52018  0.54257  1.0000 -0.309234745
C   C165      1.0  0.38060  0.02018  0.95743  1.0000 -0.309234745
C   C166      1.0  0.61940  0.52018  0.04257  1.0000 -0.309234745
C   C167      1.0  0.38060  0.97982  0.54257  1.0000 -0.309234745
C   C168      1.0  0.61940  0.47982  0.45743  1.0000 -0.309234745
C   C169      1.0  0.69430  0.98011  0.09662  1.0000 -0.2875848099
C   C170      1.0  0.30570  0.48011  0.90338  1.0000 -0.2875848099
C   C171      1.0  0.69430  0.01989  0.40338  1.0000 -0.2875848099
C   C172      1.0  0.30570  0.51989  0.59662  1.0000 -0.2875848099
C   C173      1.0  0.30570  0.01989  0.90338  1.0000 -0.2875848099
C   C174      1.0  0.69430  0.51989  0.09662  1.0000 -0.2875848099
C   C175      1.0  0.30570  0.98011  0.59662  1.0000 -0.2875848099
C   C176      1.0  0.69430  0.48011  0.40338  1.0000 -0.2875848099
C   C177      1.0  0.66840  0.00338  0.06708  1.0000 0.1878232555
C   C178      1.0  0.33160  0.50338  0.93292  1.0000 0.1878232555
C   C179      1.0  0.66840  0.99662  0.43292  1.0000 0.1878232555
C   C180      1.0  0.33160  0.49662  0.56708  1.0000 0.1878232555
C   C181      1.0  0.33160  0.99662  0.93292  1.0000 0.1878232555
C   C182      1.0  0.66840  0.49662  0.06708  1.0000 0.1878232555
C   C183      1.0  0.33160  0.00338  0.56708  1.0000 0.1878232555
C   C184      1.0  0.66840  0.50338  0.43292  1.0000 0.1878232555
C   C185      1.0  0.48980  0.93861  0.03248  1.0000 0.048257964
C   C186      1.0  0.51020  0.43861  0.96752  1.0000 0.048257964
C   C187      1.0  0.48980  0.06139  0.46752  1.0000 0.048257964
C   C188      1.0  0.51020  0.56139  0.53248  1.0000 0.048257964
C   C189      1.0  0.51020  0.06139  0.96752  1.0000 0.048257964
C   C190      1.0  0.48980  0.56139  0.03248  1.0000 0.048257964
C   C191      1.0  0.51020  0.93861  0.53248  1.0000 0.048257964
C   C192      1.0  0.48980  0.43861  0.46752  1.0000 0.048257964
C   C193      1.0  0.39940  0.94049  0.02549  1.0000 -0.1607593252
C   C194      1.0  0.60060  0.44049  0.97451  1.0000 -0.1607593252
C   C195      1.0  0.39940  0.05951  0.47451  1.0000 -0.1607593252
C   C196      1.0  0.60060  0.55951  0.52549  1.0000 -0.1607593252
C   C197      1.0  0.60060  0.05951  0.97451  1.0000 -0.1607593252
C   C198      1.0  0.39940  0.55951  0.02549  1.0000 -0.1607593252
C   C199      1.0  0.60060  0.94049  0.52549  1.0000 -0.1607593252
C   C200      1.0  0.39940  0.44049  0.47451  1.0000 -0.1607593252
C   C201      1.0  0.35970  0.91832  0.00374  1.0000 -0.1398596854
C   C202      1.0  0.64030  0.41832  0.99626  1.0000 -0.150630933
C   C203      1.0  0.35970  0.08168  0.49626  1.0000 -0.150630933
C   C204      1.0  0.64030  0.58168  0.50374  1.0000 -0.150630933
C   C205      1.0  0.64030  0.08168  0.99626  1.0000 -0.150630933
C   C206      1.0  0.35970  0.58168  0.00374  1.0000 -0.150630933
C   C207      1.0  0.64030  0.91832  0.50374  1.0000 -0.150630933
C   C208      1.0  0.35970  0.41832  0.49626  1.0000 -0.150630933
C   C209      1.0  0.40640  0.89216  0.98810  1.0000 0.0613165984
C   C210      1.0  0.59360  0.39216  0.01190  1.0000 0.0613165984
C   C211      1.0  0.40640  0.10784  0.51190  1.0000 0.0613165984
C   C212      1.0  0.59360  0.60784  0.48810  1.0000 0.0613165984
C   C213      1.0  0.59360  0.10784  0.01190  1.0000 0.0613165984
C   C214      1.0  0.40640  0.60784  0.98810  1.0000 0.0613165984
C   C215      1.0  0.59360  0.89216  0.48810  1.0000 0.0613165984
C   C216      1.0  0.40640  0.39216  0.51190  1.0000 0.0613165984
C   C217      1.0  0.49480  0.89213  0.99352  1.0000 -0.1345126732
C   C218      1.0  0.50520  0.39213  0.00648  1.0000 -0.1398596854
C   C219      1.0  0.49480  0.10787  0.50648  1.0000 -0.1345126732
C   C220      1.0  0.50520  0.60787  0.49352  1.0000 -0.1345126732
C   C221      1.0  0.50520  0.10787  0.00648  1.0000 -0.1398596854
C   C222      1.0  0.49480  0.60787  0.99352  1.0000 -0.1345126732
C   C223      1.0  0.50520  0.89213  0.49352  1.0000 -0.1345126732
C   C224      1.0  0.49480  0.39213  0.50648  1.0000 -0.1398596854
C   C225      1.0  0.53720  0.91509  0.01539  1.0000 -0.1398596854
C   C226      1.0  0.46280  0.41509  0.98461  1.0000 -0.1398596854
C   C227      1.0  0.53720  0.08491  0.48461  1.0000 -0.1398596854
C   C228      1.0  0.46280  0.58491  0.51539  1.0000 -0.1398596854
C   C229      1.0  0.46280  0.08491  0.98461  1.0000 -0.1398596854
C   C230      1.0  0.53720  0.58491  0.01539  1.0000 -0.1398596854
C   C231      1.0  0.46280  0.91509  0.51539  1.0000 -0.1398596854
C   C232      1.0  0.53720  0.41509  0.48461  1.0000 -0.1398596854
C   C233      1.0  0.36220  0.86865  0.96539  1.0000 0.0794633384
C   C234      1.0  0.63780  0.36865  0.03461  1.0000 0.0794633384
C   C235      1.0  0.36220  0.13135  0.53461  1.0000 0.0794633384
C   C236      1.0  0.63780  0.63135  0.46539  1.0000 0.0794633384
C   C237      1.0  0.63780  0.13135  0.03461  1.0000 0.0794633384
C   C238      1.0  0.36220  0.63135  0.96539  1.0000 0.0794633384
C   C239      1.0  0.63780  0.86865  0.46539  1.0000 0.0794633384
C   C240      1.0  0.36220  0.36865  0.53461  1.0000 0.0794633384
C   C241      1.0  0.27410  0.85959  0.96870  1.0000 -0.150630933
C   C242      1.0  0.72590  0.35959  0.03130  1.0000 -0.150630933
C   C243      1.0  0.27410  0.14041  0.53130  1.0000 -0.150630933
C   C244      1.0  0.72590  0.64041  0.46870  1.0000 -0.150630933
C   C245      1.0  0.72590  0.14041  0.03130  1.0000 -0.150630933
C   C246      1.0  0.27410  0.64041  0.96870  1.0000 -0.150630933
C   C247      1.0  0.72590  0.85959  0.46870  1.0000 -0.150630933
C   C248      1.0  0.27410  0.35959  0.53130  1.0000 -0.150630933
C   C249      1.0  0.23210  0.83646  0.94806  1.0000 -0.0933322109
C   C250      1.0  0.76790  0.33646  0.05194  1.0000 -0.0933322109
C   C251      1.0  0.23210  0.16354  0.55194  1.0000 -0.0933322109
C   C252      1.0  0.76790  0.66354  0.44806  1.0000 -0.0933322109
C   C253      1.0  0.76790  0.16354  0.05194  1.0000 -0.0933322109
C   C254      1.0  0.23210  0.66354  0.94806  1.0000 -0.0933322109
C   C255      1.0  0.76790  0.83646  0.44806  1.0000 -0.0933322109
C   C256      1.0  0.23210  0.33646  0.55194  1.0000 -0.0933322109
C   C257      1.0  0.27480  0.82252  0.92293  1.0000 -0.02036205
C   C258      1.0  0.72520  0.32252  0.07707  1.0000 -0.02036205
C   C259      1.0  0.27480  0.17748  0.57707  1.0000 -0.02036205
C   C260      1.0  0.72520  0.67748  0.42293  1.0000 -0.02036205
C   C261      1.0  0.72520  0.17748  0.07707  1.0000 -0.02036205
C   C262      1.0  0.27480  0.67748  0.92293  1.0000 -0.02036205
C   C263      1.0  0.72520  0.82252  0.42293  1.0000 -0.02036205
C   C264      1.0  0.27480  0.32252  0.57707  1.0000 -0.02036205
C   C265      1.0  0.36120  0.83120  0.91877  1.0000 -0.0996460087
C   C266      1.0  0.63880  0.33120  0.08123  1.0000 -0.0933322109
C   C267      1.0  0.36120  0.16880  0.58123  1.0000 -0.0933322109
C   C268      1.0  0.63880  0.66880  0.41877  1.0000 -0.0996460087
C   C269      1.0  0.63880  0.16880  0.08123  1.0000 -0.0933322109
C   C270      1.0  0.36120  0.66880  0.91877  1.0000 -0.0996460087
C   C271      1.0  0.63880  0.83120  0.41877  1.0000 -0.0933322109
C   C272      1.0  0.36120  0.33120  0.58123  1.0000 -0.0996460087
C   C273      1.0  0.40480  0.85424  0.93970  1.0000 -0.150630933
C   C274      1.0  0.59520  0.35424  0.06030  1.0000 -0.150630933
C   C275      1.0  0.40480  0.14576  0.56030  1.0000 -0.150630933
C   C276      1.0  0.59520  0.64576  0.43970  1.0000 -0.150630933
C   C277      1.0  0.59520  0.14576  0.06030  1.0000 -0.150630933
C   C278      1.0  0.40480  0.64576  0.93970  1.0000 -0.150630933
C   C279      1.0  0.59520  0.85424  0.43970  1.0000 -0.150630933
C   C280      1.0  0.40480  0.35424  0.56030  1.0000 -0.150630933
C   C281      1.0  0.23050  0.79692  0.90058  1.0000 0.6071872012
C   C282      1.0  0.76950  0.29692  0.09942  1.0000 0.6071872012
C   C283      1.0  0.23050  0.20308  0.59942  1.0000 0.6071872012
C   C284      1.0  0.76950  0.70308  0.40058  1.0000 0.6071872012
C   C285      1.0  0.76950  0.20308  0.09942  1.0000 0.6071872012
C   C286      1.0  0.23050  0.70308  0.90058  1.0000 0.6071872012
C   C287      1.0  0.76950  0.79692  0.40058  1.0000 0.6071872012
C   C288      1.0  0.23050  0.29692  0.59942  1.0000 0.6071872012
C   C289      1.0  0.64020  0.94020  0.14066  1.0000 0.048257964
C   C290      1.0  0.35980  0.44020  0.85934  1.0000 0.048257964
C   C291      1.0  0.64020  0.05980  0.35934  1.0000 0.048257964
C   C292      1.0  0.35980  0.55980  0.64066  1.0000 0.048257964
C   C293      1.0  0.35980  0.05980  0.85934  1.0000 0.048257964
C   C294      1.0  0.64020  0.55980  0.14066  1.0000 0.048257964
C   C295      1.0  0.35980  0.94020  0.64066  1.0000 0.048257964
C   C296      1.0  0.64020  0.44020  0.35934  1.0000 0.048257964
C   C297      1.0  0.70050  0.91391  0.13610  1.0000 -0.150630933
C   C298      1.0  0.29950  0.41391  0.86390  1.0000 -0.150630933
C   C299      1.0  0.70050  0.08609  0.36390  1.0000 -0.150630933
C   C300      1.0  0.29950  0.58609  0.63610  1.0000 -0.150630933
C   C301      1.0  0.29950  0.08609  0.86390  1.0000 -0.150630933
C   C302      1.0  0.70050  0.58609  0.13610  1.0000 -0.150630933
C   C303      1.0  0.29950  0.91391  0.63610  1.0000 -0.150630933
C   C304      1.0  0.70050  0.41391  0.36390  1.0000 -0.150630933
C   C305      1.0  0.72920  0.89168  0.16119  1.0000 -0.150630933
C   C306      1.0  0.27080  0.39168  0.83881  1.0000 -0.150630933
C   C307      1.0  0.72920  0.10832  0.33881  1.0000 -0.150630933
C   C308      1.0  0.27080  0.60832  0.66119  1.0000 -0.150630933
C   C309      1.0  0.27080  0.10832  0.83881  1.0000 -0.150630933
C   C310      1.0  0.72920  0.60832  0.16119  1.0000 -0.150630933
C   C311      1.0  0.27080  0.89168  0.66119  1.0000 -0.150630933
C   C312      1.0  0.72920  0.39168  0.33881  1.0000 -0.150630933
C   C313      1.0  0.69830  0.89570  0.19156  1.0000 0.0613165984
C   C314      1.0  0.30170  0.39570  0.80844  1.0000 0.0613165984
C   C315      1.0  0.69830  0.10430  0.30844  1.0000 0.0613165984
C   C316      1.0  0.30170  0.60430  0.69156  1.0000 0.0613165984
C   C317      1.0  0.30170  0.10430  0.80844  1.0000 0.0613165984
C   C318      1.0  0.69830  0.60430  0.19156  1.0000 0.0613165984
C   C319      1.0  0.30170  0.89570  0.69156  1.0000 0.0613165984
C   C320      1.0  0.69830  0.39570  0.30844  1.0000 0.0613165984
C   C321      1.0  0.63580  0.91772  0.19426  1.0000 -0.1398596854
C   C322      1.0  0.36420  0.41772  0.80574  1.0000 -0.1398596854
C   C323      1.0  0.63580  0.08228  0.30574  1.0000 -0.1398596854
C   C324      1.0  0.36420  0.58228  0.69426  1.0000 -0.1398596854
C   C325      1.0  0.36420  0.08228  0.80574  1.0000 -0.1398596854
C   C326      1.0  0.63580  0.58228  0.19426  1.0000 -0.1398596854
C   C327      1.0  0.36420  0.91772  0.69426  1.0000 -0.1398596854
C   C328      1.0  0.63580  0.41772  0.30574  1.0000 -0.1398596854
C   C329      1.0  0.60850  0.94043  0.16882  1.0000 -0.150630933
C   C330      1.0  0.39150  0.44043  0.83118  1.0000 -0.150630933
C   C331      1.0  0.60850  0.05957  0.33118  1.0000 -0.150630933
C   C332      1.0  0.39150  0.55957  0.66882  1.0000 -0.150630933
C   C333      1.0  0.39150  0.05957  0.83118  1.0000 -0.150630933
C   C334      1.0  0.60850  0.55957  0.16882  1.0000 -0.150630933
C   C335      1.0  0.39150  0.94043  0.66882  1.0000 -0.150630933
C   C336      1.0  0.60850  0.44043  0.33118  1.0000 -0.150630933
C   C337      1.0  0.72990  0.87155  0.21746  1.0000 0.086582818
C   C338      1.0  0.27010  0.37155  0.78254  1.0000 0.086582818
C   C339      1.0  0.72990  0.12845  0.28254  1.0000 0.086582818
C   C340      1.0  0.27010  0.62845  0.71746  1.0000 0.086582818
C   C341      1.0  0.27010  0.12845  0.78254  1.0000 0.086582818
C   C342      1.0  0.72990  0.62845  0.21746  1.0000 0.086582818
C   C343      1.0  0.27010  0.87155  0.71746  1.0000 0.086582818
C   C344      1.0  0.72990  0.37155  0.28254  1.0000 0.086582818
C   C345      1.0  0.81380  0.85804  0.21820  1.0000 -0.150630933
C   C346      1.0  0.18620  0.35804  0.78180  1.0000 -0.150630933
C   C347      1.0  0.81380  0.14196  0.28180  1.0000 -0.1398596854
C   C348      1.0  0.18620  0.64196  0.71820  1.0000 -0.150630933
C   C349      1.0  0.18620  0.14196  0.78180  1.0000 -0.150630933
C   C350      1.0  0.81380  0.64196  0.21820  1.0000 -0.1398596854
C   C351      1.0  0.18620  0.85804  0.71820  1.0000 -0.150630933
C   C352      1.0  0.81380  0.35804  0.28180  1.0000 -0.1398596854
C   C353      1.0  0.84030  0.83516  0.24168  1.0000 -0.0996460087
C   C354      1.0  0.15970  0.33516  0.75832  1.0000 -0.0933322109
C   C355      1.0  0.84030  0.16484  0.25832  1.0000 -0.0996460087
C   C356      1.0  0.15970  0.66484  0.74168  1.0000 -0.0933322109
C   C357      1.0  0.15970  0.16484  0.75832  1.0000 -0.0996460087
C   C358      1.0  0.84030  0.66484  0.24168  1.0000 -0.0933322109
C   C359      1.0  0.15970  0.83516  0.74168  1.0000 -0.0996460087
C   C360      1.0  0.84030  0.33516  0.25832  1.0000 -0.0933322109
C   C361      1.0  0.78400  0.82414  0.26499  1.0000 -0.0257060426
C   C362      1.0  0.21600  0.32414  0.73501  1.0000 -0.0257060426
C   C363      1.0  0.78400  0.17586  0.23501  1.0000 -0.02036205
C   C364      1.0  0.21600  0.67586  0.76499  1.0000 -0.0257060426
C   C365      1.0  0.21600  0.17586  0.73501  1.0000 -0.02036205
C   C366      1.0  0.78400  0.67586  0.26499  1.0000 -0.0257060426
C   C367      1.0  0.21600  0.82414  0.76499  1.0000 -0.0257060426
C   C368      1.0  0.78400  0.32414  0.23501  1.0000 -0.0257060426
C   C369      1.0  0.69870  0.83679  0.26433  1.0000 -0.0933322109
C   C370      1.0  0.30130  0.33679  0.73567  1.0000 -0.0933322109
C   C371      1.0  0.69870  0.16321  0.23567  1.0000 -0.0933322109
C   C372      1.0  0.30130  0.66321  0.76433  1.0000 -0.0933322109
C   C373      1.0  0.30130  0.16321  0.73567  1.0000 -0.0933322109
C   C374      1.0  0.69870  0.66321  0.26433  1.0000 -0.0933322109
C   C375      1.0  0.30130  0.83679  0.76433  1.0000 -0.0933322109
C   C376      1.0  0.69870  0.33679  0.23567  1.0000 -0.0933322109
C   C377      1.0  0.67180  0.85986  0.24068  1.0000 -0.150630933
C   C378      1.0  0.32820  0.35986  0.75932  1.0000 -0.150630933
C   C379      1.0  0.67180  0.14014  0.25932  1.0000 -0.150630933
C   C380      1.0  0.32820  0.64014  0.74068  1.0000 -0.150630933
C   C381      1.0  0.32820  0.14014  0.75932  1.0000 -0.150630933
C   C382      1.0  0.67180  0.64014  0.24068  1.0000 -0.150630933
C   C383      1.0  0.32820  0.85986  0.74068  1.0000 -0.150630933
C   C384      1.0  0.67180  0.35986  0.25932  1.0000 -0.150630933
C   C385      1.0  0.81390  0.79757  0.28929  1.0000 0.5999974058
C   C386      1.0  0.18610  0.29757  0.71071  1.0000 0.5999974058
C   C387      1.0  0.81390  0.20243  0.21071  1.0000 0.5999974058
C   C388      1.0  0.18610  0.70243  0.78929  1.0000 0.5999974058
C   C389      1.0  0.18610  0.20243  0.71071  1.0000 0.5999974058
C   C390      1.0  0.81390  0.70243  0.28929  1.0000 0.5999974058
C   C391      1.0  0.18610  0.79757  0.78929  1.0000 0.5999974058
C   C392      1.0  0.81390  0.29757  0.21071  1.0000 0.5999974058
C   C393      1.0  0.75050  0.01960  0.05330  1.0000 0.0401265406
C   C394      1.0  0.24950  0.51960  0.94670  1.0000 0.0401265406
C   C395      1.0  0.75050  0.98040  0.44670  1.0000 0.0401265406
C   C396      1.0  0.24950  0.48040  0.55330  1.0000 0.0401265406
C   C397      1.0  0.24950  0.98040  0.94670  1.0000 0.0401265406
C   C398      1.0  0.75050  0.48040  0.05330  1.0000 0.0401265406
C   C399      1.0  0.24950  0.01960  0.55330  1.0000 0.0401265406
C   C400      1.0  0.75050  0.51960  0.44670  1.0000 0.0401265406
C   C401      1.0  0.78250  0.01289  0.02373  1.0000 -0.1607593252
C   C402      1.0  0.21750  0.51289  0.97627  1.0000 -0.1607593252
C   C403      1.0  0.78250  0.98711  0.47627  1.0000 -0.1607593252
C   C404      1.0  0.21750  0.48711  0.52373  1.0000 -0.1607593252
C   C405      1.0  0.21750  0.98711  0.97627  1.0000 -0.1607593252
C   C406      1.0  0.78250  0.48711  0.02373  1.0000 -0.1607593252
C   C407      1.0  0.21750  0.01289  0.52373  1.0000 -0.1607593252
C   C408      1.0  0.78250  0.51289  0.47627  1.0000 -0.1607593252
C   C409      1.0  0.85690  0.03172  0.01000  1.0000 -0.150630933
C   C410      1.0  0.14310  0.53172  0.99000  1.0000 -0.150630933
C   C411      1.0  0.85690  0.96828  0.49000  1.0000 -0.150630933
C   C412      1.0  0.14310  0.46828  0.51000  1.0000 -0.150630933
C   C413      1.0  0.14310  0.96828  0.99000  1.0000 -0.150630933
C   C414      1.0  0.85690  0.46828  0.01000  1.0000 -0.150630933
C   C415      1.0  0.14310  0.03172  0.51000  1.0000 -0.150630933
C   C416      1.0  0.85690  0.53172  0.49000  1.0000 -0.150630933
C   C417      1.0  0.90540  0.05510  0.02840  1.0000 0.0738905342
C   C418      1.0  0.09460  0.55510  0.97160  1.0000 0.0738905342
C   C419      1.0  0.90540  0.94490  0.47160  1.0000 0.0738905342
C   C420      1.0  0.09460  0.44490  0.52840  1.0000 0.0738905342
C   C421      1.0  0.09460  0.94490  0.97160  1.0000 0.0738905342
C   C422      1.0  0.90540  0.44490  0.02840  1.0000 0.0738905342
C   C423      1.0  0.09460  0.05510  0.52840  1.0000 0.0738905342
C   C424      1.0  0.90540  0.55510  0.47160  1.0000 0.0738905342
C   C425      1.0  0.87080  0.06215  0.05799  1.0000 -0.1398596854
C   C426      1.0  0.12920  0.56215  0.94201  1.0000 -0.1398596854
C   C427      1.0  0.87080  0.93785  0.44201  1.0000 -0.1398596854
C   C428      1.0  0.12920  0.43785  0.55799  1.0000 -0.1398596854
C   C429      1.0  0.12920  0.93785  0.94201  1.0000 -0.1398596854
C   C430      1.0  0.87080  0.43785  0.05799  1.0000 -0.1398596854
C   C431      1.0  0.12920  0.06215  0.55799  1.0000 -0.1398596854
C   C432      1.0  0.87080  0.56215  0.44201  1.0000 -0.1398596854
C   C433      1.0  0.79730  0.04416  0.07001  1.0000 -0.1675664066
C   C434      1.0  0.20270  0.54416  0.92999  1.0000 -0.1675664066
C   C435      1.0  0.79730  0.95584  0.42999  1.0000 -0.1675664066
C   C436      1.0  0.20270  0.45584  0.57001  1.0000 -0.1675664066
C   C437      1.0  0.20270  0.95584  0.92999  1.0000 -0.1675664066
C   C438      1.0  0.79730  0.45584  0.07001  1.0000 -0.1675664066
C   C439      1.0  0.20270  0.04416  0.57001  1.0000 -0.1675664066
C   C440      1.0  0.79730  0.54416  0.42999  1.0000 -0.1675664066
C   C441      1.0  0.98770  0.07270  0.01650  1.0000 0.0794633384
C   C442      1.0  0.01230  0.57270  0.98350  1.0000 0.0794633384
C   C443      1.0  0.98770  0.92730  0.48350  1.0000 0.0794633384
C   C444      1.0  0.01230  0.42730  0.51650  1.0000 0.0794633384
C   C445      1.0  0.01230  0.92730  0.98350  1.0000 0.0794633384
C   C446      1.0  0.98770  0.42730  0.01650  1.0000 0.0794633384
C   C447      1.0  0.01230  0.07270  0.51650  1.0000 0.0794633384
C   C448      1.0  0.98770  0.57270  0.48350  1.0000 0.0794633384
C   C449      1.0  0.03220  0.05950  0.99150  1.0000 -0.1398596854
C   C450      1.0  0.96780  0.55950  0.00850  1.0000 -0.1398596854
C   C451      1.0  0.03220  0.94050  0.50850  1.0000 -0.1398596854
C   C452      1.0  0.96780  0.44050  0.49150  1.0000 -0.1398596854
C   C453      1.0  0.96780  0.94050  0.00850  1.0000 -0.1398596854
C   C454      1.0  0.03220  0.44050  0.99150  1.0000 -0.1398596854
C   C455      1.0  0.96780  0.05950  0.49150  1.0000 -0.1398596854
C   C456      1.0  0.03220  0.55950  0.50850  1.0000 -0.1398596854
C   C457      1.0  0.11120  0.07600  0.97880  1.0000 -0.0996460087
C   C458      1.0  0.88880  0.57600  0.02120  1.0000 -0.0996460087
C   C459      1.0  0.11120  0.92400  0.52120  1.0000 -0.0996460087
C   C460      1.0  0.88880  0.42400  0.47880  1.0000 -0.0996460087
C   C461      1.0  0.88880  0.92400  0.02120  1.0000 -0.0996460087
C   C462      1.0  0.11120  0.42400  0.97880  1.0000 -0.0996460087
C   C463      1.0  0.88880  0.07600  0.47880  1.0000 -0.0996460087
C   C464      1.0  0.11120  0.57600  0.52120  1.0000 -0.0996460087
C   C465      1.0  0.14000  0.10480  0.99380  1.0000 -0.02036205
C   C466      1.0  0.86000  0.60480  0.00620  1.0000 -0.02036205
C   C467      1.0  0.14000  0.89520  0.50620  1.0000 -0.02036205
C   C468      1.0  0.86000  0.39520  0.49380  1.0000 -0.02036205
C   C469      1.0  0.86000  0.89520  0.00620  1.0000 -0.02036205
C   C470      1.0  0.14000  0.39520  0.99380  1.0000 -0.02036205
C   C471      1.0  0.86000  0.10480  0.49380  1.0000 -0.02036205
C   C472      1.0  0.14000  0.60480  0.50620  1.0000 -0.02036205
C   C473      1.0  0.08780  0.12340  0.01560  1.0000 -0.0811861792
C   C474      1.0  0.91220  0.62340  0.98440  1.0000 -0.0811861792
C   C475      1.0  0.08780  0.87660  0.48440  1.0000 -0.0811861792
C   C476      1.0  0.91220  0.37660  0.51560  1.0000 -0.0811861792
C   C477      1.0  0.91220  0.87660  0.98440  1.0000 -0.0811861792
C   C478      1.0  0.08780  0.37660  0.01560  1.0000 -0.0811861792
C   C479      1.0  0.91220  0.12340  0.51560  1.0000 -0.0811861792
C   C480      1.0  0.08780  0.62340  0.48440  1.0000 -0.0811861792
C   C481      1.0  0.00400  0.10600  0.02610  1.0000 -0.150630933
C   C482      1.0  0.99600  0.60600  0.97390  1.0000 -0.150630933
C   C483      1.0  0.00400  0.89400  0.47390  1.0000 -0.150630933
C   C484      1.0  0.99600  0.39400  0.52610  1.0000 -0.150630933
C   C485      1.0  0.99600  0.89400  0.97390  1.0000 -0.150630933
C   C486      1.0  0.00400  0.39400  0.02610  1.0000 -0.150630933
C   C487      1.0  0.99600  0.10600  0.52610  1.0000 -0.150630933
C   C488      1.0  0.00400  0.60600  0.47390  1.0000 -0.150630933
C   C489      1.0  0.21900  0.11990  0.97590  1.0000 0.5194339872
C   C490      1.0  0.78100  0.61990  0.02410  1.0000 0.5194339872
C   C491      1.0  0.21900  0.88010  0.52410  1.0000 0.5194339872
C   C492      1.0  0.78100  0.38010  0.47590  1.0000 0.5194339872
C   C493      1.0  0.78100  0.88010  0.02410  1.0000 0.5194339872
C   C494      1.0  0.21900  0.38010  0.97590  1.0000 0.5194339872
C   C495      1.0  0.78100  0.11990  0.47590  1.0000 0.5194339872
C   C496      1.0  0.21900  0.61990  0.52410  1.0000 0.5194339872
O   O1        1.0  0.04280  0.21227  0.16952  1.0000 -0.5383319263
O   O2        1.0  0.95720  0.71227  0.83048  1.0000 -0.5383319263
O   O3        1.0  0.04280  0.78773  0.33048  1.0000 -0.5383319263
O   O4        1.0  0.95720  0.28773  0.66952  1.0000 -0.5383319263
O   O5        1.0  0.95720  0.78773  0.83048  1.0000 -0.5383319263
O   O6        1.0  0.04280  0.28773  0.16952  1.0000 -0.5383319263
O   O7        1.0  0.95720  0.21227  0.66952  1.0000 -0.5383319263
O   O8        1.0  0.04280  0.71227  0.33048  1.0000 -0.5383319263
O   O9        1.0  0.01730  0.21290  0.11660  1.0000 -0.5383319263
O   O10       1.0  0.98270  0.71290  0.88340  1.0000 -0.5383319263
O   O11       1.0  0.01730  0.78710  0.38340  1.0000 -0.5383319263
O   O12       1.0  0.98270  0.28710  0.61660  1.0000 -0.5383319263
O   O13       1.0  0.98270  0.78710  0.88340  1.0000 -0.5383319263
O   O14       1.0  0.01730  0.28710  0.11660  1.0000 -0.5383319263
O   O15       1.0  0.98270  0.21290  0.61660  1.0000 -0.5383319263
O   O16       1.0  0.01730  0.71290  0.38340  1.0000 -0.5383319263
O   O17       1.0  0.15580  0.78680  0.90880  1.0000 -0.5096616575
O   O18       1.0  0.84420  0.28680  0.09120  1.0000 -0.5096616575
O   O19       1.0  0.15580  0.21320  0.59120  1.0000 -0.5096616575
O   O20       1.0  0.84420  0.71320  0.40880  1.0000 -0.5096616575
O   O21       1.0  0.84420  0.21320  0.09120  1.0000 -0.5096616575
O   O22       1.0  0.15580  0.71320  0.90880  1.0000 -0.5096616575
O   O23       1.0  0.84420  0.78680  0.40880  1.0000 -0.5096616575
O   O24       1.0  0.15580  0.28680  0.59120  1.0000 -0.5096616575
O   O25       1.0  0.27220  0.78670  0.87651  1.0000 -0.5096616575
O   O26       1.0  0.72780  0.28670  0.12349  1.0000 -0.5096616575
O   O27       1.0  0.27220  0.21330  0.62349  1.0000 -0.5096616575
O   O28       1.0  0.72780  0.71330  0.37651  1.0000 -0.5096616575
O   O29       1.0  0.72780  0.21330  0.12349  1.0000 -0.5096616575
O   O30       1.0  0.27220  0.71330  0.87651  1.0000 -0.5096616575
O   O31       1.0  0.72780  0.78670  0.37651  1.0000 -0.5096616575
O   O32       1.0  0.27220  0.28670  0.62349  1.0000 -0.5096616575
O   O33       1.0  0.75400  0.78778  0.30876  1.0000 -0.5383319263
O   O34       1.0  0.24600  0.28778  0.69124  1.0000 -0.5383319263
O   O35       1.0  0.75400  0.21222  0.19124  1.0000 -0.5383319263
O   O36       1.0  0.24600  0.71222  0.80876  1.0000 -0.5383319263
O   O37       1.0  0.24600  0.21222  0.69124  1.0000 -0.5383319263
O   O38       1.0  0.75400  0.71222  0.30876  1.0000 -0.5383319263
O   O39       1.0  0.24600  0.78778  0.80876  1.0000 -0.5383319263
O   O40       1.0  0.75400  0.28778  0.19124  1.0000 -0.5383319263
O   O41       1.0  0.89140  0.78716  0.28840  1.0000 -0.5096616575
O   O42       1.0  0.10860  0.28716  0.71160  1.0000 -0.5096616575
O   O43       1.0  0.89140  0.21284  0.21160  1.0000 -0.5096616575
O   O44       1.0  0.10860  0.71284  0.78840  1.0000 -0.5096616575
O   O45       1.0  0.10860  0.21284  0.71160  1.0000 -0.5096616575
O   O46       1.0  0.89140  0.71284  0.28840  1.0000 -0.5096616575
O   O47       1.0  0.10860  0.78716  0.78840  1.0000 -0.5096616575
O   O48       1.0  0.89140  0.28716  0.21160  1.0000 -0.5096616575
O   O49       1.0  0.24310  0.15010  0.99400  1.0000 -0.5499779984
O   O50       1.0  0.75690  0.65010  0.00600  1.0000 -0.5499779984
O   O51       1.0  0.24310  0.84990  0.50600  1.0000 -0.5499779984
O   O52       1.0  0.75690  0.34990  0.49400  1.0000 -0.5499779984
O   O53       1.0  0.75690  0.84990  0.00600  1.0000 -0.5499779984
O   O54       1.0  0.24310  0.34990  0.99400  1.0000 -0.5499779984
O   O55       1.0  0.75690  0.15010  0.49400  1.0000 -0.5499779984
O   O56       1.0  0.24310  0.65010  0.50600  1.0000 -0.5499779984
O   O57       1.0  0.25650  0.11200  0.95290  1.0000 -0.4508356779
O   O58       1.0  0.74350  0.61200  0.04710  1.0000 -0.4555071994
O   O59       1.0  0.25650  0.88800  0.54710  1.0000 -0.4555071994
O   O60       1.0  0.74350  0.38800  0.45290  1.0000 -0.4508356779
O   O61       1.0  0.74350  0.88800  0.04710  1.0000 -0.4555071994
O   O62       1.0  0.25650  0.38800  0.95290  1.0000 -0.4508356779
O   O63       1.0  0.74350  0.11200  0.45290  1.0000 -0.4508356779
O   O64       1.0  0.25650  0.61200  0.54710  1.0000 -0.4555071994
O   O65       1.0  0.87950  0.25000  0.15085  1.0000 -0.9222155615
O   O66       1.0  0.12050  0.75000  0.84915  1.0000 -0.9222155615
O   O67       1.0  0.87950  0.75000  0.34915  1.0000 -0.9222155615
O   O68       1.0  0.12050  0.25000  0.65085  1.0000 -0.9222155615
