# DDEC6 charges by PACMAN v1.1 (https://github.com/mtap-research/PACMAN-charge/)
data_2014[Zn][dia]3[ASR]6
_chemical_formula_sum              "Zn2 H32 C44 N12 O4"
_cell_length_a       7.8005
_cell_length_b       11.2947
_cell_length_c       13.1552
_cell_angle_alpha    82.719
_cell_angle_beta     80.499
_cell_angle_gamma    83.194

_symmetry_space_group_name_H-M    "P 1"
_symmetry_Int_Tables_number       1

loop_
  _symmetry_equiv_pos_as_xyz
  'x, y, z'

loop_
  _atom_site_type_symbol
  _atom_site_label
  _atom_site_symmetry_multiplicity
  _atom_site_fract_x
  _atom_site_fract_y
  _atom_site_fract_z
  _atom_site_occupancy
  _atom_site_charge
Zn  Zn1       1.0  0.71638  0.76470  0.73578  1.0000 0.7091727662
Zn  Zn2       1.0  0.28362  0.23530  0.26422  1.0000 0.7091727662
H   H1        1.0  0.52860  0.02090  0.75720  1.0000 0.1017823252
H   H2        1.0  0.47140  0.97910  0.24280  1.0000 0.1017823252
H   H3        1.0  0.42560  0.79330  0.57970  1.0000 0.1101833549
H   H4        1.0  0.57440  0.20670  0.42030  1.0000 0.1101833549
H   H5        1.0  0.24780  0.88540  0.43350  1.0000 0.1101833549
H   H6        1.0  0.75220  0.11460  0.56650  1.0000 0.1101833549
H   H7        1.0  0.98660  0.08080  0.65450  1.0000 0.1180142953
H   H8        1.0  0.01340  0.91920  0.34550  1.0000 0.1180142953
H   H9        1.0  0.78900  0.72240  0.49780  1.0000 0.1180142953
H   H10       1.0  0.21100  0.27760  0.50220  1.0000 0.1180142953
H   H11       1.0  0.10190  0.62680  0.70370  1.0000 0.1293209153
H   H12       1.0  0.89810  0.37320  0.29630  1.0000 0.1293209153
H   H13       1.0  0.34400  0.46520  0.66390  1.0000 0.1101833549
H   H14       1.0  0.65600  0.53480  0.33610  1.0000 0.1101833549
H   H15       1.0  0.37230  0.62140  0.37230  1.0000 0.1101833549
H   H16       1.0  0.62770  0.37860  0.62770  1.0000 0.1101833549
H   H17       1.0  0.71780  0.47920  0.79030  1.0000 0.1017823252
H   H18       1.0  0.28220  0.52080  0.20970  1.0000 0.1017823252
H   H19       1.0  0.34800  0.73060  0.87140  1.0000 0.1391721549
H   H20       1.0  0.65200  0.26940  0.12860  1.0000 0.1391721549
H   H21       1.0  0.04390  0.68360  0.90570  1.0000 0.1101833549
H   H22       1.0  0.95610  0.31640  0.09430  1.0000 0.1101833549
H   H23       1.0  0.23130  0.35280  0.01080  1.0000 0.1180142953
H   H24       1.0  0.76870  0.64720  0.98920  1.0000 0.1101833549
H   H25       1.0  0.12370  0.90570  0.85540  1.0000 0.1101833549
H   H26       1.0  0.87630  0.09430  0.14460  1.0000 0.1101833549
H   H27       1.0  0.70090  0.01320  0.05210  1.0000 0.1180142953
H   H28       1.0  0.29910  0.98680  0.94790  1.0000 0.1180142953
H   H29       1.0  0.06060  0.63890  0.41240  1.0000 0.281053375
H   H30       1.0  0.93940  0.36110  0.58760  1.0000 0.281053375
H   H31       1.0  0.47100  0.38600  0.87860  1.0000 0.2952864873
H   H32       1.0  0.52900  0.61400  0.12140  1.0000 0.2952864873
C   C1        1.0  0.47590  0.98540  0.71190  1.0000 0.1636284995
C   C2        1.0  0.52410  0.01460  0.28810  1.0000 0.1636284995
C   C3        1.0  0.41880  0.86100  0.61430  1.0000 -0.1205758792
C   C4        1.0  0.58120  0.13900  0.38570  1.0000 -0.1205758792
C   C5        1.0  0.29390  0.95550  0.60910  1.0000 0.1101833549
C   C6        1.0  0.70610  0.04450  0.39090  1.0000 0.1101833549
C   C7        1.0  0.14290  0.97820  0.55380  1.0000 0.0648697722
C   C8        1.0  0.85710  0.02180  0.44620  1.0000 0.0648697722
C   C9        1.0  0.14780  0.93140  0.46050  1.0000 -0.1514479113
C   C10       1.0  0.85220  0.06860  0.53950  1.0000 -0.1514479113
C   C11       1.0  0.99220  0.04810  0.59250  1.0000 -0.1373338853
C   C12       1.0  0.00780  0.95190  0.40750  1.0000 -0.1373338853
C   C13       1.0  0.88650  0.69280  0.52870  1.0000 0.1293209153
C   C14       1.0  0.11350  0.30720  0.47130  1.0000 0.1293209153
C   C15       1.0  0.05890  0.64000  0.64100  1.0000 -0.1008178994
C   C16       1.0  0.94110  0.36000  0.35900  1.0000 -0.1008178994
C   C17       1.0  0.14930  0.61120  0.54930  1.0000 0.0863342467
C   C18       1.0  0.85070  0.38880  0.45070  1.0000 0.0863342467
C   C19       1.0  0.32850  0.55420  0.52280  1.0000 0.0463459413
C   C20       1.0  0.67150  0.44580  0.47720  1.0000 0.0463459413
C   C21       1.0  0.40640  0.48000  0.59770  1.0000 -0.1573703331
C   C22       1.0  0.59360  0.52000  0.40230  1.0000 -0.1573703331
C   C23       1.0  0.42310  0.57300  0.42420  1.0000 -0.1779059512
C   C24       1.0  0.57690  0.42700  0.57580  1.0000 -0.1779059512
C   C25       1.0  0.61210  0.51830  0.81820  1.0000 0.1101833549
C   C26       1.0  0.38790  0.48170  0.18180  1.0000 0.1101833549
C   C27       1.0  0.40830  0.65560  0.86270  1.0000 -0.1008178994
C   C28       1.0  0.59170  0.34440  0.13730  1.0000 -0.1008178994
C   C29       1.0  0.34190  0.54850  0.89550  1.0000 0.1017823252
C   C30       1.0  0.65810  0.45150  0.10450  1.0000 0.1017823252
C   C31       1.0  0.16840  0.52210  0.94890  1.0000 0.0406989302
C   C32       1.0  0.83160  0.47790  0.05110  1.0000 0.0406989302
C   C33       1.0  0.02670  0.60950  0.94360  1.0000 -0.1373338853
C   C34       1.0  0.97330  0.39050  0.05640  1.0000 -0.1373338853
C   C35       1.0  0.13880  0.41230  0.00620  1.0000 -0.1514479113
C   C36       1.0  0.86120  0.58770  0.99380  1.0000 -0.1514479113
C   C37       1.0  0.78050  0.89000  0.88970  1.0000 0.5387834716
C   C38       1.0  0.21950  0.11000  0.11030  1.0000 0.5387834716
C   C39       1.0  0.89510  0.94850  0.94520  1.0000 -0.0235917731
C   C40       1.0  0.10490  0.05150  0.05480  1.0000 -0.0235917731
C   C41       1.0  0.07370  0.94310  0.91390  1.0000 -0.1070789178
C   C42       1.0  0.92630  0.05690  0.08610  1.0000 -0.1070789178
C   C43       1.0  0.82130  0.00730  0.03140  1.0000 -0.1008178994
C   C44       1.0  0.17870  0.99270  0.96860  1.0000 -0.1008178994
N   N1        1.0  0.53360  0.88010  0.67800  1.0000 -0.3106331569
N   N2        1.0  0.46640  0.11990  0.32200  1.0000 -0.3106331569
N   N3        1.0  0.33240  0.03450  0.67280  1.0000 -0.3561334503
N   N4        1.0  0.66760  0.96550  0.32720  1.0000 -0.3534587813
N   N5        1.0  0.89380  0.69160  0.62820  1.0000 -0.284452219
N   N6        1.0  0.10620  0.30840  0.37180  1.0000 -0.284452219
N   N7        1.0  0.03770  0.64590  0.47780  1.0000 -0.237871882
N   N8        1.0  0.96230  0.35410  0.52220  1.0000 -0.237871882
N   N9        1.0  0.57910  0.63570  0.81440  1.0000 -0.2914365572
N   N10       1.0  0.42090  0.36430  0.18560  1.0000 -0.2914365572
N   N11       1.0  0.47510  0.46230  0.86710  1.0000 -0.2339731497
N   N12       1.0  0.52490  0.53770  0.13290  1.0000 -0.2339731497
O   O1        1.0  0.62580  0.88130  0.92530  1.0000 -0.5447722566
O   O2        1.0  0.37420  0.11870  0.07470  1.0000 -0.5447722566
O   O3        1.0  0.85670  0.84900  0.80534  1.0000 -0.5544675183
O   O4        1.0  0.14330  0.15100  0.19466  1.0000 -0.5544675183
