# DDEC6 charges by PACMAN v1.1 (https://github.com/mtap-research/PACMAN-charge/)
data_2014[Cu][acs]3[ASR]5
_chemical_formula_sum              "Cu6 H18 C18 O36"
_cell_length_a       7.3256
_cell_length_b       7.3256
_cell_length_c       24.3944
_cell_angle_alpha    90
_cell_angle_beta     90
_cell_angle_gamma    120

_symmetry_space_group_name_H-M    "P 1"
_symmetry_Int_Tables_number       1

loop_
  _symmetry_equiv_pos_as_xyz
  'x, y, z'

loop_
  _atom_site_type_symbol
  _atom_site_label
  _atom_site_symmetry_multiplicity
  _atom_site_fract_x
  _atom_site_fract_y
  _atom_site_fract_z
  _atom_site_occupancy
  _atom_site_charge
Cu  Cu1       1.0  0.36473  0.68236  0.08333  1.0000 0.9181698599
Cu  Cu2       1.0  0.31764  0.68236  0.41667  1.0000 0.9181698599
Cu  Cu3       1.0  0.31764  0.63527  0.75000  1.0000 0.9181698599
Cu  Cu4       1.0  0.63527  0.31764  0.58333  1.0000 0.9181698599
Cu  Cu5       1.0  0.68236  0.31764  0.91667  1.0000 0.9181698599
Cu  Cu6       1.0  0.68236  0.36473  0.25000  1.0000 0.9181698599
H   H1        1.0  0.60110  0.60110  0.16667  1.0000 0.1233467597
H   H2        1.0  0.39890  0.00000  0.50000  1.0000 0.1233467597
H   H3        1.0  0.00000  0.39890  0.83333  1.0000 0.1233467597
H   H4        1.0  0.39890  0.39890  0.66667  1.0000 0.1233467597
H   H5        1.0  0.60110  0.00000  0.00000  1.0000 0.1233467597
H   H6        1.0  0.00000  0.60110  0.33333  1.0000 0.1233467597
H   H7        1.0  0.03500  0.55890  0.99680  1.0000 0.1333251584
H   H8        1.0  0.44110  0.47610  0.33013  1.0000 0.1333251584
H   H9        1.0  0.52390  0.96500  0.66347  1.0000 0.1333251584
H   H10       1.0  0.96500  0.44110  0.49680  1.0000 0.1333251584
H   H11       1.0  0.55890  0.52390  0.83013  1.0000 0.1333251584
H   H12       1.0  0.47610  0.03500  0.16347  1.0000 0.1333251584
H   H13       1.0  0.55890  0.03500  0.33653  1.0000 0.1333251584
H   H14       1.0  0.47610  0.44110  0.00320  1.0000 0.1333251584
H   H15       1.0  0.96500  0.52390  0.66987  1.0000 0.1333251584
H   H16       1.0  0.44110  0.96500  0.83653  1.0000 0.1333251584
H   H17       1.0  0.52390  0.55890  0.50320  1.0000 0.1333251584
H   H18       1.0  0.03500  0.47610  0.16987  1.0000 0.1333251584
C   C1        1.0  0.47420  0.47420  0.16667  1.0000 0.4991044308
C   C2        1.0  0.52580  0.00000  0.50000  1.0000 0.4991044308
C   C3        1.0  0.00000  0.52580  0.83333  1.0000 0.4991044308
C   C4        1.0  0.52580  0.52580  0.66667  1.0000 0.4991044308
C   C5        1.0  0.47420  0.00000  0.00000  1.0000 0.4991044308
C   C6        1.0  0.00000  0.47420  0.33333  1.0000 0.4991044308
C   C7        1.0  0.03340  0.43130  0.99870  1.0000 0.4991044308
C   C8        1.0  0.56870  0.60210  0.33203  1.0000 0.4991044308
C   C9        1.0  0.39790  0.96660  0.66537  1.0000 0.4991044308
C   C10       1.0  0.96660  0.56870  0.49870  1.0000 0.4991044308
C   C11       1.0  0.43130  0.39790  0.83203  1.0000 0.4991044308
C   C12       1.0  0.60210  0.03340  0.16537  1.0000 0.4991044308
C   C13       1.0  0.43130  0.03340  0.33463  1.0000 0.4991044308
C   C14       1.0  0.60210  0.56870  0.00130  1.0000 0.4991044308
C   C15       1.0  0.96660  0.39790  0.66797  1.0000 0.4991044308
C   C16       1.0  0.56870  0.96660  0.83463  1.0000 0.4991044308
C   C17       1.0  0.39790  0.43130  0.50130  1.0000 0.4991044308
C   C18       1.0  0.03340  0.60210  0.16797  1.0000 0.4991044308
O   O1        1.0  0.33830  0.45130  0.13233  1.0000 -0.4601961199
O   O2        1.0  0.54870  0.88700  0.46566  1.0000 -0.4601961199
O   O3        1.0  0.11300  0.66170  0.79900  1.0000 -0.4601961199
O   O4        1.0  0.66170  0.54870  0.63233  1.0000 -0.4601961199
O   O5        1.0  0.45130  0.11300  0.96566  1.0000 -0.4601961199
O   O6        1.0  0.88700  0.33830  0.29900  1.0000 -0.4601961199
O   O7        1.0  0.45130  0.33830  0.20100  1.0000 -0.4601961199
O   O8        1.0  0.88700  0.54870  0.86767  1.0000 -0.4601961199
O   O9        1.0  0.66170  0.11300  0.53434  1.0000 -0.4601961199
O   O10       1.0  0.54870  0.66170  0.70100  1.0000 -0.4601961199
O   O11       1.0  0.11300  0.45130  0.36767  1.0000 -0.4601961199
O   O12       1.0  0.33830  0.88700  0.03434  1.0000 -0.4601961199
O   O13       1.0  0.92110  0.29790  0.96460  1.0000 -0.4823478745
O   O14       1.0  0.70210  0.62320  0.29793  1.0000 -0.4823478745
O   O15       1.0  0.37680  0.07890  0.63127  1.0000 -0.4823478745
O   O16       1.0  0.07890  0.70210  0.46460  1.0000 -0.4823478745
O   O17       1.0  0.29790  0.37680  0.79793  1.0000 -0.4823478745
O   O18       1.0  0.62320  0.92110  0.13127  1.0000 -0.4823478745
O   O19       1.0  0.29790  0.92110  0.36873  1.0000 -0.4823478745
O   O20       1.0  0.62320  0.70210  0.03540  1.0000 -0.4823478745
O   O21       1.0  0.07890  0.37680  0.70207  1.0000 -0.4823478745
O   O22       1.0  0.70210  0.07890  0.86873  1.0000 -0.4823478745
O   O23       1.0  0.37680  0.29790  0.53540  1.0000 -0.4823478745
O   O24       1.0  0.92110  0.62320  0.20207  1.0000 -0.4823478745
O   O25       1.0  0.14160  0.41920  0.03432  1.0000 -0.4601961199
O   O26       1.0  0.58080  0.72240  0.36765  1.0000 -0.4601961199
O   O27       1.0  0.27760  0.85840  0.70099  1.0000 -0.4601961199
O   O28       1.0  0.85840  0.58080  0.53432  1.0000 -0.4601961199
O   O29       1.0  0.41920  0.27760  0.86765  1.0000 -0.4601961199
O   O30       1.0  0.72240  0.14160  0.20099  1.0000 -0.4601961199
O   O31       1.0  0.41920  0.14160  0.29901  1.0000 -0.4601961199
O   O32       1.0  0.72240  0.58080  0.96568  1.0000 -0.4601961199
O   O33       1.0  0.85840  0.27760  0.63235  1.0000 -0.4601961199
O   O34       1.0  0.58080  0.85840  0.79901  1.0000 -0.4601961199
O   O35       1.0  0.27760  0.41920  0.46568  1.0000 -0.4601961199
O   O36       1.0  0.14160  0.72240  0.13235  1.0000 -0.4601961199
