# DDEC6 charges by PACMAN v1.1 (https://github.com/mtap-research/PACMAN-charge/)
data_2014[Cd][pcu]3[ASR]5
_chemical_formula_sum              "Cd6 H32 C48 N52"
_cell_length_a       10.974
_cell_length_b       22.669
_cell_length_c       14.106
_cell_angle_alpha    90
_cell_angle_beta     96.637
_cell_angle_gamma    90

_symmetry_space_group_name_H-M    "P 1"
_symmetry_Int_Tables_number       1

loop_
  _symmetry_equiv_pos_as_xyz
  'x, y, z'

loop_
  _atom_site_type_symbol
  _atom_site_label
  _atom_site_symmetry_multiplicity
  _atom_site_fract_x
  _atom_site_fract_y
  _atom_site_fract_z
  _atom_site_occupancy
  _atom_site_charge
Cd  Cd1       1.0  0.00000  0.00000  0.00000  1.0000 0.6804690831
Cd  Cd2       1.0  0.00000  0.50000  0.50000  1.0000 0.6804690831
Cd  Cd3       1.0  0.13181  0.92677  0.22194  1.0000 0.6515048318
Cd  Cd4       1.0  0.86819  0.42677  0.27806  1.0000 0.6515048318
Cd  Cd5       1.0  0.86819  0.07323  0.77806  1.0000 0.6515048318
Cd  Cd6       1.0  0.13181  0.57323  0.72194  1.0000 0.6515048318
H   H1        1.0  0.32240  0.95560  0.08330  1.0000 0.1021208786
H   H2        1.0  0.67760  0.45560  0.41670  1.0000 0.1021208786
H   H3        1.0  0.67760  0.04440  0.91670  1.0000 0.1021208786
H   H4        1.0  0.32240  0.54440  0.58330  1.0000 0.1021208786
H   H5        1.0  0.52160  0.95950  0.05750  1.0000 0.1418498479
H   H6        1.0  0.47840  0.45950  0.44250  1.0000 0.1418498479
H   H7        1.0  0.47840  0.04050  0.94250  1.0000 0.1418498479
H   H8        1.0  0.52160  0.54050  0.55750  1.0000 0.1418498479
H   H9        1.0  0.61370  0.89360  0.31710  1.0000 0.1306551569
H   H10       1.0  0.38630  0.39360  0.18290  1.0000 0.1306551569
H   H11       1.0  0.38630  0.10640  0.68290  1.0000 0.1306551569
H   H12       1.0  0.61370  0.60640  0.81710  1.0000 0.1306551569
H   H13       1.0  0.41070  0.89320  0.33720  1.0000 0.1074707202
H   H14       1.0  0.58930  0.39320  0.16280  1.0000 0.1074707202
H   H15       1.0  0.58930  0.10680  0.66280  1.0000 0.1074707202
H   H16       1.0  0.41070  0.60680  0.83720  1.0000 0.1074707202
H   H17       1.0  0.04930  0.70630  0.70110  1.0000 0.1074707202
H   H18       1.0  0.95070  0.20630  0.79890  1.0000 0.1074707202
H   H19       1.0  0.95070  0.29370  0.29890  1.0000 0.1074707202
H   H20       1.0  0.04930  0.79370  0.20110  1.0000 0.1074707202
H   H21       1.0  0.04310  0.79310  0.77910  1.0000 0.1471355133
H   H22       1.0  0.95690  0.29310  0.72090  1.0000 0.1471355133
H   H23       1.0  0.95690  0.20690  0.22090  1.0000 0.1471355133
H   H24       1.0  0.04310  0.70690  0.27910  1.0000 0.1471355133
H   H25       1.0  0.20020  0.71350  0.01460  1.0000 0.1418498479
H   H26       1.0  0.79980  0.21350  0.48540  1.0000 0.1418498479
H   H27       1.0  0.79980  0.28650  0.98540  1.0000 0.1418498479
H   H28       1.0  0.20020  0.78650  0.51460  1.0000 0.1418498479
H   H29       1.0  0.19800  0.62840  0.92820  1.0000 0.1074707202
H   H30       1.0  0.80200  0.12840  0.57180  1.0000 0.1074707202
H   H31       1.0  0.80200  0.37160  0.07180  1.0000 0.1074707202
H   H32       1.0  0.19800  0.87160  0.42820  1.0000 0.1074707202
C   C1        1.0  0.38190  0.94350  0.13170  1.0000 0.0601934894
C   C2        1.0  0.61810  0.44350  0.36830  1.0000 0.0601934894
C   C3        1.0  0.61810  0.05650  0.86830  1.0000 0.0601934894
C   C4        1.0  0.38190  0.55650  0.63170  1.0000 0.0601934894
C   C5        1.0  0.50130  0.94580  0.11580  1.0000 -0.16066208
C   C6        1.0  0.49870  0.44580  0.38420  1.0000 -0.16066208
C   C7        1.0  0.49870  0.05420  0.88420  1.0000 -0.16066208
C   C8        1.0  0.50130  0.55420  0.61580  1.0000 -0.16066208
C   C9        1.0  0.59230  0.92810  0.18440  1.0000 0.0874494077
C   C10       1.0  0.40770  0.42810  0.31560  1.0000 0.0874494077
C   C11       1.0  0.40770  0.07190  0.81560  1.0000 0.0874494077
C   C12       1.0  0.59230  0.57190  0.68440  1.0000 0.0874494077
C   C13       1.0  0.55590  0.90720  0.26860  1.0000 -0.16066208
C   C14       1.0  0.44410  0.40720  0.23140  1.0000 -0.16066208
C   C15       1.0  0.44410  0.09280  0.73140  1.0000 -0.16066208
C   C16       1.0  0.55590  0.59280  0.76860  1.0000 -0.16066208
C   C17       1.0  0.43360  0.90680  0.27970  1.0000 0.0601934894
C   C18       1.0  0.56640  0.40680  0.22030  1.0000 0.0601934894
C   C19       1.0  0.56640  0.09320  0.72030  1.0000 0.0601934894
C   C20       1.0  0.43360  0.59320  0.77970  1.0000 0.0601934894
C   C21       1.0  0.72030  0.93380  0.16930  1.0000 0.2226687134
C   C22       1.0  0.27970  0.43380  0.33070  1.0000 0.2226687134
C   C23       1.0  0.27970  0.06620  0.83070  1.0000 0.2226687134
C   C24       1.0  0.72030  0.56620  0.66930  1.0000 0.2226687134
C   C25       1.0  0.07970  0.70770  0.76540  1.0000 0.0601934894
C   C26       1.0  0.92030  0.20770  0.73460  1.0000 0.0601934894
C   C27       1.0  0.92030  0.29230  0.23460  1.0000 0.0601934894
C   C28       1.0  0.07970  0.79230  0.26540  1.0000 0.0601934894
C   C29       1.0  0.07610  0.76000  0.81130  1.0000 -0.16066208
C   C30       1.0  0.92390  0.26000  0.68870  1.0000 -0.16066208
C   C31       1.0  0.92390  0.24000  0.18870  1.0000 -0.16066208
C   C32       1.0  0.07610  0.74000  0.31130  1.0000 -0.16066208
C   C33       1.0  0.12180  0.76360  0.90610  1.0000 0.0782664404
C   C34       1.0  0.87820  0.26360  0.59390  1.0000 0.0782664404
C   C35       1.0  0.87820  0.23640  0.09390  1.0000 0.0782664404
C   C36       1.0  0.12180  0.73640  0.40610  1.0000 0.0782664404
C   C37       1.0  0.16840  0.71320  0.95050  1.0000 -0.173421172
C   C38       1.0  0.83160  0.21320  0.54950  1.0000 -0.173421172
C   C39       1.0  0.83160  0.28680  0.04950  1.0000 -0.173421172
C   C40       1.0  0.16840  0.78680  0.45050  1.0000 -0.173421172
C   C41       1.0  0.16670  0.66240  0.89770  1.0000 0.0361960581
C   C42       1.0  0.83330  0.16240  0.60230  1.0000 0.0361960581
C   C43       1.0  0.83330  0.33760  0.10230  1.0000 0.0361960581
C   C44       1.0  0.16670  0.83760  0.39770  1.0000 0.0361960581
C   C45       1.0  0.11740  0.81860  0.95930  1.0000 0.2310505607
C   C46       1.0  0.88260  0.31860  0.54070  1.0000 0.2310505607
C   C47       1.0  0.88260  0.18140  0.04070  1.0000 0.2310505607
C   C48       1.0  0.11740  0.68140  0.45930  1.0000 0.2310505607
N   N1        1.0  0.34600  0.92470  0.21360  1.0000 -0.2204960413
N   N2        1.0  0.65400  0.42470  0.28640  1.0000 -0.2204960413
N   N3        1.0  0.65400  0.07530  0.78640  1.0000 -0.2204960413
N   N4        1.0  0.34600  0.57530  0.71360  1.0000 -0.2204960413
N   N5        1.0  0.75320  0.96020  0.09100  1.0000 -0.2601924441
N   N6        1.0  0.24680  0.46020  0.40900  1.0000 -0.2601924441
N   N7        1.0  0.24680  0.03980  0.90900  1.0000 -0.2601924441
N   N8        1.0  0.75320  0.53980  0.59100  1.0000 -0.2601924441
N   N9        1.0  0.87450  0.95700  0.10240  1.0000 -0.0575840748
N   N10       1.0  0.12550  0.45700  0.39760  1.0000 -0.0575840748
N   N11       1.0  0.12550  0.04300  0.89760  1.0000 -0.0575840748
N   N12       1.0  0.87450  0.54300  0.60240  1.0000 -0.0575840748
N   N13       1.0  0.91280  0.93070  0.18470  1.0000 -0.0530511118
N   N14       1.0  0.08720  0.43070  0.31530  1.0000 -0.0530511118
N   N15       1.0  0.08720  0.06930  0.81530  1.0000 -0.0530511118
N   N16       1.0  0.91280  0.56930  0.68470  1.0000 -0.0530511118
N   N17       1.0  0.81710  0.91520  0.22770  1.0000 -0.2736011609
N   N18       1.0  0.18290  0.41520  0.27230  1.0000 -0.2736011609
N   N19       1.0  0.18290  0.08480  0.77230  1.0000 -0.2736011609
N   N20       1.0  0.81710  0.58480  0.72770  1.0000 -0.2736011609
N   N21       1.0  0.12380  0.65840  0.80630  1.0000 -0.2130533993
N   N22       1.0  0.87620  0.15840  0.69370  1.0000 -0.2130533993
N   N23       1.0  0.87620  0.34160  0.19370  1.0000 -0.2130533993
N   N24       1.0  0.12380  0.84160  0.30630  1.0000 -0.2130533993
N   N25       1.0  0.07900  0.86920  0.91890  1.0000 -0.2601924441
N   N26       1.0  0.92100  0.36920  0.58110  1.0000 -0.2601924441
N   N27       1.0  0.92100  0.13080  0.08110  1.0000 -0.2601924441
N   N28       1.0  0.07900  0.63080  0.41890  1.0000 -0.2601924441
N   N29       1.0  0.08380  0.90680  0.99140  1.0000 -0.0575840748
N   N30       1.0  0.91620  0.40680  0.50860  1.0000 -0.0575840748
N   N31       1.0  0.91620  0.09320  0.00860  1.0000 -0.0575840748
N   N32       1.0  0.08380  0.59320  0.49140  1.0000 -0.0575840748
N   N33       1.0  0.12190  0.87880  0.07150  1.0000 -0.0575840748
N   N34       1.0  0.87810  0.37880  0.42850  1.0000 -0.0575840748
N   N35       1.0  0.87810  0.12120  0.92850  1.0000 -0.0575840748
N   N36       1.0  0.12190  0.62120  0.57150  1.0000 -0.0575840748
N   N37       1.0  0.14430  0.82270  0.05310  1.0000 -0.2736011609
N   N38       1.0  0.85570  0.32270  0.44690  1.0000 -0.2736011609
N   N39       1.0  0.85570  0.17730  0.94690  1.0000 -0.2736011609
N   N40       1.0  0.14430  0.67730  0.55310  1.0000 -0.2736011609
N   N41       1.0  0.12880  0.01280  0.13850  1.0000 -0.51529372
N   N42       1.0  0.87120  0.51280  0.36150  1.0000 -0.51529372
N   N43       1.0  0.87120  0.98720  0.86150  1.0000 -0.51529372
N   N44       1.0  0.12880  0.48720  0.63850  1.0000 -0.5136653013
N   N45       1.0  0.18600  0.05500  0.16260  1.0000 0.4114490323
N   N46       1.0  0.81400  0.55500  0.33740  1.0000 0.4114490323
N   N47       1.0  0.81400  0.94500  0.83740  1.0000 0.4114490323
N   N48       1.0  0.18600  0.44500  0.66260  1.0000 0.4114490323
N   N49       1.0  0.24010  0.09500  0.18770  1.0000 -0.3281894452
N   N50       1.0  0.75990  0.59500  0.31230  1.0000 -0.3281894452
N   N51       1.0  0.75990  0.90500  0.81230  1.0000 -0.3281894452
N   N52       1.0  0.24010  0.40500  0.68770  1.0000 -0.3281894452
