# DDEC6 charges by PACMAN v1.1 (https://github.com/mtap-research/PACMAN-charge/)
data_2014[Cu][bcu]3[ASR]10
_chemical_formula_sum              "Cu6 H32 C48 N52"
_cell_length_a       12.825
_cell_length_b       14.903
_cell_length_c       19.974
_cell_angle_alpha    90
_cell_angle_beta     127.041
_cell_angle_gamma    90

_symmetry_space_group_name_H-M    "P 1"
_symmetry_Int_Tables_number       1

loop_
  _symmetry_equiv_pos_as_xyz
  'x, y, z'

loop_
  _atom_site_type_symbol
  _atom_site_label
  _atom_site_symmetry_multiplicity
  _atom_site_fract_x
  _atom_site_fract_y
  _atom_site_fract_z
  _atom_site_occupancy
  _atom_site_charge
Cu  Cu1       1.0  0.00000  0.00000  0.00000  1.0000 0.5650400876
Cu  Cu2       1.0  0.00000  0.50000  0.50000  1.0000 0.563836193
Cu  Cu3       1.0  0.13627  0.19670  0.10749  1.0000 0.4893826454
Cu  Cu4       1.0  0.86373  0.69670  0.39251  1.0000 0.4893826454
Cu  Cu5       1.0  0.86373  0.80330  0.89251  1.0000 0.4893826454
Cu  Cu6       1.0  0.13627  0.30330  0.60749  1.0000 0.4893826454
H   H1        1.0  0.19410  0.37260  0.76650  1.0000 0.1086077335
H   H2        1.0  0.80590  0.87260  0.73350  1.0000 0.1086077335
H   H3        1.0  0.80590  0.62740  0.23350  1.0000 0.1086077335
H   H4        1.0  0.19410  0.12740  0.26650  1.0000 0.1086077335
H   H5        1.0  0.18860  0.32510  0.87350  1.0000 0.140806353
H   H6        1.0  0.81140  0.82510  0.62650  1.0000 0.140806353
H   H7        1.0  0.81140  0.67490  0.12650  1.0000 0.140806353
H   H8        1.0  0.18860  0.17490  0.37350  1.0000 0.140806353
H   H9        1.0  0.05100  0.08950  0.75720  1.0000 0.1498121455
H   H10       1.0  0.94900  0.58950  0.74280  1.0000 0.1498121455
H   H11       1.0  0.94900  0.91050  0.24280  1.0000 0.1498121455
H   H12       1.0  0.05100  0.41050  0.25720  1.0000 0.1498121455
H   H13       1.0  0.06190  0.14330  0.65460  1.0000 0.1086077335
H   H14       1.0  0.93810  0.64330  0.84540  1.0000 0.1086077335
H   H15       1.0  0.93810  0.85670  0.34540  1.0000 0.1086077335
H   H16       1.0  0.06190  0.35670  0.15460  1.0000 0.1086077335
H   H17       1.0  0.40940  0.30660  0.75490  1.0000 0.1086077335
H   H18       1.0  0.59060  0.80660  0.74510  1.0000 0.1086077335
H   H19       1.0  0.59060  0.69340  0.24510  1.0000 0.1086077335
H   H20       1.0  0.40940  0.19340  0.25490  1.0000 0.1086077335
H   H21       1.0  0.59210  0.22050  0.82680  1.0000 0.1498121455
H   H22       1.0  0.40790  0.72050  0.67320  1.0000 0.1498121455
H   H23       1.0  0.40790  0.77950  0.17320  1.0000 0.1498121455
H   H24       1.0  0.59210  0.27950  0.32680  1.0000 0.1498121455
H   H25       1.0  0.40750  0.04370  0.63860  1.0000 0.140806353
H   H26       1.0  0.59250  0.54370  0.86140  1.0000 0.140806353
H   H27       1.0  0.59250  0.95630  0.36140  1.0000 0.140806353
H   H28       1.0  0.40750  0.45630  0.13860  1.0000 0.140806353
H   H29       1.0  0.22860  0.13650  0.57180  1.0000 0.1086077335
H   H30       1.0  0.77140  0.63650  0.92820  1.0000 0.1086077335
H   H31       1.0  0.77140  0.86350  0.42820  1.0000 0.1086077335
H   H32       1.0  0.22860  0.36350  0.07180  1.0000 0.1086077335
C   C1        1.0  0.16620  0.31460  0.76500  1.0000 0.0722937649
C   C2        1.0  0.83380  0.81460  0.73500  1.0000 0.0722937649
C   C3        1.0  0.83380  0.68540  0.23500  1.0000 0.0722937649
C   C4        1.0  0.16620  0.18540  0.26500  1.0000 0.0722937649
C   C5        1.0  0.16180  0.28650  0.82920  1.0000 -0.1689058496
C   C6        1.0  0.83820  0.78650  0.67080  1.0000 -0.1689058496
C   C7        1.0  0.83820  0.71350  0.17080  1.0000 -0.1689058496
C   C8        1.0  0.16180  0.21350  0.32920  1.0000 -0.1689058496
C   C9        1.0  0.11830  0.20210  0.82790  1.0000 0.0902885258
C   C10       1.0  0.88170  0.70210  0.67210  1.0000 0.0902885258
C   C11       1.0  0.88170  0.79790  0.17210  1.0000 0.0902885258
C   C12       1.0  0.11830  0.29790  0.32790  1.0000 0.0902885258
C   C13       1.0  0.08080  0.14740  0.76080  1.0000 -0.1689058496
C   C14       1.0  0.91920  0.64740  0.73920  1.0000 -0.1689058496
C   C15       1.0  0.91920  0.85260  0.23920  1.0000 -0.1689058496
C   C16       1.0  0.08080  0.35260  0.26080  1.0000 -0.1689058496
C   C17       1.0  0.08870  0.18030  0.69990  1.0000 0.0565161066
C   C18       1.0  0.91130  0.68030  0.80010  1.0000 0.0565161066
C   C19       1.0  0.91130  0.81970  0.30010  1.0000 0.0565161066
C   C20       1.0  0.08870  0.31970  0.19990  1.0000 0.0565161066
C   C21       1.0  0.11120  0.17020  0.89420  1.0000 0.2207698956
C   C22       1.0  0.88880  0.67020  0.60580  1.0000 0.2207698956
C   C23       1.0  0.88880  0.82980  0.10580  1.0000 0.2207698956
C   C24       1.0  0.11120  0.32980  0.39420  1.0000 0.2207698956
C   C25       1.0  0.40880  0.25260  0.73130  1.0000 0.0722937649
C   C26       1.0  0.59120  0.75260  0.76870  1.0000 0.0722937649
C   C27       1.0  0.59120  0.74740  0.26870  1.0000 0.0722937649
C   C28       1.0  0.40880  0.24740  0.23130  1.0000 0.0722937649
C   C29       1.0  0.51880  0.20120  0.77500  1.0000 -0.1689058496
C   C30       1.0  0.48120  0.70120  0.72500  1.0000 -0.1689058496
C   C31       1.0  0.48120  0.79880  0.22500  1.0000 -0.1689058496
C   C32       1.0  0.51880  0.29880  0.27500  1.0000 -0.1689058496
C   C33       1.0  0.52120  0.12060  0.74230  1.0000 0.0902885258
C   C34       1.0  0.47880  0.62060  0.75770  1.0000 0.0902885258
C   C35       1.0  0.47880  0.87940  0.25770  1.0000 0.0902885258
C   C36       1.0  0.52120  0.37940  0.24230  1.0000 0.0902885258
C   C37       1.0  0.41000  0.09680  0.66400  1.0000 -0.1787986808
C   C38       1.0  0.59000  0.59680  0.83600  1.0000 -0.1787986808
C   C39       1.0  0.59000  0.90320  0.33600  1.0000 -0.1787986808
C   C40       1.0  0.41000  0.40320  0.16400  1.0000 -0.1787986808
C   C41       1.0  0.30300  0.15320  0.62420  1.0000 0.0722937649
C   C42       1.0  0.69700  0.65320  0.87580  1.0000 0.0722937649
C   C43       1.0  0.69700  0.84680  0.37580  1.0000 0.0722937649
C   C44       1.0  0.30300  0.34680  0.12420  1.0000 0.0722937649
C   C45       1.0  0.63450  0.06040  0.79000  1.0000 0.2207698956
C   C46       1.0  0.36550  0.56040  0.71000  1.0000 0.2207698956
C   C47       1.0  0.36550  0.93960  0.21000  1.0000 0.2207698956
C   C48       1.0  0.63450  0.43960  0.29000  1.0000 0.2207698956
N   N1        1.0  0.13200  0.26160  0.70150  1.0000 -0.1962213308
N   N2        1.0  0.86800  0.76160  0.79850  1.0000 -0.1962213308
N   N3        1.0  0.86800  0.73840  0.29850  1.0000 -0.1962213308
N   N4        1.0  0.13200  0.23840  0.20150  1.0000 -0.1962213308
N   N5        1.0  0.15230  0.21840  0.96290  1.0000 -0.2697658927
N   N6        1.0  0.84770  0.71840  0.53710  1.0000 -0.2697658927
N   N7        1.0  0.84770  0.78160  0.03710  1.0000 -0.2697658927
N   N8        1.0  0.15230  0.28160  0.46290  1.0000 -0.2697658927
N   N9        1.0  0.12530  0.16610  0.00440  1.0000 -0.0303912129
N   N10       1.0  0.87470  0.66610  0.49560  1.0000 -0.0303912129
N   N11       1.0  0.87470  0.83390  0.99560  1.0000 -0.0303912129
N   N12       1.0  0.12530  0.33390  0.50440  1.0000 -0.0303912129
N   N13       1.0  0.06890  0.09150  0.96160  1.0000 -0.0185077295
N   N14       1.0  0.93110  0.59150  0.53840  1.0000 -0.0185077295
N   N15       1.0  0.93110  0.90850  0.03840  1.0000 -0.0185077295
N   N16       1.0  0.06890  0.40850  0.46160  1.0000 -0.0185077295
N   N17       1.0  0.05950  0.09240  0.89220  1.0000 -0.2473977
N   N18       1.0  0.94050  0.59240  0.60780  1.0000 -0.2473977
N   N19       1.0  0.94050  0.90760  0.10780  1.0000 -0.2473977
N   N20       1.0  0.05950  0.40760  0.39220  1.0000 -0.2473977
N   N21       1.0  0.30120  0.22990  0.65710  1.0000 -0.1931787919
N   N22       1.0  0.69880  0.72990  0.84290  1.0000 -0.1931787919
N   N23       1.0  0.69880  0.77010  0.34290  1.0000 -0.1931787919
N   N24       1.0  0.30120  0.27010  0.15710  1.0000 -0.1962213308
N   N25       1.0  0.74560  0.08450  0.86310  1.0000 -0.2473977
N   N26       1.0  0.25440  0.58450  0.63690  1.0000 -0.2473977
N   N27       1.0  0.25440  0.91550  0.13690  1.0000 -0.2473977
N   N28       1.0  0.74560  0.41550  0.36310  1.0000 -0.2473977
N   N29       1.0  0.81880  0.01210  0.88850  1.0000 -0.0303912129
N   N30       1.0  0.18120  0.51210  0.61150  1.0000 -0.0303912129
N   N31       1.0  0.18120  0.98790  0.11150  1.0000 -0.0303912129
N   N32       1.0  0.81880  0.48790  0.38850  1.0000 -0.0303912129
N   N33       1.0  0.75450  0.94560  0.83370  1.0000 -0.1009012924
N   N34       1.0  0.24550  0.44560  0.66630  1.0000 -0.1009012924
N   N35       1.0  0.24550  0.05440  0.16630  1.0000 -0.1009012924
N   N36       1.0  0.75450  0.55440  0.33370  1.0000 -0.1009012924
N   N37       1.0  0.63610  0.97520  0.77050  1.0000 -0.2764546216
N   N38       1.0  0.36390  0.47520  0.72950  1.0000 -0.2764546216
N   N39       1.0  0.36390  0.02480  0.22950  1.0000 -0.2764546216
N   N40       1.0  0.63610  0.52480  0.27050  1.0000 -0.2764546216
N   N41       1.0  0.97350  0.12610  0.05780  1.0000 -0.4675701798
N   N42       1.0  0.02650  0.62610  0.44220  1.0000 -0.4675701798
N   N43       1.0  0.02650  0.87390  0.94220  1.0000 -0.4675701798
N   N44       1.0  0.97350  0.37390  0.55780  1.0000 -0.4675701798
N   N45       1.0  0.90080  0.13780  0.07090  1.0000 0.4071274459
N   N46       1.0  0.09920  0.63780  0.42910  1.0000 0.4071274459
N   N47       1.0  0.09920  0.86220  0.92910  1.0000 0.4071274459
N   N48       1.0  0.90080  0.36220  0.57090  1.0000 0.4071274459
N   N49       1.0  0.83080  0.14530  0.08680  1.0000 -0.3245387316
N   N50       1.0  0.16920  0.64530  0.41320  1.0000 -0.3263748825
N   N51       1.0  0.16920  0.85470  0.91320  1.0000 -0.3245387316
N   N52       1.0  0.83080  0.35470  0.58680  1.0000 -0.3263748825
