# DDEC6 charges by PACMAN v1.1 (https://github.com/mtap-research/PACMAN-charge/)
data_2014[Mn][nan]3[ASR]16
_chemical_formula_sum              "Mn8 H24 C72 O48"
_cell_length_a       12.4275
_cell_length_b       14.796
_cell_length_c       16.6266
_cell_angle_alpha    90
_cell_angle_beta     90
_cell_angle_gamma    90

_symmetry_space_group_name_H-M    "P 1"
_symmetry_Int_Tables_number       1

loop_
  _symmetry_equiv_pos_as_xyz
  'x, y, z'

loop_
  _atom_site_type_symbol
  _atom_site_label
  _atom_site_symmetry_multiplicity
  _atom_site_fract_x
  _atom_site_fract_y
  _atom_site_fract_z
  _atom_site_occupancy
  _atom_site_charge
Mn  Mn1       1.0  0.51619  0.39548  0.57981  1.0000 1.0227241693
Mn  Mn2       1.0  0.48381  0.10452  0.07981  1.0000 1.0282091874
Mn  Mn3       1.0  0.98381  0.89548  0.42019  1.0000 1.0282091874
Mn  Mn4       1.0  0.01619  0.60452  0.92019  1.0000 1.0282091874
Mn  Mn5       1.0  0.48381  0.60452  0.42019  1.0000 1.0282091874
Mn  Mn6       1.0  0.51619  0.89548  0.92019  1.0000 1.0282091874
Mn  Mn7       1.0  0.01619  0.10452  0.57981  1.0000 1.0282091874
Mn  Mn8       1.0  0.98381  0.39548  0.07981  1.0000 1.0227241693
H   H1        1.0  0.76690  0.44280  0.78820  1.0000 0.1268895545
H   H2        1.0  0.23310  0.05720  0.28820  1.0000 0.1268895545
H   H3        1.0  0.73310  0.94280  0.21180  1.0000 0.1268895545
H   H4        1.0  0.26690  0.55720  0.71180  1.0000 0.1268895545
H   H5        1.0  0.23310  0.55720  0.21180  1.0000 0.1268895545
H   H6        1.0  0.76690  0.94280  0.71180  1.0000 0.1268895545
H   H7        1.0  0.26690  0.05720  0.78820  1.0000 0.1268895545
H   H8        1.0  0.73310  0.44280  0.28820  1.0000 0.1268895545
H   H9        1.0  0.74620  0.34360  0.01440  1.0000 0.1268895545
H   H10       1.0  0.25380  0.15640  0.51440  1.0000 0.1268895545
H   H11       1.0  0.75380  0.84360  0.98560  1.0000 0.1268895545
H   H12       1.0  0.24620  0.65640  0.48560  1.0000 0.1268895545
H   H13       1.0  0.25380  0.65640  0.98560  1.0000 0.1268895545
H   H14       1.0  0.74620  0.84360  0.48560  1.0000 0.1268895545
H   H15       1.0  0.24620  0.15640  0.01440  1.0000 0.1268895545
H   H16       1.0  0.75380  0.34360  0.51440  1.0000 0.1268895545
H   H17       1.0  0.52440  0.27380  0.84690  1.0000 0.1268895545
H   H18       1.0  0.47560  0.22620  0.34690  1.0000 0.1268895545
H   H19       1.0  0.97560  0.77380  0.15310  1.0000 0.1268895545
H   H20       1.0  0.02440  0.72620  0.65310  1.0000 0.1268895545
H   H21       1.0  0.47560  0.72620  0.15310  1.0000 0.1268895545
H   H22       1.0  0.52440  0.77380  0.65310  1.0000 0.1268895545
H   H23       1.0  0.02440  0.22620  0.84690  1.0000 0.1268895545
H   H24       1.0  0.97560  0.27380  0.34690  1.0000 0.1268895545
C   C1        1.0  0.57640  0.23090  0.99670  1.0000 0.517620313
C   C2        1.0  0.42360  0.26910  0.49670  1.0000 0.517620313
C   C3        1.0  0.92360  0.73090  0.00330  1.0000 0.517620313
C   C4        1.0  0.07640  0.76910  0.50330  1.0000 0.517620313
C   C5        1.0  0.42360  0.76910  0.00330  1.0000 0.517620313
C   C6        1.0  0.57640  0.73090  0.50330  1.0000 0.517620313
C   C7        1.0  0.07640  0.26910  0.99670  1.0000 0.517620313
C   C8        1.0  0.92360  0.23090  0.49670  1.0000 0.517620313
C   C9        1.0  0.76980  0.40360  0.90550  1.0000 -0.0113455707
C   C10       1.0  0.23020  0.09640  0.40550  1.0000 -0.0113455707
C   C11       1.0  0.73020  0.90360  0.09450  1.0000 -0.0113455707
C   C12       1.0  0.26980  0.59640  0.59450  1.0000 -0.0113455707
C   C13       1.0  0.23020  0.59640  0.09450  1.0000 -0.0113455707
C   C14       1.0  0.76980  0.90360  0.59450  1.0000 -0.0113455707
C   C15       1.0  0.26980  0.09640  0.90550  1.0000 -0.0113455707
C   C16       1.0  0.73020  0.40360  0.40550  1.0000 -0.0113455707
C   C17       1.0  0.73070  0.40670  0.82700  1.0000 -0.0988634474
C   C18       1.0  0.26930  0.09330  0.32700  1.0000 -0.0988634474
C   C19       1.0  0.76930  0.90670  0.17300  1.0000 -0.0988634474
C   C20       1.0  0.23070  0.59330  0.67300  1.0000 -0.0988634474
C   C21       1.0  0.26930  0.59330  0.17300  1.0000 -0.0988634474
C   C22       1.0  0.73070  0.90670  0.67300  1.0000 -0.0988634474
C   C23       1.0  0.23070  0.09330  0.82700  1.0000 -0.0988634474
C   C24       1.0  0.76930  0.40670  0.32700  1.0000 -0.0988634474
C   C25       1.0  0.59950  0.36310  0.71910  1.0000 0.5135589345
C   C26       1.0  0.40050  0.13690  0.21910  1.0000 0.5135589345
C   C27       1.0  0.90050  0.86310  0.28090  1.0000 0.5135589345
C   C28       1.0  0.09950  0.63690  0.78090  1.0000 0.5135589345
C   C29       1.0  0.40050  0.63690  0.28090  1.0000 0.5135589345
C   C30       1.0  0.59950  0.86310  0.78090  1.0000 0.5135589345
C   C31       1.0  0.09950  0.13690  0.71910  1.0000 0.5135589345
C   C32       1.0  0.90050  0.36310  0.21910  1.0000 0.5135589345
C   C33       1.0  0.62940  0.29650  0.93880  1.0000 0.0104110986
C   C34       1.0  0.37060  0.20350  0.43880  1.0000 0.0104110986
C   C35       1.0  0.87060  0.79650  0.06120  1.0000 0.0104110986
C   C36       1.0  0.12940  0.70350  0.56120  1.0000 0.0104110986
C   C37       1.0  0.37060  0.70350  0.06120  1.0000 0.0104110986
C   C38       1.0  0.62940  0.79650  0.56120  1.0000 0.0104110986
C   C39       1.0  0.12940  0.20350  0.93880  1.0000 0.0104110986
C   C40       1.0  0.87060  0.29650  0.43880  1.0000 0.0104110986
C   C41       1.0  0.71930  0.34740  0.96100  1.0000 -0.0988634474
C   C42       1.0  0.28070  0.15260  0.46100  1.0000 -0.0988634474
C   C43       1.0  0.78070  0.84740  0.03900  1.0000 -0.0988634474
C   C44       1.0  0.21930  0.65260  0.53900  1.0000 -0.0988634474
C   C45       1.0  0.28070  0.65260  0.03900  1.0000 -0.0988634474
C   C46       1.0  0.71930  0.84740  0.53900  1.0000 -0.0988634474
C   C47       1.0  0.21930  0.15260  0.96100  1.0000 -0.0988634474
C   C48       1.0  0.78070  0.34740  0.46100  1.0000 -0.0988634474
C   C49       1.0  0.63990  0.35820  0.80420  1.0000 -0.0192482014
C   C50       1.0  0.36010  0.14180  0.30420  1.0000 -0.0192482014
C   C51       1.0  0.86010  0.85820  0.19580  1.0000 -0.0192482014
C   C52       1.0  0.13990  0.64180  0.69580  1.0000 -0.0192482014
C   C53       1.0  0.36010  0.64180  0.19580  1.0000 -0.0192482014
C   C54       1.0  0.63990  0.85820  0.69580  1.0000 -0.0192482014
C   C55       1.0  0.13990  0.14180  0.80420  1.0000 -0.0192482014
C   C56       1.0  0.86010  0.35820  0.30420  1.0000 -0.0192482014
C   C57       1.0  0.58850  0.30490  0.86110  1.0000 -0.0988634474
C   C58       1.0  0.41150  0.19510  0.36110  1.0000 -0.0988634474
C   C59       1.0  0.91150  0.80490  0.13890  1.0000 -0.0988634474
C   C60       1.0  0.08850  0.69510  0.63890  1.0000 -0.0988634474
C   C61       1.0  0.41150  0.69510  0.13890  1.0000 -0.0988634474
C   C62       1.0  0.58850  0.80490  0.63890  1.0000 -0.0988634474
C   C63       1.0  0.08850  0.19510  0.86110  1.0000 -0.0988634474
C   C64       1.0  0.91150  0.30490  0.36110  1.0000 -0.0988634474
C   C65       1.0  0.86250  0.46200  0.92980  1.0000 0.5584418057
C   C66       1.0  0.13750  0.03800  0.42980  1.0000 0.5584418057
C   C67       1.0  0.63750  0.96200  0.07020  1.0000 0.5584418057
C   C68       1.0  0.36250  0.53800  0.57020  1.0000 0.5584418057
C   C69       1.0  0.13750  0.53800  0.07020  1.0000 0.5584418057
C   C70       1.0  0.86250  0.96200  0.57020  1.0000 0.5584418057
C   C71       1.0  0.36250  0.03800  0.92980  1.0000 0.5584418057
C   C72       1.0  0.63750  0.46200  0.42980  1.0000 0.5584418057
O   O1        1.0  0.88020  0.47442  0.00406  1.0000 -0.511529387
O   O2        1.0  0.11980  0.02558  0.50406  1.0000 -0.511529387
O   O3        1.0  0.61980  0.97442  0.99594  1.0000 -0.511529387
O   O4        1.0  0.38020  0.52558  0.49594  1.0000 -0.511529387
O   O5        1.0  0.11980  0.52558  0.99594  1.0000 -0.511529387
O   O6        1.0  0.88020  0.97442  0.49594  1.0000 -0.511529387
O   O7        1.0  0.38020  0.02558  0.00406  1.0000 -0.511529387
O   O8        1.0  0.61980  0.47442  0.50406  1.0000 -0.511529387
O   O9        1.0  0.91750  0.49860  0.87482  1.0000 -0.4516568528
O   O10       1.0  0.08250  0.00140  0.37482  1.0000 -0.4516568528
O   O11       1.0  0.58250  0.99860  0.12518  1.0000 -0.4516568528
O   O12       1.0  0.41750  0.50140  0.62518  1.0000 -0.4516568528
O   O13       1.0  0.08250  0.50140  0.12518  1.0000 -0.4516568528
O   O14       1.0  0.91750  0.99860  0.62518  1.0000 -0.4516568528
O   O15       1.0  0.41750  0.00140  0.87482  1.0000 -0.4516568528
O   O16       1.0  0.58250  0.49860  0.37482  1.0000 -0.4516568528
O   O17       1.0  0.65080  0.40550  0.66820  1.0000 -0.4273702523
O   O18       1.0  0.34920  0.09450  0.16820  1.0000 -0.4244552524
O   O19       1.0  0.84920  0.90550  0.33180  1.0000 -0.4273702523
O   O20       1.0  0.15080  0.59450  0.83180  1.0000 -0.4244552524
O   O21       1.0  0.34920  0.59450  0.33180  1.0000 -0.4244552524
O   O22       1.0  0.65080  0.90550  0.83180  1.0000 -0.4273702523
O   O23       1.0  0.15080  0.09450  0.66820  1.0000 -0.4244552524
O   O24       1.0  0.84920  0.40550  0.16820  1.0000 -0.4273702523
O   O25       1.0  0.51010  0.32750  0.70368  1.0000 -0.4273702523
O   O26       1.0  0.48990  0.17250  0.20368  1.0000 -0.4273702523
O   O27       1.0  0.98990  0.82750  0.29632  1.0000 -0.4273702523
O   O28       1.0  0.01010  0.67250  0.79632  1.0000 -0.4273702523
O   O29       1.0  0.48990  0.67250  0.29632  1.0000 -0.4273702523
O   O30       1.0  0.51010  0.82750  0.79632  1.0000 -0.4273702523
O   O31       1.0  0.01010  0.17250  0.70368  1.0000 -0.4273702523
O   O32       1.0  0.98990  0.32750  0.20368  1.0000 -0.4273702523
O   O33       1.0  0.48280  0.20890  0.98600  1.0000 -0.4516568528
O   O34       1.0  0.51720  0.29110  0.48600  1.0000 -0.4516568528
O   O35       1.0  0.01720  0.70890  0.01400  1.0000 -0.4516568528
O   O36       1.0  0.98280  0.79110  0.51400  1.0000 -0.4516568528
O   O37       1.0  0.51720  0.79110  0.01400  1.0000 -0.4516568528
O   O38       1.0  0.48280  0.70890  0.51400  1.0000 -0.4516568528
O   O39       1.0  0.98280  0.29110  0.98600  1.0000 -0.4516568528
O   O40       1.0  0.01720  0.20890  0.48600  1.0000 -0.4516568528
O   O41       1.0  0.63260  0.19840  0.05218  1.0000 -0.4122285368
O   O42       1.0  0.36740  0.30160  0.55218  1.0000 -0.4122285368
O   O43       1.0  0.86740  0.69840  0.94782  1.0000 -0.4122285368
O   O44       1.0  0.13260  0.80160  0.44782  1.0000 -0.4122285368
O   O45       1.0  0.36740  0.80160  0.94782  1.0000 -0.4122285368
O   O46       1.0  0.63260  0.69840  0.44782  1.0000 -0.4122285368
O   O47       1.0  0.13260  0.30160  0.05218  1.0000 -0.4122285368
O   O48       1.0  0.86740  0.19840  0.55218  1.0000 -0.4122285368
