# DDEC6 charges by PACMAN v1.1 (https://github.com/mtap-research/PACMAN-charge/)
data_2014[Zn][dia]3[ASR]7
_chemical_formula_sum              "Zn8 H176 C192 N32 O32"
_cell_length_a       22.3485
_cell_length_b       20.1935
_cell_length_c       18.6866
_cell_angle_alpha    70.0494
_cell_angle_beta     58.1407
_cell_angle_gamma    51.8099

_symmetry_space_group_name_H-M    "P 1"
_symmetry_Int_Tables_number       1

loop_
  _symmetry_equiv_pos_as_xyz
  'x, y, z'

loop_
  _atom_site_type_symbol
  _atom_site_label
  _atom_site_symmetry_multiplicity
  _atom_site_fract_x
  _atom_site_fract_y
  _atom_site_fract_z
  _atom_site_occupancy
  _atom_site_charge
Zn  Zn1       1.0  0.04552  0.04552  0.45448  1.0000 0.7817551891
Zn  Zn2       1.0  0.79552  0.79552  0.20448  1.0000 0.7817551891
Zn  Zn3       1.0  0.96125  0.47517  0.52965  1.0000 0.7949702838
Zn  Zn4       1.0  0.21607  0.72035  0.77483  1.0000 0.7949702838
Zn  Zn5       1.0  0.47517  0.96125  0.03393  1.0000 0.7992274562
Zn  Zn6       1.0  0.72035  0.21607  0.28875  1.0000 0.7992274562
Zn  Zn7       1.0  0.26288  0.26288  0.73712  1.0000 0.7992274562
Zn  Zn8       1.0  0.51288  0.51288  0.98712  1.0000 0.7992274562
H   H1        1.0  0.94430  0.64170  0.09930  1.0000 0.2907368789
H   H2        1.0  0.64170  0.94430  0.31470  1.0000 0.2907368789
H   H3        1.0  0.15070  0.93530  0.30570  1.0000 0.2907368789
H   H4        1.0  0.93530  0.15070  0.60830  1.0000 0.2907368789
H   H5        1.0  0.97180  0.26740  0.29340  1.0000 0.1115160642
H   H6        1.0  0.26740  0.97180  0.46740  1.0000 0.1115160642
H   H7        1.0  0.95660  0.78260  0.27820  1.0000 0.1115160642
H   H8        1.0  0.78260  0.95660  0.98260  1.0000 0.1115160642
H   H9        1.0  0.94090  0.39490  0.21730  1.0000 0.1115160642
H   H10       1.0  0.39490  0.94090  0.44690  1.0000 0.1115160642
H   H11       1.0  0.03270  0.80310  0.30910  1.0000 0.1115160642
H   H12       1.0  0.80310  0.03270  0.85510  1.0000 0.1115160642
H   H13       1.0  0.89270  0.49770  0.40890  1.0000 0.119860808
H   H14       1.0  0.49770  0.89270  0.20070  1.0000 0.119860808
H   H15       1.0  0.84110  0.04930  0.35730  1.0000 0.119860808
H   H16       1.0  0.04930  0.84110  0.75230  1.0000 0.119860808
H   H17       1.0  0.91560  0.37120  0.48860  1.0000 0.1115160642
H   H18       1.0  0.37120  0.91560  0.22460  1.0000 0.119860808
H   H19       1.0  0.76140  0.02540  0.33440  1.0000 0.1115160642
H   H20       1.0  0.02540  0.76140  0.87880  1.0000 0.1115160642
H   H21       1.0  0.73490  0.71190  0.36350  1.0000 0.1504135637
H   H22       1.0  0.71190  0.73490  0.18970  1.0000 0.1504135637
H   H23       1.0  0.88650  0.06030  0.51510  1.0000 0.1504135637
H   H24       1.0  0.06030  0.88650  0.53810  1.0000 0.1504135637
H   H25       1.0  0.78940  0.62920  0.40780  1.0000 0.1590377293
H   H26       1.0  0.62920  0.78940  0.17360  1.0000 0.1590377293
H   H27       1.0  0.84220  0.07640  0.46060  1.0000 0.1590377293
H   H28       1.0  0.07640  0.84220  0.62080  1.0000 0.1590377293
H   H29       1.0  0.73460  0.62940  0.37720  1.0000 0.1504135637
H   H30       1.0  0.62940  0.73460  0.25880  1.0000 0.1504135637
H   H31       1.0  0.87280  0.99120  0.51540  1.0000 0.1504135637
H   H32       1.0  0.99120  0.87280  0.62060  1.0000 0.1504135637
H   H33       1.0  0.07980  0.49060  0.07200  1.0000 0.1590377293
H   H34       1.0  0.49060  0.07980  0.35760  1.0000 0.1590377293
H   H35       1.0  0.17800  0.89240  0.17020  1.0000 0.1590377293
H   H36       1.0  0.89240  0.17800  0.75940  1.0000 0.1590377293
H   H37       1.0  0.02620  0.46480  0.06940  1.0000 0.1590377293
H   H38       1.0  0.46480  0.02620  0.43960  1.0000 0.1590377293
H   H39       1.0  0.18060  0.81040  0.22380  1.0000 0.1590377293
H   H40       1.0  0.81040  0.18060  0.78520  1.0000 0.1590377293
H   H41       1.0  0.06470  0.42090  0.13690  1.0000 0.1504135637
H   H42       1.0  0.42090  0.06470  0.37750  1.0000 0.1504135637
H   H43       1.0  0.11310  0.87250  0.18530  1.0000 0.1504135637
H   H44       1.0  0.87250  0.11310  0.82910  1.0000 0.1504135637
H   H45       1.0  0.16040  0.79560  0.92920  1.0000 0.2907368789
H   H46       1.0  0.13520  0.32080  0.45440  1.0000 0.2907368789
H   H47       1.0  0.37010  0.56110  0.67510  1.0000 0.2907368789
H   H48       1.0  0.85630  0.57490  0.68890  1.0000 0.2907368789
H   H49       1.0  0.97470  0.62850  0.30430  1.0000 0.1289260523
H   H50       1.0  0.15750  0.94570  0.62150  1.0000 0.1289260523
H   H51       1.0  0.00120  0.70040  0.17860  1.0000 0.1289260523
H   H52       1.0  0.13020  0.07140  0.54960  1.0000 0.1289260523
H   H53       1.0  0.23650  0.49050  0.07530  1.0000 0.119860808
H   H54       1.0  0.05230  0.17470  0.75950  1.0000 0.119860808
H   H55       1.0  0.20580  0.41700  0.20540  1.0000 0.119860808
H   H56       1.0  0.07820  0.04460  0.83300  1.0000 0.119860808
H   H57       1.0  0.22220  0.55660  0.86360  1.0000 0.1504135637
H   H58       1.0  0.89240  0.38640  0.69340  1.0000 0.1504135637
H   H59       1.0  0.12570  0.58670  0.92310  1.0000 0.1652451554
H   H60       1.0  0.88550  0.32690  0.66330  1.0000 0.1590377293
H   H61       1.0  0.19580  0.51980  0.95800  1.0000 0.1430571998
H   H62       1.0  0.92360  0.29200  0.73020  1.0000 0.1430571998
H   H63       1.0  0.10350  0.74290  0.14890  1.0000 0.1504135637
H   H64       1.0  0.24530  0.10110  0.50710  1.0000 0.1504135637
H   H65       1.0  0.07810  0.82770  0.09250  1.0000 0.1652451554
H   H66       1.0  0.24830  0.15750  0.42230  1.0000 0.1590377293
H   H67       1.0  0.17400  0.76160  0.07880  1.0000 0.1590377293
H   H68       1.0  0.26440  0.17120  0.48840  1.0000 0.1590377293
H   H69       1.0  0.75010  0.52650  0.52910  1.0000 0.119860808
H   H70       1.0  0.05570  0.72090  0.72350  1.0000 0.119860808
H   H71       1.0  0.62650  0.55110  0.54590  1.0000 0.1115160642
H   H72       1.0  0.97350  0.70410  0.69890  1.0000 0.1115160642
H   H73       1.0  0.51410  0.61350  0.79150  1.0000 0.119860808
H   H74       1.0  0.16910  0.45850  0.63650  1.0000 0.119860808
H   H75       1.0  0.63290  0.59590  0.77090  1.0000 0.119860808
H   H76       1.0  0.24970  0.47910  0.65410  1.0000 0.119860808
H   H77       1.0  0.31650  0.79070  0.75110  1.0000 0.1504135637
H   H78       1.0  0.10830  0.49890  0.45930  1.0000 0.1504135637
H   H79       1.0  0.41090  0.75090  0.73350  1.0000 0.1504135637
H   H80       1.0  0.14530  0.51650  0.49910  1.0000 0.1504135637
H   H81       1.0  0.35010  0.73090  0.82090  1.0000 0.1504135637
H   H82       1.0  0.15190  0.42910  0.51910  1.0000 0.1504135637
H   H83       1.0  0.50940  0.43660  0.62460  1.0000 0.1590377293
H   H84       1.0  0.82060  0.62540  0.81340  1.0000 0.1590377293
H   H85       1.0  0.58040  0.43120  0.63200  1.0000 0.1590377293
H   H86       1.0  0.89360  0.61800  0.81880  1.0000 0.1590377293
H   H87       1.0  0.55910  0.47830  0.55250  1.0000 0.1504135637
H   H88       1.0  0.83990  0.69750  0.77170  1.0000 0.1504135637
H   H89       1.0  0.79560  0.16040  0.11480  1.0000 0.2907368789
H   H90       1.0  0.32080  0.13520  0.08960  1.0000 0.2907368789
H   H91       1.0  0.56110  0.37010  0.39370  1.0000 0.2907368789
H   H92       1.0  0.57490  0.85630  0.87990  1.0000 0.2907368789
H   H93       1.0  0.62850  0.97470  0.09250  1.0000 0.1289260523
H   H94       1.0  0.94570  0.15750  0.27530  1.0000 0.1289260523
H   H95       1.0  0.70040  0.00120  0.11980  1.0000 0.1289260523
H   H96       1.0  0.07140  0.13020  0.24880  1.0000 0.1289260523
H   H97       1.0  0.49050  0.23650  0.19770  1.0000 0.119860808
H   H98       1.0  0.17470  0.05230  0.01350  1.0000 0.119860808
H   H99       1.0  0.41700  0.20580  0.17180  1.0000 0.119860808
H   H100      1.0  0.04460  0.07820  0.04420  1.0000 0.119860808
H   H101      1.0  0.55660  0.22220  0.35760  1.0000 0.1504135637
H   H102      1.0  0.38640  0.89240  0.02780  1.0000 0.1504135637
H   H103      1.0  0.58670  0.12570  0.36450  1.0000 0.1652451554
H   H104      1.0  0.32690  0.88550  0.12430  1.0000 0.1652451554
H   H105      1.0  0.51980  0.19580  0.32640  1.0000 0.1430571998
H   H106      1.0  0.29200  0.92360  0.05420  1.0000 0.1430571998
H   H107      1.0  0.74290  0.10350  0.00470  1.0000 0.1504135637
H   H108      1.0  0.10110  0.24530  0.14650  1.0000 0.1504135637
H   H109      1.0  0.82770  0.07810  0.00170  1.0000 0.1590377293
H   H110      1.0  0.15750  0.24830  0.17190  1.0000 0.1652451554
H   H111      1.0  0.76160  0.17400  0.98560  1.0000 0.1590377293
H   H112      1.0  0.17120  0.26440  0.07600  1.0000 0.1590377293
H   H113      1.0  0.52650  0.75010  0.19430  1.0000 0.119860808
H   H114      1.0  0.72090  0.05570  0.49990  1.0000 0.119860808
H   H115      1.0  0.55110  0.62650  0.27650  1.0000 0.1115160642
H   H116      1.0  0.70410  0.97350  0.62350  1.0000 0.1115160642
H   H117      1.0  0.61350  0.51410  0.08090  1.0000 0.119860808
H   H118      1.0  0.45850  0.16910  0.73590  1.0000 0.119860808
H   H119      1.0  0.59590  0.63290  0.00030  1.0000 0.119860808
H   H120      1.0  0.47910  0.24970  0.61710  1.0000 0.119860808
H   H121      1.0  0.79070  0.31650  0.14170  1.0000 0.1504135637
H   H122      1.0  0.49890  0.10830  0.93350  1.0000 0.1504135637
H   H123      1.0  0.75090  0.41090  0.10470  1.0000 0.1504135637
H   H124      1.0  0.51650  0.14530  0.83910  1.0000 0.1504135637
H   H125      1.0  0.73090  0.35010  0.09810  1.0000 0.1504135637
H   H126      1.0  0.42910  0.15190  0.89990  1.0000 0.1504135637
H   H127      1.0  0.43660  0.50940  0.42940  1.0000 0.1590377293
H   H128      1.0  0.62540  0.82060  0.74060  1.0000 0.1590377293
H   H129      1.0  0.43120  0.58040  0.35640  1.0000 0.1590377293
H   H130      1.0  0.61800  0.89360  0.66960  1.0000 0.1590377293
H   H131      1.0  0.47830  0.55910  0.41010  1.0000 0.1504135637
H   H132      1.0  0.69750  0.83990  0.69090  1.0000 0.1504135637
H   H133      1.0  0.59570  0.33333  0.95890  1.0000 0.2990232656
H   H134      1.0  0.33333  0.59570  0.11210  1.0000 0.2990232656
H   H135      1.0  0.29110  0.13790  0.65430  1.0000 0.2990232656
H   H136      1.0  0.13790  0.29110  0.91670  1.0000 0.2990232656
H   H137      1.0  0.28030  0.30150  0.99830  1.0000 0.119860808
H   H138      1.0  0.30150  0.28030  0.41990  1.0000 0.119860808
H   H139      1.0  0.25170  0.83010  0.96970  1.0000 0.119860808
H   H140      1.0  0.83010  0.25170  0.94850  1.0000 0.119860808
H   H141      1.0  0.35890  0.32090  0.02390  1.0000 0.1289260523
H   H142      1.0  0.32090  0.35890  0.29630  1.0000 0.1289260523
H   H143      1.0  0.22610  0.95370  0.89110  1.0000 0.1289260523
H   H144      1.0  0.95370  0.22610  0.92910  1.0000 0.1289260523
H   H145      1.0  0.43980  0.40360  0.78520  1.0000 0.119860808
H   H146      1.0  0.40360  0.43980  0.37140  1.0000 0.119860808
H   H147      1.0  0.46480  0.87860  0.81020  1.0000 0.119860808
H   H148      1.0  0.87860  0.46480  0.84640  1.0000 0.119860808
H   H149      1.0  0.37310  0.36710  0.75710  1.0000 0.1289260523
H   H150      1.0  0.36710  0.37310  0.50270  1.0000 0.1289260523
H   H151      1.0  0.49290  0.74730  0.87690  1.0000 0.1289260523
H   H152      1.0  0.74730  0.49290  0.88290  1.0000 0.1289260523
H   H153      1.0  0.38580  0.58260  0.91720  1.0000 0.1504135637
H   H154      1.0  0.58260  0.38580  0.11440  1.0000 0.1504135637
H   H155      1.0  0.33280  0.13560  0.86420  1.0000 0.1504135637
H   H156      1.0  0.13560  0.33280  0.66740  1.0000 0.1504135637
H   H157      1.0  0.32140  0.55380  0.95840  1.0000 0.1504135637
H   H158      1.0  0.55380  0.32140  0.16640  1.0000 0.1504135637
H   H159      1.0  0.29160  0.08360  0.92860  1.0000 0.1504135637
H   H160      1.0  0.08360  0.29160  0.69620  1.0000 0.1504135637
H   H161      1.0  0.37890  0.54730  0.85890  1.0000 0.1430571998
H   H162      1.0  0.54730  0.37890  0.21490  1.0000 0.1430571998
H   H163      1.0  0.39110  0.03510  0.87110  1.0000 0.1430571998
H   H164      1.0  0.03510  0.39110  0.70270  1.0000 0.1430571998
H   H165      1.0  0.59690  0.19970  0.98570  1.0000 0.1504135637
H   H166      1.0  0.19970  0.59690  0.21770  1.0000 0.1504135637
H   H167      1.0  0.26430  0.03230  0.65310  1.0000 0.1504135637
H   H168      1.0  0.03230  0.26430  0.05030  1.0000 0.1504135637
H   H169      1.0  0.62480  0.19920  0.88740  1.0000 0.1590377293
H   H170      1.0  0.19920  0.62480  0.28860  1.0000 0.1590377293
H   H171      1.0  0.36260  0.96140  0.62520  1.0000 0.1590377293
H   H172      1.0  0.96140  0.36260  0.05080  1.0000 0.1590377293
H   H173      1.0  0.53910  0.20490  0.95550  1.0000 0.1590377293
H   H174      1.0  0.20490  0.53910  0.30050  1.0000 0.1590377293
H   H175      1.0  0.29450  0.94950  0.71090  1.0000 0.1590377293
H   H176      1.0  0.94950  0.29450  0.04510  1.0000 0.1590377293
C   C1        1.0  0.96700  0.22400  0.45080  1.0000 0.5623457679
C   C2        1.0  0.22400  0.96700  0.35820  1.0000 0.5623457679
C   C3        1.0  0.79920  0.89180  0.28300  1.0000 0.5623457679
C   C4        1.0  0.89180  0.79920  0.02600  1.0000 0.5623457679
C   C5        1.0  0.95020  0.30420  0.39880  1.0000 -0.0320345121
C   C6        1.0  0.30420  0.95020  0.34680  1.0000 -0.0320345121
C   C7        1.0  0.85120  0.90320  0.29980  1.0000 -0.0320345121
C   C8        1.0  0.90320  0.85120  0.94580  1.0000 -0.0320345121
C   C9        1.0  0.95630  0.31350  0.31690  1.0000 -0.1076937277
C   C10       1.0  0.31350  0.95630  0.41330  1.0000 -0.1076937277
C   C11       1.0  0.93310  0.83670  0.29370  1.0000 -0.1076937277
C   C12       1.0  0.83670  0.93310  0.93650  1.0000 -0.1076937277
C   C13       1.0  0.94010  0.38830  0.27070  1.0000 -0.1609434946
C   C14       1.0  0.38830  0.94010  0.40090  1.0000 -0.1609434946
C   C15       1.0  0.97930  0.84910  0.30990  1.0000 -0.1609434946
C   C16       1.0  0.84910  0.97930  0.86170  1.0000 -0.1609434946
C   C17       1.0  0.92260  0.45460  0.30420  1.0000 0.1115160642
C   C18       1.0  0.45460  0.92260  0.31860  1.0000 0.1115160642
C   C19       1.0  0.94580  0.93140  0.32740  1.0000 0.1115160642
C   C20       1.0  0.93140  0.94580  0.79540  1.0000 0.1115160642
C   C21       1.0  0.91020  0.45060  0.38500  1.0000 -0.1609434946
C   C22       1.0  0.45060  0.91020  0.25420  1.0000 -0.1609434946
C   C23       1.0  0.86500  0.99580  0.33980  1.0000 -0.1609434946
C   C24       1.0  0.99580  0.86500  0.79940  1.0000 -0.1609434946
C   C25       1.0  0.92420  0.37440  0.43240  1.0000 -0.0985766394
C   C26       1.0  0.37440  0.92420  0.26900  1.0000 -0.0985766394
C   C27       1.0  0.81760  0.98100  0.32580  1.0000 -0.0985766394
C   C28       1.0  0.98100  0.81760  0.87560  1.0000 -0.0985766394
C   C29       1.0  0.90850  0.53310  0.25390  1.0000 -0.190483137
C   C30       1.0  0.53310  0.90850  0.30450  1.0000 -0.1836035451
C   C31       1.0  0.99610  0.94550  0.34150  1.0000 -0.1836035451
C   C32       1.0  0.94550  0.99610  0.71690  1.0000 -0.1836035451
C   C33       1.0  0.84420  0.61860  0.27840  1.0000 0.2407649351
C   C34       1.0  0.61860  0.84420  0.25880  1.0000 0.2407649351
C   C35       1.0  0.97160  0.99120  0.40580  1.0000 0.2407649351
C   C36       1.0  0.99120  0.97160  0.63140  1.0000 0.2407649351
C   C37       1.0  0.95890  0.54250  0.16890  1.0000 0.2407649351
C   C38       1.0  0.54250  0.95890  0.32970  1.0000 0.2407649351
C   C39       1.0  0.08110  0.92030  0.29110  1.0000 0.2407649351
C   C40       1.0  0.92030  0.08110  0.70750  1.0000 0.2407649351
C   C41       1.0  0.76910  0.65010  0.36430  1.0000 -0.4834156278
C   C42       1.0  0.65010  0.76910  0.21650  1.0000 -0.4834156278
C   C43       1.0  0.88570  0.03350  0.48090  1.0000 -0.4834156278
C   C44       1.0  0.03350  0.88570  0.59990  1.0000 -0.4834156278
C   C45       1.0  0.03970  0.47350  0.10610  1.0000 -0.4977624597
C   C46       1.0  0.47350  0.03970  0.38070  1.0000 -0.4977624597
C   C47       1.0  0.14390  0.86930  0.21030  1.0000 -0.4977624597
C   C48       1.0  0.86930  0.14390  0.77650  1.0000 -0.4977624597
C   C49       1.0  0.07280  0.47300  0.35320  1.0000 0.5655464629
C   C50       1.0  0.14900  0.89680  0.77700  1.0000 0.5655464629
C   C51       1.0  0.08800  0.51760  0.26840  1.0000 -0.0355507074
C   C52       1.0  0.12400  0.98160  0.73240  1.0000 -0.0355507074
C   C53       1.0  0.02820  0.60060  0.25780  1.0000 -0.0985766394
C   C54       1.0  0.13660  0.99220  0.64940  1.0000 -0.0985766394
C   C55       1.0  0.04350  0.64330  0.18330  1.0000 -0.1522290869
C   C56       1.0  0.12010  0.06670  0.60670  1.0000 -0.1522290869
C   C57       1.0  0.12120  0.60340  0.11320  1.0000 0.119860808
C   C58       1.0  0.08780  0.13680  0.64660  1.0000 0.119860808
C   C59       1.0  0.18330  0.51830  0.12170  1.0000 -0.1836035451
C   C60       1.0  0.07330  0.12830  0.73170  1.0000 -0.1836035451
C   C61       1.0  0.16540  0.47480  0.19980  1.0000 -0.1076937277
C   C62       1.0  0.09000  0.05020  0.77520  1.0000 -0.1076937277
C   C63       1.0  0.13890  0.65490  0.03550  1.0000 -0.1609434946
C   C64       1.0  0.07930  0.21450  0.59510  1.0000 -0.1609434946
C   C65       1.0  0.16350  0.63970  0.95170  1.0000 0.2317076406
C   C66       1.0  0.00490  0.29830  0.61030  1.0000 0.2317076406
C   C67       1.0  0.13750  0.72390  0.02950  1.0000 0.2017677525
C   C68       1.0  0.14090  0.22050  0.52610  1.0000 0.2017677525
C   C69       1.0  0.17800  0.56980  0.92160  1.0000 -0.4977624597
C   C70       1.0  0.91940  0.32840  0.68020  1.0000 -0.4977624597
C   C71       1.0  0.12200  0.76780  0.09280  1.0000 -0.4977624597
C   C72       1.0  0.23260  0.15720  0.48220  1.0000 -0.4977624597
C   C73       1.0  0.78130  0.54690  0.63790  1.0000 0.5531066755
C   C74       1.0  0.21610  0.61210  0.70310  1.0000 0.5531066755
C   C75       1.0  0.70450  0.55790  0.64850  1.0000 -0.021297628
C   C76       1.0  0.16090  0.60150  0.69210  1.0000 -0.021297628
C   C77       1.0  0.70160  0.54520  0.58160  1.0000 -0.1076937277
C   C78       1.0  0.07840  0.66840  0.70480  1.0000 -0.1076937277
C   C79       1.0  0.62790  0.55970  0.59170  1.0000 -0.1701122443
C   C80       1.0  0.02930  0.65830  0.69030  1.0000 -0.1701122443
C   C81       1.0  0.55500  0.58720  0.66960  1.0000 0.1115160642
C   C82       1.0  0.06180  0.58040  0.66280  1.0000 0.1115160642
C   C83       1.0  0.56090  0.59770  0.73770  1.0000 -0.1427844068
C   C84       1.0  0.14630  0.51230  0.65230  1.0000 -0.1427844068
C   C85       1.0  0.63160  0.58560  0.72600  1.0000 -0.0985766394
C   C86       1.0  0.19320  0.52400  0.66440  1.0000 -0.1076937277
C   C87       1.0  0.47940  0.59900  0.68120  1.0000 -0.1701122443
C   C88       1.0  0.00960  0.56880  0.65100  1.0000 -0.1701122443
C   C89       1.0  0.39520  0.66620  0.72240  1.0000 0.2317076406
C   C90       1.0  0.03380  0.52760  0.58380  1.0000 0.2317076406
C   C91       1.0  0.47230  0.54490  0.65810  1.0000 0.2196462719
C   C92       1.0  0.92530  0.59190  0.70510  1.0000 0.2196462719
C   C93       1.0  0.36560  0.74120  0.76020  1.0000 -0.4977624597
C   C94       1.0  0.11700  0.48980  0.50880  1.0000 -0.4977624597
C   C95       1.0  0.53540  0.46640  0.61300  1.0000 -0.4873263273
C   C96       1.0  0.86480  0.63700  0.78360  1.0000 -0.4834156278
C   C97       1.0  0.47300  0.07280  0.10100  1.0000 0.5655464629
C   C98       1.0  0.89680  0.14900  0.17720  1.0000 0.5655464629
C   C99       1.0  0.51760  0.08800  0.12600  1.0000 -0.0355507074
C   C100      1.0  0.98160  0.12400  0.16200  1.0000 -0.0355507074
C   C101      1.0  0.60060  0.02820  0.11340  1.0000 -0.0985766394
C   C102      1.0  0.99220  0.13660  0.22180  1.0000 -0.0985766394
C   C103      1.0  0.64330  0.04350  0.12990  1.0000 -0.1522290869
C   C104      1.0  0.06670  0.12010  0.20650  1.0000 -0.1522290869
C   C105      1.0  0.60340  0.12120  0.16220  1.0000 0.119860808
C   C106      1.0  0.13680  0.08780  0.12880  1.0000 0.119860808
C   C107      1.0  0.51830  0.18330  0.17670  1.0000 -0.1836035451
C   C108      1.0  0.12830  0.07330  0.06670  1.0000 -0.1836035451
C   C109      1.0  0.47480  0.16540  0.16000  1.0000 -0.1076937277
C   C110      1.0  0.05020  0.09000  0.08460  1.0000 -0.1076937277
C   C111      1.0  0.65490  0.13890  0.17070  1.0000 -0.1609434946
C   C112      1.0  0.21450  0.07930  0.11110  1.0000 -0.1609434946
C   C113      1.0  0.63970  0.16350  0.24510  1.0000 0.2317076406
C   C114      1.0  0.29830  0.00490  0.08650  1.0000 0.2317076406
C   C115      1.0  0.72390  0.13750  0.10910  1.0000 0.2017677525
C   C116      1.0  0.22050  0.14090  0.11250  1.0000 0.2017677525
C   C117      1.0  0.56980  0.17800  0.33060  1.0000 -0.4977624597
C   C118      1.0  0.32840  0.91940  0.07200  1.0000 -0.4977624597
C   C119      1.0  0.76780  0.12200  0.01740  1.0000 -0.4977624597
C   C120      1.0  0.15720  0.23260  0.12800  1.0000 -0.4977624597
C   C121      1.0  0.54690  0.78130  0.03390  1.0000 0.5531066755
C   C122      1.0  0.61210  0.21610  0.46870  1.0000 0.5531066755
C   C123      1.0  0.55790  0.70450  0.08910  1.0000 -0.021297628
C   C124      1.0  0.60150  0.16090  0.54550  1.0000 -0.021297628
C   C125      1.0  0.54520  0.70160  0.17160  1.0000 -0.1076937277
C   C126      1.0  0.66840  0.07840  0.54840  1.0000 -0.1076937277
C   C127      1.0  0.55970  0.62790  0.22070  1.0000 -0.1701122443
C   C128      1.0  0.65830  0.02930  0.62210  1.0000 -0.1701122443
C   C129      1.0  0.58720  0.55500  0.18820  1.0000 0.1115160642
C   C130      1.0  0.58040  0.06180  0.69500  1.0000 0.1115160642
C   C131      1.0  0.59770  0.56090  0.10370  1.0000 -0.1427844068
C   C132      1.0  0.51230  0.14630  0.68910  1.0000 -0.1427844068
C   C133      1.0  0.58560  0.63160  0.05680  1.0000 -0.1076937277
C   C134      1.0  0.52400  0.19320  0.61840  1.0000 -0.0985766394
C   C135      1.0  0.59900  0.47940  0.24040  1.0000 -0.1701122443
C   C136      1.0  0.56880  0.00960  0.77060  1.0000 -0.1701122443
C   C137      1.0  0.66620  0.39520  0.21620  1.0000 0.2317076406
C   C138      1.0  0.52760  0.03380  0.85480  1.0000 0.2317076406
C   C139      1.0  0.54490  0.47230  0.32470  1.0000 0.2196462719
C   C140      1.0  0.59190  0.92530  0.77770  1.0000 0.2196462719
C   C141      1.0  0.74120  0.36560  0.13300  1.0000 -0.4977624597
C   C142      1.0  0.48980  0.11700  0.88440  1.0000 -0.4977624597
C   C143      1.0  0.46640  0.53540  0.38520  1.0000 -0.4834156278
C   C144      1.0  0.63700  0.86480  0.71460  1.0000 -0.4834156278
C   C145      1.0  0.27550  0.30710  0.85830  1.0000 0.5623457679
C   C146      1.0  0.30710  0.27550  0.55910  1.0000 0.5623457679
C   C147      1.0  0.39170  0.69090  0.97450  1.0000 0.5623457679
C   C148      1.0  0.69090  0.39170  0.94290  1.0000 0.5623457679
C   C149      1.0  0.32070  0.33150  0.87370  1.0000 -0.021297628
C   C150      1.0  0.33150  0.32070  0.47410  1.0000 -0.021297628
C   C151      1.0  0.37630  0.77590  0.92930  1.0000 -0.021297628
C   C152      1.0  0.77590  0.37630  0.91850  1.0000 -0.021297628
C   C153      1.0  0.31550  0.31950  0.95350  1.0000 -0.1076937277
C   C154      1.0  0.31950  0.31550  0.41150  1.0000 -0.1076937277
C   C155      1.0  0.29650  0.83850  0.93450  1.0000 -0.1076937277
C   C156      1.0  0.83850  0.29650  0.93050  1.0000 -0.1076937277
C   C157      1.0  0.36050  0.33333  0.96930  1.0000 -0.1522290869
C   C158      1.0  0.33333  0.36050  0.33690  1.0000 -0.1522290869
C   C159      1.0  0.28070  0.91310  0.88950  1.0000 -0.1522290869
C   C160      1.0  0.91310  0.28070  0.91670  1.0000 -0.1522290869
C   C161      1.0  0.40810  0.36450  0.90710  1.0000 0.1115160642
C   C162      1.0  0.36450  0.40810  0.32030  1.0000 0.1115160642
C   C163      1.0  0.34290  0.92970  0.84190  1.0000 0.1115160642
C   C164      1.0  0.92970  0.34290  0.88550  1.0000 0.1115160642
C   C165      1.0  0.40990  0.37970  0.82890  1.0000 -0.1427844068
C   C166      1.0  0.37970  0.40990  0.38150  1.0000 -0.1427844068
C   C167      1.0  0.42110  0.86850  0.84010  1.0000 -0.1427844068
C   C168      1.0  0.86850  0.42110  0.87030  1.0000 -0.1427844068
C   C169      1.0  0.36790  0.35990  0.81270  1.0000 -0.0830218004
C   C170      1.0  0.35990  0.36790  0.45950  1.0000 -0.0830218004
C   C171      1.0  0.43730  0.79050  0.88210  1.0000 -0.0830218004
C   C172      1.0  0.79050  0.43730  0.89010  1.0000 -0.0830218004
C   C173      1.0  0.45980  0.37880  0.92140  1.0000 -0.190483137
C   C174      1.0  0.37880  0.45980  0.24000  1.0000 -0.190483137
C   C175      1.0  0.32860  0.01000  0.79020  1.0000 -0.190483137
C   C176      1.0  0.01000  0.32860  0.87120  1.0000 -0.190483137
C   C177      1.0  0.44300  0.45580  0.92640  1.0000 0.2129984075
C   C178      1.0  0.45580  0.44300  0.17480  1.0000 0.2129984075
C   C179      1.0  0.32360  0.07520  0.80700  1.0000 0.2129984075
C   C180      1.0  0.07520  0.32360  0.79420  1.0000 0.2129984075
C   C181      1.0  0.52870  0.31810  0.93810  1.0000 0.2196462719
C   C182      1.0  0.31810  0.52870  0.21510  1.0000 0.2196462719
C   C183      1.0  0.31190  0.03490  0.72130  1.0000 0.2196462719
C   C184      1.0  0.03490  0.31190  0.93190  1.0000 0.2196462719
C   C185      1.0  0.37660  0.54220  0.91420  1.0000 -0.4873263273
C   C186      1.0  0.54220  0.37660  0.16700  1.0000 -0.4873263273
C   C187      1.0  0.33580  0.08300  0.87340  1.0000 -0.4873263273
C   C188      1.0  0.08300  0.33580  0.70780  1.0000 -0.4873263273
C   C189      1.0  0.57660  0.22180  0.94200  1.0000 -0.4873263273
C   C190      1.0  0.22180  0.57660  0.25960  1.0000 -0.4873263273
C   C191      1.0  0.30800  0.99040  0.67340  1.0000 -0.4873263273
C   C192      1.0  0.99040  0.30800  0.02820  1.0000 -0.4873263273
N   N1        1.0  0.92450  0.62150  0.14990  1.0000 -0.1427844068
N   N2        1.0  0.62150  0.92450  0.30410  1.0000 -0.1427844068
N   N3        1.0  0.10010  0.94590  0.32550  1.0000 -0.1427844068
N   N4        1.0  0.94590  0.10010  0.62850  1.0000 -0.1427844068
N   N5        1.0  0.85440  0.67040  0.21660  1.0000 -0.2662261924
N   N6        1.0  0.67040  0.85440  0.25860  1.0000 -0.2662261924
N   N7        1.0  0.03340  0.99140  0.39560  1.0000 -0.2662261924
N   N8        1.0  0.99140  0.03340  0.57960  1.0000 -0.2662261924
N   N9        1.0  0.15750  0.75090  0.94830  1.0000 -0.1241106218
N   N10       1.0  0.10670  0.30170  0.49910  1.0000 -0.1241106218
N   N11       1.0  0.17240  0.70140  0.89980  1.0000 -0.2608743733
N   N12       1.0  0.02360  0.35020  0.54860  1.0000 -0.2608743733
N   N13       1.0  0.39060  0.58220  0.68340  1.0000 -0.1522290869
N   N14       1.0  0.90620  0.56660  0.66780  1.0000 -0.1522290869
N   N15       1.0  0.34040  0.65700  0.72420  1.0000 -0.2857670834
N   N16       1.0  0.97160  0.52580  0.59300  1.0000 -0.2857670834
N   N17       1.0  0.75090  0.15750  0.14330  1.0000 -0.1241106218
N   N18       1.0  0.30170  0.10670  0.09250  1.0000 -0.1241106218
N   N19       1.0  0.70140  0.17240  0.22640  1.0000 -0.2608743733
N   N20       1.0  0.35020  0.02360  0.07760  1.0000 -0.2608743733
N   N21       1.0  0.58220  0.39060  0.34380  1.0000 -0.1522290869
N   N22       1.0  0.56660  0.90620  0.85940  1.0000 -0.1522290869
N   N23       1.0  0.65700  0.34040  0.27840  1.0000 -0.2857670834
N   N24       1.0  0.52580  0.97160  0.90960  1.0000 -0.2857670834
N   N25       1.0  0.50220  0.44420  0.94120  1.0000 -0.277700988
N   N26       1.0  0.44420  0.50220  0.11240  1.0000 -0.277700988
N   N27       1.0  0.30880  0.13760  0.74780  1.0000 -0.277700988
N   N28       1.0  0.13760  0.30880  0.80580  1.0000 -0.277700988
N   N29       1.0  0.55190  0.35890  0.94830  1.0000 -0.1427844068
N   N30       1.0  0.35890  0.55190  0.14090  1.0000 -0.1427844068
N   N31       1.0  0.30170  0.10910  0.69810  1.0000 -0.1427844068
N   N32       1.0  0.10910  0.30170  0.89110  1.0000 -0.1427844068
O   O1        1.0  0.99610  0.16050  0.41450  1.0000 -0.5597135922
O   O2        1.0  0.16050  0.99610  0.42890  1.0000 -0.5597135922
O   O3        1.0  0.83550  0.82110  0.25390  1.0000 -0.5597135922
O   O4        1.0  0.82110  0.83550  0.08950  1.0000 -0.5597135922
O   O5        1.0  0.95510  0.22190  0.52290  1.0000 -0.5340370437
O   O6        1.0  0.22190  0.95510  0.30010  1.0000 -0.5340370437
O   O7        1.0  0.72710  0.94990  0.29490  1.0000 -0.5340370437
O   O8        1.0  0.94990  0.72710  0.02810  1.0000 -0.5340370437
O   O9        1.0  0.99950  0.51170  0.41350  1.0000 -0.5513828994
O   O10       1.0  0.17470  0.83650  0.73830  1.0000 -0.5513828994
O   O11       1.0  0.13340  0.40200  0.36060  1.0000 -0.5597135922
O   O12       1.0  0.14600  0.88940  0.84800  1.0000 -0.5597135922
O   O13       1.0  0.84270  0.52010  0.56690  1.0000 -0.5340370437
O   O14       1.0  0.17970  0.68310  0.72990  1.0000 -0.5340370437
O   O15       1.0  0.78070  0.55910  0.69810  1.0000 -0.5431401929
O   O16       1.0  0.28790  0.55190  0.69090  1.0000 -0.5431401929
O   O17       1.0  0.51170  0.99950  0.07530  1.0000 -0.5513828994
O   O18       1.0  0.83650  0.17470  0.25050  1.0000 -0.5513828994
O   O19       1.0  0.40200  0.13340  0.10400  1.0000 -0.5597135922
O   O20       1.0  0.88940  0.14600  0.11660  1.0000 -0.5597135922
O   O21       1.0  0.52010  0.84270  0.07030  1.0000 -0.5340370437
O   O22       1.0  0.68310  0.17970  0.40730  1.0000 -0.5340370437
O   O23       1.0  0.55910  0.78070  0.96210  1.0000 -0.5431401929
O   O24       1.0  0.55190  0.28790  0.46930  1.0000 -0.5431401929
O   O25       1.0  0.30050  0.29830  0.78010  1.0000 -0.5513828994
O   O26       1.0  0.29830  0.30050  0.62110  1.0000 -0.5513828994
O   O27       1.0  0.46990  0.62890  0.94950  1.0000 -0.5513828994
O   O28       1.0  0.62890  0.46990  0.95170  1.0000 -0.5513828994
O   O29       1.0  0.22260  0.29460  0.91980  1.0000 -0.5513828994
O   O30       1.0  0.29460  0.22260  0.56300  1.0000 -0.5513828994
O   O31       1.0  0.33020  0.68700  0.02740  1.0000 -0.5513828994
O   O32       1.0  0.68700  0.33020  0.95540  1.0000 -0.5513828994
