# DDEC6 charges by PACMAN v1.1 (https://github.com/mtap-research/PACMAN-charge/)
data_2014[Cu][tbo]3[ASR]7
_chemical_formula_sum              "Cu12 H24 C72 O48"
_cell_length_a       18.6075
_cell_length_b       18.6075
_cell_length_c       18.6075
_cell_angle_alpha    60
_cell_angle_beta     60
_cell_angle_gamma    60

_symmetry_space_group_name_H-M    "P 1"
_symmetry_Int_Tables_number       1

loop_
  _symmetry_equiv_pos_as_xyz
  'x, y, z'

loop_
  _atom_site_type_symbol
  _atom_site_label
  _atom_site_symmetry_multiplicity
  _atom_site_fract_x
  _atom_site_fract_y
  _atom_site_fract_z
  _atom_site_occupancy
  _atom_site_charge
Cu  Cu1       1.0  0.00000  0.00000  0.57068  1.0000 0.8616162191
Cu  Cu2       1.0  0.00000  0.00000  0.42932  1.0000 0.8616162191
Cu  Cu3       1.0  0.00000  0.57068  0.00000  1.0000 0.8616162191
Cu  Cu4       1.0  0.00000  0.42932  0.00000  1.0000 0.8616162191
Cu  Cu5       1.0  0.57068  0.00000  0.00000  1.0000 0.8616162191
Cu  Cu6       1.0  0.42932  0.00000  0.00000  1.0000 0.8616162191
Cu  Cu7       1.0  0.42932  0.00000  0.57068  1.0000 0.8616162191
Cu  Cu8       1.0  0.57068  0.00000  0.42932  1.0000 0.8616162191
Cu  Cu9       1.0  0.00000  0.42932  0.57068  1.0000 0.8616162191
Cu  Cu10      1.0  0.00000  0.57068  0.42932  1.0000 0.8616162191
Cu  Cu11      1.0  0.57068  0.42932  0.00000  1.0000 0.8616162191
Cu  Cu12      1.0  0.42932  0.57068  0.00000  1.0000 0.8616162191
H   H1        1.0  0.97120  0.27020  0.27020  1.0000 0.1361895154
H   H2        1.0  0.02880  0.72980  0.72980  1.0000 0.1361895154
H   H3        1.0  0.27020  0.27020  0.97120  1.0000 0.1361895154
H   H4        1.0  0.72980  0.72980  0.02880  1.0000 0.1361895154
H   H5        1.0  0.27020  0.97120  0.27020  1.0000 0.1361895154
H   H6        1.0  0.72980  0.02880  0.72980  1.0000 0.1361895154
H   H7        1.0  0.72980  0.02880  0.51160  1.0000 0.1361895154
H   H8        1.0  0.27020  0.97120  0.48840  1.0000 0.1361895154
H   H9        1.0  0.72980  0.72980  0.51160  1.0000 0.1361895154
H   H10       1.0  0.27020  0.27020  0.48840  1.0000 0.1361895154
H   H11       1.0  0.02880  0.72980  0.51160  1.0000 0.1361895154
H   H12       1.0  0.97120  0.27020  0.48840  1.0000 0.1361895154
H   H13       1.0  0.48840  0.97120  0.27020  1.0000 0.1361895154
H   H14       1.0  0.51160  0.02880  0.72980  1.0000 0.1361895154
H   H15       1.0  0.48840  0.27020  0.97120  1.0000 0.1361895154
H   H16       1.0  0.51160  0.72980  0.02880  1.0000 0.1361895154
H   H17       1.0  0.27020  0.48840  0.27020  1.0000 0.1361895154
H   H18       1.0  0.72980  0.51160  0.72980  1.0000 0.1361895154
H   H19       1.0  0.27020  0.48840  0.97120  1.0000 0.1361895154
H   H20       1.0  0.72980  0.51160  0.02880  1.0000 0.1361895154
H   H21       1.0  0.97120  0.48840  0.27020  1.0000 0.1361895154
H   H22       1.0  0.02880  0.51160  0.72980  1.0000 0.1361895154
H   H23       1.0  0.48840  0.27020  0.27020  1.0000 0.1361895154
H   H24       1.0  0.51160  0.72980  0.72980  1.0000 0.1361895154
C   C1        1.0  0.97546  0.16278  0.43088  1.0000 0.5817151839
C   C2        1.0  0.02454  0.83722  0.56912  1.0000 0.5817151839
C   C3        1.0  0.16278  0.43088  0.97546  1.0000 0.5817151839
C   C4        1.0  0.83722  0.56912  0.02454  1.0000 0.5817151839
C   C5        1.0  0.43088  0.97546  0.16278  1.0000 0.5817151839
C   C6        1.0  0.56912  0.02454  0.83722  1.0000 0.5817151839
C   C7        1.0  0.83722  0.02454  0.56912  1.0000 0.5817151839
C   C8        1.0  0.16278  0.97546  0.43088  1.0000 0.5817151839
C   C9        1.0  0.56912  0.83722  0.56912  1.0000 0.5817151839
C   C10       1.0  0.43088  0.16278  0.43088  1.0000 0.5817151839
C   C11       1.0  0.02454  0.56912  0.56912  1.0000 0.5817151839
C   C12       1.0  0.97546  0.43088  0.43088  1.0000 0.5817151839
C   C13       1.0  0.43088  0.97546  0.43088  1.0000 0.5817151839
C   C14       1.0  0.56912  0.02454  0.56912  1.0000 0.5817151839
C   C15       1.0  0.43088  0.16278  0.97546  1.0000 0.5817151839
C   C16       1.0  0.56912  0.83722  0.02454  1.0000 0.5817151839
C   C17       1.0  0.16278  0.43088  0.43088  1.0000 0.5817151839
C   C18       1.0  0.83722  0.56912  0.56912  1.0000 0.5817151839
C   C19       1.0  0.43088  0.43088  0.97546  1.0000 0.5817151839
C   C20       1.0  0.56912  0.56912  0.02454  1.0000 0.5817151839
C   C21       1.0  0.97546  0.43088  0.16278  1.0000 0.5817151839
C   C22       1.0  0.02454  0.56912  0.83722  1.0000 0.5817151839
C   C23       1.0  0.43088  0.43088  0.16278  1.0000 0.5817151839
C   C24       1.0  0.56912  0.56912  0.83722  1.0000 0.5817151839
C   C25       1.0  0.96869  0.25753  0.38689  1.0000 -0.0261226179
C   C26       1.0  0.03131  0.74247  0.61311  1.0000 -0.0261226179
C   C27       1.0  0.25753  0.38689  0.96869  1.0000 -0.0261226179
C   C28       1.0  0.74247  0.61311  0.03131  1.0000 -0.0261226179
C   C29       1.0  0.38689  0.96869  0.25753  1.0000 -0.0261226179
C   C30       1.0  0.61311  0.03131  0.74247  1.0000 -0.0261226179
C   C31       1.0  0.74247  0.03131  0.61311  1.0000 -0.0261226179
C   C32       1.0  0.25753  0.96869  0.38689  1.0000 -0.0261226179
C   C33       1.0  0.61311  0.74247  0.61311  1.0000 -0.0261226179
C   C34       1.0  0.38689  0.25753  0.38689  1.0000 -0.0261226179
C   C35       1.0  0.03131  0.61311  0.61311  1.0000 -0.0261226179
C   C36       1.0  0.96869  0.38689  0.38689  1.0000 -0.0261226179
C   C37       1.0  0.38689  0.96869  0.38689  1.0000 -0.0261226179
C   C38       1.0  0.61311  0.03131  0.61311  1.0000 -0.0261226179
C   C39       1.0  0.38689  0.25753  0.96869  1.0000 -0.0261226179
C   C40       1.0  0.61311  0.74247  0.03131  1.0000 -0.0261226179
C   C41       1.0  0.25753  0.38689  0.38689  1.0000 -0.0261226179
C   C42       1.0  0.74247  0.61311  0.61311  1.0000 -0.0261226179
C   C43       1.0  0.38689  0.38689  0.96869  1.0000 -0.0261226179
C   C44       1.0  0.61311  0.61311  0.03131  1.0000 -0.0261226179
C   C45       1.0  0.96869  0.38689  0.25753  1.0000 -0.0261226179
C   C46       1.0  0.03131  0.61311  0.74247  1.0000 -0.0261226179
C   C47       1.0  0.38689  0.38689  0.25753  1.0000 -0.0261226179
C   C48       1.0  0.61311  0.61311  0.74247  1.0000 -0.0261226179
C   C49       1.0  0.96841  0.30089  0.30089  1.0000 -0.08345623
C   C50       1.0  0.03159  0.69911  0.69911  1.0000 -0.08345623
C   C51       1.0  0.30089  0.30089  0.96841  1.0000 -0.08345623
C   C52       1.0  0.69911  0.69911  0.03159  1.0000 -0.08345623
C   C53       1.0  0.30089  0.96841  0.30089  1.0000 -0.08345623
C   C54       1.0  0.69911  0.03159  0.69911  1.0000 -0.08345623
C   C55       1.0  0.69911  0.03159  0.57019  1.0000 -0.08345623
C   C56       1.0  0.30089  0.96841  0.42981  1.0000 -0.08345623
C   C57       1.0  0.69911  0.69911  0.57019  1.0000 -0.08345623
C   C58       1.0  0.30089  0.30089  0.42981  1.0000 -0.08345623
C   C59       1.0  0.03159  0.69911  0.57019  1.0000 -0.08345623
C   C60       1.0  0.96841  0.30089  0.42981  1.0000 -0.08345623
C   C61       1.0  0.42981  0.96841  0.30089  1.0000 -0.08345623
C   C62       1.0  0.57019  0.03159  0.69911  1.0000 -0.08345623
C   C63       1.0  0.42981  0.30089  0.96841  1.0000 -0.08345623
C   C64       1.0  0.57019  0.69911  0.03159  1.0000 -0.08345623
C   C65       1.0  0.30089  0.42981  0.30089  1.0000 -0.08345623
C   C66       1.0  0.69911  0.57019  0.69911  1.0000 -0.08345623
C   C67       1.0  0.30089  0.42981  0.96841  1.0000 -0.08345623
C   C68       1.0  0.69911  0.57019  0.03159  1.0000 -0.08345623
C   C69       1.0  0.96841  0.42981  0.30089  1.0000 -0.08345623
C   C70       1.0  0.03159  0.57019  0.69911  1.0000 -0.08345623
C   C71       1.0  0.42981  0.30089  0.30089  1.0000 -0.08345623
C   C72       1.0  0.57019  0.69911  0.69911  1.0000 -0.08345623
O   O1        1.0  0.97880  0.12626  0.50776  1.0000 -0.5195669805
O   O2        1.0  0.02120  0.87374  0.49224  1.0000 -0.5195669805
O   O3        1.0  0.12626  0.50776  0.97880  1.0000 -0.5195669805
O   O4        1.0  0.87374  0.49224  0.02120  1.0000 -0.5195669805
O   O5        1.0  0.50776  0.97880  0.12626  1.0000 -0.5195669805
O   O6        1.0  0.49224  0.02120  0.87374  1.0000 -0.5195669805
O   O7        1.0  0.87374  0.02120  0.61282  1.0000 -0.5195669805
O   O8        1.0  0.12626  0.97880  0.38718  1.0000 -0.5195669805
O   O9        1.0  0.49224  0.87374  0.61282  1.0000 -0.5195669805
O   O10       1.0  0.50776  0.12626  0.38718  1.0000 -0.5195669805
O   O11       1.0  0.02120  0.49224  0.61282  1.0000 -0.5195669805
O   O12       1.0  0.97880  0.50776  0.38718  1.0000 -0.5195669805
O   O13       1.0  0.38718  0.97880  0.50776  1.0000 -0.5195669805
O   O14       1.0  0.61282  0.02120  0.49224  1.0000 -0.5195669805
O   O15       1.0  0.38718  0.12626  0.97880  1.0000 -0.5195669805
O   O16       1.0  0.61282  0.87374  0.02120  1.0000 -0.5195669805
O   O17       1.0  0.12626  0.38718  0.50776  1.0000 -0.5195669805
O   O18       1.0  0.87374  0.61282  0.49224  1.0000 -0.5195669805
O   O19       1.0  0.50776  0.38718  0.97880  1.0000 -0.5195669805
O   O20       1.0  0.49224  0.61282  0.02120  1.0000 -0.5195669805
O   O21       1.0  0.97880  0.38718  0.12626  1.0000 -0.5195669805
O   O22       1.0  0.02120  0.61282  0.87374  1.0000 -0.5195669805
O   O23       1.0  0.38718  0.50776  0.12626  1.0000 -0.5195669805
O   O24       1.0  0.61282  0.49224  0.87374  1.0000 -0.5195669805
O   O25       1.0  0.12626  0.97880  0.50776  1.0000 -0.5195669805
O   O26       1.0  0.87374  0.02120  0.49224  1.0000 -0.5195669805
O   O27       1.0  0.50776  0.12626  0.97880  1.0000 -0.5195669805
O   O28       1.0  0.49224  0.87374  0.02120  1.0000 -0.5195669805
O   O29       1.0  0.97880  0.50776  0.12626  1.0000 -0.5195669805
O   O30       1.0  0.02120  0.49224  0.87374  1.0000 -0.5195669805
O   O31       1.0  0.02120  0.87374  0.61282  1.0000 -0.5195669805
O   O32       1.0  0.97880  0.12626  0.38718  1.0000 -0.5195669805
O   O33       1.0  0.87374  0.49224  0.61282  1.0000 -0.5195669805
O   O34       1.0  0.12626  0.50776  0.38718  1.0000 -0.5195669805
O   O35       1.0  0.49224  0.02120  0.61282  1.0000 -0.5195669805
O   O36       1.0  0.50776  0.97880  0.38718  1.0000 -0.5195669805
O   O37       1.0  0.97880  0.38718  0.50776  1.0000 -0.5195669805
O   O38       1.0  0.02120  0.61282  0.49224  1.0000 -0.5195669805
O   O39       1.0  0.12626  0.38718  0.97880  1.0000 -0.5195669805
O   O40       1.0  0.87374  0.61282  0.02120  1.0000 -0.5195669805
O   O41       1.0  0.38718  0.12626  0.50776  1.0000 -0.5195669805
O   O42       1.0  0.61282  0.87374  0.49224  1.0000 -0.5195669805
O   O43       1.0  0.38718  0.50776  0.97880  1.0000 -0.5195669805
O   O44       1.0  0.61282  0.49224  0.02120  1.0000 -0.5195669805
O   O45       1.0  0.38718  0.97880  0.12626  1.0000 -0.5195669805
O   O46       1.0  0.61282  0.02120  0.87374  1.0000 -0.5195669805
O   O47       1.0  0.50776  0.38718  0.12626  1.0000 -0.5195669805
O   O48       1.0  0.49224  0.61282  0.87374  1.0000 -0.5195669805
