# DDEC6 charges by PACMAN v1.1 (https://github.com/mtap-research/PACMAN-charge/)
data_2014[Tb][mog]3[ASR]1
_chemical_formula_sum              "Tb4 H72 C102 O24"
_cell_length_a       13.0022
_cell_length_b       13.3793
_cell_length_c       25.8929
_cell_angle_alpha    95.94
_cell_angle_beta     88.104
_cell_angle_gamma    113.639

_symmetry_space_group_name_H-M    "P 1"
_symmetry_Int_Tables_number       1

loop_
  _symmetry_equiv_pos_as_xyz
  'x, y, z'

loop_
  _atom_site_type_symbol
  _atom_site_label
  _atom_site_symmetry_multiplicity
  _atom_site_fract_x
  _atom_site_fract_y
  _atom_site_fract_z
  _atom_site_occupancy
  _atom_site_charge
Tb  Tb1       1.0  0.37484  0.30672  0.49418  1.0000 2.0896679529
Tb  Tb2       1.0  0.62516  0.69328  0.50582  1.0000 2.0896679529
Tb  Tb3       1.0  0.15788  0.62555  0.95701  1.0000 2.0388051638
Tb  Tb4       1.0  0.84212  0.37445  0.04299  1.0000 2.0388051638
H   H1        1.0  0.17660  0.89380  0.83490  1.0000 0.1297727088
H   H2        1.0  0.82340  0.10620  0.16510  1.0000 0.1297727088
H   H3        1.0  0.24170  0.63640  0.77110  1.0000 0.12071253
H   H4        1.0  0.75830  0.36360  0.22890  1.0000 0.12071253
H   H5        1.0  0.28730  0.71420  0.69270  1.0000 0.1297727088
H   H6        1.0  0.71270  0.28580  0.30730  1.0000 0.1297727088
H   H7        1.0  0.26790  0.10190  0.81530  1.0000 0.1297727088
H   H8        1.0  0.73210  0.89810  0.18470  1.0000 0.1297727088
H   H9        1.0  0.29210  0.17410  0.76880  1.0000 0.1297727088
H   H10       1.0  0.70790  0.82590  0.23120  1.0000 0.1297727088
H   H11       1.0  0.37030  0.11430  0.77900  1.0000 0.1297727088
H   H12       1.0  0.62970  0.88570  0.22100  1.0000 0.1297727088
H   H13       1.0  0.05160  0.93710  0.72430  1.0000 0.136469972
H   H14       1.0  0.94840  0.06290  0.27570  1.0000 0.136469972
H   H15       1.0  0.09570  0.06510  0.73420  1.0000 0.1297727088
H   H16       1.0  0.90430  0.93490  0.26580  1.0000 0.1297727088
H   H17       1.0  0.07060  0.99400  0.78130  1.0000 0.1297727088
H   H18       1.0  0.92940  0.00600  0.21870  1.0000 0.1297727088
H   H19       1.0  0.34200  0.84160  0.61520  1.0000 0.1297727088
H   H20       1.0  0.65800  0.15840  0.38480  1.0000 0.1297727088
H   H21       1.0  0.37190  0.97480  0.55780  1.0000 0.1297727088
H   H22       1.0  0.62810  0.02520  0.44220  1.0000 0.1297727088
H   H23       1.0  0.26150  0.14940  0.66470  1.0000 0.1297727088
H   H24       1.0  0.73850  0.85060  0.33530  1.0000 0.1297727088
H   H25       1.0  0.49890  0.16430  0.28370  1.0000 0.12071253
H   H26       1.0  0.50110  0.83570  0.71630  1.0000 0.12071253
H   H27       1.0  0.20580  0.09190  0.35890  1.0000 0.12071253
H   H28       1.0  0.79420  0.90810  0.64110  1.0000 0.12071253
H   H29       1.0  0.10700  0.99490  0.28410  1.0000 0.12071253
H   H30       1.0  0.89300  0.00510  0.71590  1.0000 0.12071253
H   H31       1.0  0.44210  0.91870  0.20920  1.0000 0.1297727088
H   H32       1.0  0.55790  0.08130  0.79080  1.0000 0.1297727088
H   H33       1.0  0.54800  0.03000  0.21510  1.0000 0.1297727088
H   H34       1.0  0.45200  0.97000  0.78490  1.0000 0.1297727088
H   H35       1.0  0.51010  0.96660  0.16000  1.0000 0.1297727088
H   H36       1.0  0.48990  0.03340  0.84000  1.0000 0.1297727088
H   H37       1.0  0.50130  0.13290  0.12780  1.0000 0.136469972
H   H38       1.0  0.49870  0.86710  0.87220  1.0000 0.136469972
H   H39       1.0  0.53640  0.19960  0.18240  1.0000 0.1297727088
H   H40       1.0  0.46360  0.80040  0.81760  1.0000 0.1297727088
H   H41       1.0  0.42500  0.18730  0.15560  1.0000 0.1297727088
H   H42       1.0  0.57500  0.81270  0.84440  1.0000 0.1297727088
H   H43       1.0  0.03640  0.89670  0.18530  1.0000 0.12071253
H   H44       1.0  0.96360  0.10330  0.81470  1.0000 0.12071253
H   H45       1.0  0.35510  0.92660  0.08860  1.0000 0.1297727088
H   H46       1.0  0.64490  0.07340  0.91140  1.0000 0.1297727088
H   H47       1.0  0.01890  0.80860  0.10220  1.0000 0.12071253
H   H48       1.0  0.98110  0.19140  0.89780  1.0000 0.12071253
H   H49       1.0  0.09470  0.37530  0.14840  1.0000 0.1297727088
H   H50       1.0  0.90530  0.62470  0.85160  1.0000 0.1297727088
H   H51       1.0  0.30660  0.66650  0.10500  1.0000 0.12071253
H   H52       1.0  0.69340  0.33350  0.89500  1.0000 0.12071253
H   H53       1.0  0.40870  0.70310  0.18150  1.0000 0.12071253
H   H54       1.0  0.59130  0.29690  0.81850  1.0000 0.12071253
H   H55       1.0  0.07770  0.40390  0.28150  1.0000 0.136469972
H   H56       1.0  0.92230  0.59610  0.71850  1.0000 0.136469972
H   H57       1.0  0.08610  0.29410  0.29200  1.0000 0.12071253
H   H58       1.0  0.91390  0.70590  0.70800  1.0000 0.12071253
H   H59       1.0  0.03580  0.30290  0.23930  1.0000 0.12071253
H   H60       1.0  0.96420  0.69710  0.76070  1.0000 0.12071253
H   H61       1.0  0.18660  0.24670  0.19330  1.0000 0.1297727088
H   H62       1.0  0.81340  0.75330  0.80670  1.0000 0.1297727088
H   H63       1.0  0.22620  0.24070  0.24900  1.0000 0.1297727088
H   H64       1.0  0.77380  0.75930  0.75100  1.0000 0.12071253
H   H65       1.0  0.31210  0.31410  0.21050  1.0000 0.1297727088
H   H66       1.0  0.68790  0.68590  0.78950  1.0000 0.1297727088
H   H67       1.0  0.49430  0.70690  0.27580  1.0000 0.12071253
H   H68       1.0  0.50570  0.29310  0.72420  1.0000 0.12071253
H   H69       1.0  0.53230  0.67600  0.35800  1.0000 0.1135448882
H   H70       1.0  0.46770  0.32400  0.64200  1.0000 0.1135448882
H   H71       1.0  0.27990  0.37790  0.34430  1.0000 0.1297727088
H   H72       1.0  0.72010  0.62210  0.65570  1.0000 0.1297727088
C   C1        1.0  0.19060  0.71190  0.86190  1.0000 0.5604282686
C   C2        1.0  0.80940  0.28810  0.13810  1.0000 0.5604282686
C   C3        1.0  0.20850  0.75900  0.81080  1.0000 -0.0200369057
C   C4        1.0  0.79150  0.24100  0.18920  1.0000 -0.0200369057
C   C5        1.0  0.19880  0.85840  0.80670  1.0000 -0.1661862812
C   C6        1.0  0.80120  0.14160  0.19330  1.0000 -0.1661862812
C   C7        1.0  0.23900  0.70400  0.76800  1.0000 -0.1105367756
C   C8        1.0  0.76100  0.29600  0.23200  1.0000 -0.1105367756
C   C9        1.0  0.26520  0.74950  0.72090  1.0000 -0.1491991449
C   C10       1.0  0.73480  0.25050  0.27910  1.0000 -0.1491991449
C   C11       1.0  0.25770  0.84900  0.71730  1.0000 0.0109252171
C   C12       1.0  0.74230  0.15100  0.28270  1.0000 0.0109252171
C   C13       1.0  0.22280  0.90240  0.75960  1.0000 0.0193350869
C   C14       1.0  0.77720  0.09760  0.24040  1.0000 0.0193350869
C   C15       1.0  0.21930  0.00880  0.74490  1.0000 0.1788215668
C   C16       1.0  0.78070  0.99120  0.25510  1.0000 0.1788215668
C   C17       1.0  0.29440  0.10910  0.78030  1.0000 -0.4611049077
C   C18       1.0  0.70560  0.89090  0.21970  1.0000 -0.4611049077
C   C19       1.0  0.09790  0.00050  0.74630  1.0000 -0.4669922224
C   C20       1.0  0.90210  0.99950  0.25370  1.0000 -0.4669922224
C   C21       1.0  0.26240  0.01080  0.68930  1.0000 0.0193350869
C   C22       1.0  0.73760  0.98920  0.31070  1.0000 0.0193350869
C   C23       1.0  0.28420  0.91830  0.67420  1.0000 0.0109252171
C   C24       1.0  0.71580  0.08170  0.32580  1.0000 0.0109252171
C   C25       1.0  0.32610  0.90280  0.62490  1.0000 -0.1287771544
C   C26       1.0  0.67390  0.09720  0.37510  1.0000 -0.1287771544
C   C27       1.0  0.34350  0.98270  0.59070  1.0000 -0.1024997017
C   C28       1.0  0.65650  0.01730  0.40930  1.0000 -0.1024997017
C   C29       1.0  0.27790  0.08850  0.65500  1.0000 -0.1595343953
C   C30       1.0  0.72210  0.91150  0.34500  1.0000 -0.1595343953
C   C31       1.0  0.31870  0.07350  0.60540  1.0000 -0.0128808495
C   C32       1.0  0.68130  0.92650  0.39460  1.0000 -0.0128808495
C   C33       1.0  0.33310  0.15430  0.56690  1.0000 0.5678103783
C   C34       1.0  0.66690  0.84570  0.43310  1.0000 0.5678103783
C   C35       1.0  0.42390  0.20080  0.37760  1.0000 0.5992456147
C   C36       1.0  0.57610  0.79920  0.62240  1.0000 0.5992456147
C   C37       1.0  0.36160  0.13830  0.32850  1.0000 -0.0200369057
C   C38       1.0  0.63840  0.86170  0.67150  1.0000 -0.0200369057
C   C39       1.0  0.42090  0.13040  0.28370  1.0000 -0.1491991449
C   C40       1.0  0.57910  0.86960  0.71630  1.0000 -0.1491991449
C   C41       1.0  0.24450  0.08690  0.32850  1.0000 -0.1105367756
C   C42       1.0  0.75550  0.91310  0.67150  1.0000 -0.1105367756
C   C43       1.0  0.18500  0.02850  0.28400  1.0000 -0.1595343953
C   C44       1.0  0.81500  0.97150  0.71600  1.0000 -0.1595343953
C   C45       1.0  0.24500  0.02140  0.23890  1.0000 0.0109252171
C   C46       1.0  0.75500  0.97860  0.76110  1.0000 0.0109252171
C   C47       1.0  0.36240  0.07120  0.23900  1.0000 0.0297459209
C   C48       1.0  0.63760  0.92880  0.76100  1.0000 0.0297459209
C   C49       1.0  0.41020  0.04690  0.18690  1.0000 0.1788215668
C   C50       1.0  0.58980  0.95310  0.81310  1.0000 0.1788215668
C   C51       1.0  0.48450  0.98480  0.19340  1.0000 -0.4669922224
C   C52       1.0  0.51550  0.01520  0.80660  1.0000 -0.4669922224
C   C53       1.0  0.47410  0.15140  0.16080  1.0000 -0.4493695727
C   C54       1.0  0.52590  0.84860  0.83920  1.0000 -0.4493695727
C   C55       1.0  0.30330  0.97470  0.15720  1.0000 0.0193350869
C   C56       1.0  0.69670  0.02530  0.84280  1.0000 0.0193350869
C   C57       1.0  0.20700  0.96390  0.18670  1.0000 0.0109252171
C   C58       1.0  0.79300  0.03610  0.81330  1.0000 0.0109252171
C   C59       1.0  0.09990  0.90210  0.16620  1.0000 -0.1661862812
C   C60       1.0  0.90010  0.09790  0.83380  1.0000 -0.1661862812
C   C61       1.0  0.29170  0.91990  0.10800  1.0000 -0.1491991449
C   C62       1.0  0.70830  0.08010  0.89200  1.0000 -0.1491991449
C   C63       1.0  0.09000  0.84900  0.11660  1.0000 -0.1105367756
C   C64       1.0  0.91000  0.15100  0.88340  1.0000 -0.1105367756
C   C65       1.0  0.18500  0.85470  0.08760  1.0000 -0.0128808495
C   C66       1.0  0.81500  0.14530  0.91240  1.0000 -0.0128808495
C   C67       1.0  0.17460  0.78770  0.03690  1.0000 0.5678103783
C   C68       1.0  0.82540  0.21230  0.96310  1.0000 0.5678103783
C   C69       1.0  0.12170  0.50260  0.07130  1.0000 0.6763435968
C   C70       1.0  0.87830  0.49740  0.92870  1.0000 0.6763435968
C   C71       1.0  0.19090  0.51940  0.11950  1.0000 -0.0371419868
C   C72       1.0  0.80910  0.48060  0.88050  1.0000 -0.0371419868
C   C73       1.0  0.15790  0.44020  0.15490  1.0000 -0.1491991449
C   C74       1.0  0.84210  0.55980  0.84510  1.0000 -0.1491991449
C   C75       1.0  0.28450  0.61540  0.12930  1.0000 -0.1105367756
C   C76       1.0  0.71550  0.38460  0.87070  1.0000 -0.1105367756
C   C77       1.0  0.34660  0.63730  0.17480  1.0000 -0.1491991449
C   C78       1.0  0.65340  0.36270  0.82520  1.0000 -0.1491991449
C   C79       1.0  0.31420  0.55910  0.21020  1.0000 0.0193350869
C   C80       1.0  0.68580  0.44090  0.78980  1.0000 0.0193350869
C   C81       1.0  0.22140  0.46020  0.20030  1.0000 0.0193350869
C   C82       1.0  0.77860  0.53980  0.79970  1.0000 0.0193350869
C   C83       1.0  0.20640  0.38640  0.24310  1.0000 0.1709061259
C   C84       1.0  0.79360  0.61360  0.75690  1.0000 0.1709061259
C   C85       1.0  0.09100  0.34190  0.26600  1.0000 -0.4611049077
C   C86       1.0  0.90900  0.65810  0.73400  1.0000 -0.4611049077
C   C87       1.0  0.23570  0.28750  0.22190  1.0000 -0.4493695727
C   C88       1.0  0.76430  0.71250  0.77810  1.0000 -0.4493695727
C   C89       1.0  0.29690  0.46220  0.28180  1.0000 0.0193350869
C   C90       1.0  0.70310  0.53780  0.71820  1.0000 0.0193350869
C   C91       1.0  0.36010  0.56110  0.26140  1.0000 0.0109252171
C   C92       1.0  0.63990  0.43890  0.73860  1.0000 0.0109252171
C   C93       1.0  0.45050  0.64180  0.28960  1.0000 -0.1595343953
C   C94       1.0  0.54950  0.35820  0.71040  1.0000 -0.1595343953
C   C95       1.0  0.47320  0.62240  0.33860  1.0000 -0.1105367756
C   C96       1.0  0.52680  0.37760  0.66140  1.0000 -0.1105367756
C   C97       1.0  0.32190  0.44390  0.33080  1.0000 -0.1491991449
C   C98       1.0  0.67810  0.55610  0.66920  1.0000 -0.1491991449
C   C99       1.0  0.40980  0.52470  0.35940  1.0000 -0.0284639212
C   C100      1.0  0.59020  0.47530  0.64060  1.0000 -0.0284639212
C   C101      1.0  0.43850  0.50500  0.41220  1.0000 0.6879628071
C   C102      1.0  0.56150  0.49500  0.58780  1.0000 0.6879628071
O   O1        1.0  0.18050  0.76870  0.90270  1.0000 -0.6215976826
O   O2        1.0  0.81950  0.23130  0.09730  1.0000 -0.6215976826
O   O3        1.0  0.18770  0.61700  0.86429  1.0000 -0.6601989996
O   O4        1.0  0.81230  0.38300  0.13571  1.0000 -0.6601989996
O   O5        1.0  0.28210  0.21730  0.57297  1.0000 -0.6302967897
O   O6        1.0  0.71790  0.78270  0.42703  1.0000 -0.6302967897
O   O7        1.0  0.39610  0.15620  0.52786  1.0000 -0.6302967897
O   O8        1.0  0.60390  0.84380  0.47214  1.0000 -0.6302967897
O   O9        1.0  0.36730  0.19270  0.41862  1.0000 -0.6793608299
O   O10       1.0  0.63270  0.80730  0.58138  1.0000 -0.6793608299
O   O11       1.0  0.52820  0.25630  0.37460  1.0000 -0.5389694205
O   O12       1.0  0.47180  0.74370  0.62540  1.0000 -0.5389694205
O   O13       1.0  0.07730  0.72440  0.01907  1.0000 -0.6215976826
O   O14       1.0  0.92270  0.27560  0.98093  1.0000 -0.6302967897
O   O15       1.0  0.26150  0.79120  0.01309  1.0000 -0.6215976826
O   O16       1.0  0.73850  0.20880  0.98691  1.0000 -0.6215976826
O   O17       1.0  0.16330  0.56310  0.03655  1.0000 -0.6601989996
O   O18       1.0  0.83670  0.43690  0.96345  1.0000 -0.6601989996
O   O19       1.0  0.02420  0.42880  0.06996  1.0000 -0.6601989996
O   O20       1.0  0.97580  0.57120  0.93004  1.0000 -0.6601989996
O   O21       1.0  0.51130  0.58350  0.43909  1.0000 -0.7039649418
O   O22       1.0  0.48870  0.41650  0.56091  1.0000 -0.7039649418
O   O23       1.0  0.38830  0.41180  0.42653  1.0000 -0.6793608299
O   O24       1.0  0.61170  0.58820  0.57347  1.0000 -0.6793608299
