# DDEC6 charges by PACMAN v1.1 (https://github.com/mtap-research/PACMAN-charge/)
data_2014[Zn][nan]3[ASR]15
_chemical_formula_sum              "Zn12 H152 C256 N16 O48"
_cell_length_a       10.117
_cell_length_b       29.539
_cell_length_c       29.556
_cell_angle_alpha    91.446
_cell_angle_beta     93.321
_cell_angle_gamma    91.615

_symmetry_space_group_name_H-M    "P 1"
_symmetry_Int_Tables_number       1

loop_
  _symmetry_equiv_pos_as_xyz
  'x, y, z'

loop_
  _atom_site_type_symbol
  _atom_site_label
  _atom_site_symmetry_multiplicity
  _atom_site_fract_x
  _atom_site_fract_y
  _atom_site_fract_z
  _atom_site_occupancy
  _atom_site_charge
Zn  Zn1       1.0  0.89940  0.23206  0.77574  1.0000 0.9488056924
Zn  Zn2       1.0  0.60471  0.22766  0.76648  1.0000 0.9488056924
Zn  Zn3       1.0  0.26718  0.03857  0.59677  1.0000 0.7328414377
Zn  Zn4       1.0  0.23600  0.40468  0.96225  1.0000 0.7328414377
Zn  Zn5       1.0  0.24767  0.05175  0.94888  1.0000 0.7464170035
Zn  Zn6       1.0  0.25868  0.40600  0.59359  1.0000 0.7328414377
Zn  Zn7       1.0  0.10060  0.76794  0.22426  1.0000 0.9488056924
Zn  Zn8       1.0  0.39529  0.77234  0.23352  1.0000 0.9488056924
Zn  Zn9       1.0  0.73282  0.96143  0.40323  1.0000 0.7355905946
Zn  Zn10      1.0  0.76400  0.59532  0.03775  1.0000 0.7328414377
Zn  Zn11      1.0  0.75233  0.94825  0.05112  1.0000 0.7464170035
Zn  Zn12      1.0  0.74132  0.59400  0.40641  1.0000 0.7328414377
H   H1        1.0  0.96450  0.33333  0.67400  1.0000 0.1368589278
H   H2        1.0  0.56850  0.32910  0.66920  1.0000 0.1368589278
H   H3        1.0  0.76260  0.41310  0.58820  1.0000 0.1200776438
H   H4        1.0  0.73200  0.41010  0.96730  1.0000 0.1104870147
H   H5        1.0  0.51740  0.32860  0.87780  1.0000 0.1290313498
H   H6        1.0  0.91590  0.32970  0.88050  1.0000 0.1368589278
H   H7        1.0  0.11060  0.11300  0.00280  1.0000 0.1104870147
H   H8        1.0  0.08960  0.13840  0.07580  1.0000 0.1200776438
H   H9        1.0  0.35810  0.04830  0.11790  1.0000 0.1290313498
H   H10       1.0  0.37700  0.02660  0.04220  1.0000 0.1200776438
H   H11       1.0  0.04240  0.18690  0.20880  1.0000 0.1104870147
H   H12       1.0  0.04050  0.14660  0.14090  1.0000 0.1015999448
H   H13       1.0  0.37890  0.08910  0.18240  1.0000 0.1104870147
H   H14       1.0  0.38100  0.13000  0.25110  1.0000 0.1200776438
H   H15       1.0  0.40350  0.35280  0.02290  1.0000 0.1104870147
H   H16       1.0  0.40190  0.31630  0.09030  1.0000 0.1290313498
H   H17       1.0  0.07440  0.38060  0.11720  1.0000 0.1290313498
H   H18       1.0  0.07950  0.41340  0.04770  1.0000 0.1200776438
H   H19       1.0  0.05110  0.30320  0.24100  1.0000 0.1104870147
H   H20       1.0  0.06050  0.34430  0.17550  1.0000 0.1015999448
H   H21       1.0  0.38940  0.27860  0.14540  1.0000 0.1104870147
H   H22       1.0  0.37800  0.23860  0.21190  1.0000 0.1104870147
H   H23       1.0  0.35460  0.21760  0.35800  1.0000 0.1104870147
H   H24       1.0  0.37130  0.18100  0.42490  1.0000 0.1104870147
H   H25       1.0  0.15400  0.07500  0.36750  1.0000 0.1200776438
H   H26       1.0  0.14000  0.11280  0.30000  1.0000 0.1104870147
H   H27       1.0  0.29380  0.12380  0.55350  1.0000 0.1200776438
H   H28       1.0  0.35210  0.15010  0.48330  1.0000 0.1290313498
H   H29       1.0  0.18100  0.04430  0.42890  1.0000 0.1368589278
H   H30       1.0  0.15950  0.01520  0.50060  1.0000 0.1290313498
H   H31       1.0  0.34480  0.31270  0.30370  1.0000 0.1200776438
H   H32       1.0  0.34110  0.35580  0.36970  1.0000 0.1104870147
H   H33       1.0  0.03110  0.28280  0.40800  1.0000 0.1200776438
H   H34       1.0  0.02850  0.24000  0.33930  1.0000 0.1200776438
H   H35       1.0  0.31450  0.43090  0.50120  1.0000 0.1104870147
H   H36       1.0  0.29440  0.39920  0.42820  1.0000 0.1290313498
H   H37       1.0  0.13110  0.29010  0.47760  1.0000 0.1290313498
H   H38       1.0  0.14230  0.32760  0.54830  1.0000 0.1290313498
H   H39       1.0  0.12270  0.78920  0.75810  1.0000 0.1104870147
H   H40       1.0  0.11750  0.85630  0.72060  1.0000 0.1104870147
H   H41       1.0  0.43960  0.82310  0.65780  1.0000 0.1104870147
H   H42       1.0  0.45130  0.75690  0.69920  1.0000 0.1200776438
H   H43       1.0  0.09060  0.97640  0.64040  1.0000 0.1104870147
H   H44       1.0  0.09370  0.90810  0.67750  1.0000 0.1290313498
H   H45       1.0  0.43310  0.88230  0.62370  1.0000 0.1290313498
H   H46       1.0  0.43090  0.95220  0.59160  1.0000 0.1200776438
H   H47       1.0  0.16750  0.62960  0.64340  1.0000 0.1200776438
H   H48       1.0  0.16640  0.69700  0.68470  1.0000 0.1200776438
H   H49       1.0  0.47240  0.65780  0.76460  1.0000 0.1200776438
H   H50       1.0  0.47900  0.59070  0.72300  1.0000 0.1200776438
H   H51       1.0  0.35740  0.45050  0.67500  1.0000 0.1290313498
H   H52       1.0  0.39180  0.52070  0.70890  1.0000 0.1290313498
H   H53       1.0  0.24910  0.57350  0.59460  1.0000 0.1368589278
H   H54       1.0  0.21250  0.49970  0.56500  1.0000 0.1104870147
H   H55       1.0  0.14830  0.64460  0.78190  1.0000 0.1104870147
H   H56       1.0  0.13160  0.57760  0.81910  1.0000 0.1104870147
H   H57       1.0  0.34740  0.63340  0.92630  1.0000 0.1200776438
H   H58       1.0  0.36560  0.70090  0.88720  1.0000 0.1104870147
H   H59       1.0  0.11850  0.45130  0.89020  1.0000 0.1104870147
H   H60       1.0  0.10350  0.52310  0.85810  1.0000 0.1290313498
H   H61       1.0  0.36110  0.56840  0.95370  1.0000 0.1368589278
H   H62       1.0  0.36070  0.49810  0.98490  1.0000 0.1290313498
H   H63       1.0  0.45990  0.79150  0.81210  1.0000 0.1104870147
H   H64       1.0  0.45300  0.85980  0.85040  1.0000 0.1104870147
H   H65       1.0  0.12610  0.81990  0.90940  1.0000 0.1104870147
H   H66       1.0  0.12470  0.75100  0.86870  1.0000 0.1200776438
H   H67       1.0  0.38000  0.99800  0.88350  1.0000 0.1104870147
H   H68       1.0  0.39670  0.92540  0.85760  1.0000 0.1200776438
H   H69       1.0  0.15500  0.88350  0.95160  1.0000 0.1290313498
H   H70       1.0  0.13340  0.95840  0.97420  1.0000 0.1200776438
H   H71       1.0  0.77370  0.03460  0.59040  1.0000 0.1104870147
H   H72       1.0  0.58600  0.12000  0.67050  1.0000 0.1368589278
H   H73       1.0  0.98600  0.12380  0.67220  1.0000 0.1290313498
H   H74       1.0  0.54200  0.13040  0.87170  1.0000 0.1368589278
H   H75       1.0  0.74590  0.04650  0.95330  1.0000 0.1104870147
H   H76       1.0  0.94140  0.12730  0.87100  1.0000 0.1368589278
H   H77       1.0  0.03550  0.66667  0.32600  1.0000 0.1368589278
H   H78       1.0  0.43150  0.67090  0.33080  1.0000 0.1368589278
H   H79       1.0  0.23740  0.58690  0.41180  1.0000 0.1290313498
H   H80       1.0  0.26800  0.58990  0.03270  1.0000 0.1104870147
H   H81       1.0  0.48260  0.67140  0.12220  1.0000 0.1290313498
H   H82       1.0  0.08410  0.67030  0.11950  1.0000 0.1368589278
H   H83       1.0  0.88940  0.88700  0.99720  1.0000 0.1104870147
H   H84       1.0  0.91040  0.86160  0.92420  1.0000 0.1200776438
H   H85       1.0  0.64190  0.95170  0.88210  1.0000 0.1290313498
H   H86       1.0  0.62300  0.97340  0.95780  1.0000 0.1200776438
H   H87       1.0  0.95760  0.81310  0.79120  1.0000 0.1104870147
H   H88       1.0  0.95950  0.85340  0.85910  1.0000 0.1015999448
H   H89       1.0  0.62110  0.91090  0.81760  1.0000 0.1104870147
H   H90       1.0  0.61900  0.87000  0.74890  1.0000 0.1200776438
H   H91       1.0  0.59650  0.64720  0.97710  1.0000 0.1104870147
H   H92       1.0  0.59810  0.68370  0.90970  1.0000 0.1290313498
H   H93       1.0  0.92560  0.61940  0.88280  1.0000 0.1290313498
H   H94       1.0  0.92050  0.58660  0.95230  1.0000 0.1200776438
H   H95       1.0  0.94890  0.69680  0.75900  1.0000 0.1104870147
H   H96       1.0  0.93950  0.65570  0.82450  1.0000 0.1015999448
H   H97       1.0  0.61060  0.72140  0.85460  1.0000 0.1104870147
H   H98       1.0  0.62200  0.76140  0.78810  1.0000 0.1104870147
H   H99       1.0  0.64540  0.78240  0.64200  1.0000 0.1104870147
H   H100      1.0  0.62870  0.81900  0.57510  1.0000 0.1104870147
H   H101      1.0  0.84600  0.92500  0.63250  1.0000 0.1200776438
H   H102      1.0  0.86000  0.88720  0.70000  1.0000 0.1104870147
H   H103      1.0  0.70620  0.87620  0.44650  1.0000 0.1200776438
H   H104      1.0  0.64790  0.84990  0.51670  1.0000 0.1290313498
H   H105      1.0  0.81900  0.95570  0.57110  1.0000 0.1368589278
H   H106      1.0  0.84050  0.98480  0.49940  1.0000 0.1200776438
H   H107      1.0  0.65520  0.68730  0.69630  1.0000 0.1200776438
H   H108      1.0  0.65890  0.64420  0.63030  1.0000 0.1104870147
H   H109      1.0  0.96890  0.71720  0.59200  1.0000 0.1200776438
H   H110      1.0  0.97150  0.76000  0.66070  1.0000 0.1200776438
H   H111      1.0  0.68550  0.56910  0.49880  1.0000 0.1104870147
H   H112      1.0  0.70560  0.60080  0.57180  1.0000 0.1290313498
H   H113      1.0  0.86890  0.70990  0.52240  1.0000 0.1290313498
H   H114      1.0  0.85770  0.67240  0.45170  1.0000 0.1290313498
H   H115      1.0  0.87730  0.21080  0.24190  1.0000 0.1104870147
H   H116      1.0  0.88250  0.14370  0.27940  1.0000 0.1104870147
H   H117      1.0  0.56040  0.17690  0.34220  1.0000 0.1104870147
H   H118      1.0  0.54870  0.24310  0.30080  1.0000 0.1200776438
H   H119      1.0  0.90940  0.02360  0.35960  1.0000 0.1104870147
H   H120      1.0  0.90630  0.09190  0.32250  1.0000 0.1290313498
H   H121      1.0  0.56690  0.11770  0.37630  1.0000 0.1290313498
H   H122      1.0  0.56910  0.04780  0.40840  1.0000 0.1200776438
H   H123      1.0  0.83250  0.37040  0.35660  1.0000 0.1200776438
H   H124      1.0  0.83360  0.30300  0.31530  1.0000 0.1200776438
H   H125      1.0  0.52760  0.34220  0.23540  1.0000 0.1200776438
H   H126      1.0  0.52100  0.40930  0.27700  1.0000 0.1200776438
H   H127      1.0  0.64260  0.54950  0.32500  1.0000 0.1290313498
H   H128      1.0  0.60820  0.47930  0.29110  1.0000 0.1290313498
H   H129      1.0  0.75090  0.42650  0.40540  1.0000 0.1368589278
H   H130      1.0  0.78750  0.50030  0.43500  1.0000 0.1104870147
H   H131      1.0  0.85170  0.35540  0.21810  1.0000 0.1104870147
H   H132      1.0  0.86840  0.42240  0.18090  1.0000 0.1104870147
H   H133      1.0  0.65260  0.36660  0.07370  1.0000 0.1200776438
H   H134      1.0  0.63440  0.29910  0.11280  1.0000 0.1104870147
H   H135      1.0  0.88150  0.54870  0.10980  1.0000 0.1104870147
H   H136      1.0  0.89650  0.47690  0.14190  1.0000 0.1290313498
H   H137      1.0  0.63890  0.43160  0.04630  1.0000 0.1368589278
H   H138      1.0  0.63930  0.50190  0.01510  1.0000 0.1290313498
H   H139      1.0  0.54010  0.20850  0.18790  1.0000 0.1104870147
H   H140      1.0  0.54700  0.14020  0.14960  1.0000 0.1104870147
H   H141      1.0  0.87390  0.18010  0.09060  1.0000 0.1104870147
H   H142      1.0  0.87530  0.24900  0.13130  1.0000 0.1200776438
H   H143      1.0  0.62000  0.00200  0.11650  1.0000 0.1104870147
H   H144      1.0  0.60330  0.07460  0.14240  1.0000 0.1200776438
H   H145      1.0  0.84500  0.11650  0.04840  1.0000 0.1290313498
H   H146      1.0  0.86660  0.04160  0.02580  1.0000 0.1200776438
H   H147      1.0  0.22630  0.96540  0.40960  1.0000 0.1104870147
H   H148      1.0  0.41400  0.88000  0.32950  1.0000 0.1368589278
H   H149      1.0  0.01400  0.87620  0.32780  1.0000 0.1290313498
H   H150      1.0  0.45800  0.86960  0.12830  1.0000 0.1368589278
H   H151      1.0  0.25410  0.95350  0.04670  1.0000 0.1104870147
H   H152      1.0  0.05860  0.87270  0.12900  1.0000 0.1368589278
C   C1        1.0  0.88200  0.37629  0.62838  1.0000 -0.0133338966
C   C2        1.0  0.88230  0.34365  0.66157  1.0000 -0.0916315408
C   C3        1.0  0.76820  0.32630  0.67656  1.0000 -0.0291709072
C   C4        1.0  0.64900  0.34129  0.65891  1.0000 -0.0916315408
C   C5        1.0  0.64550  0.37472  0.62549  1.0000 -0.0291709072
C   C6        1.0  0.76340  0.39101  0.61098  1.0000 -0.0916315408
C   C7        1.0  0.00880  0.39463  0.61103  1.0000 0.5388669447
C   C8        1.0  0.76720  0.29076  0.71211  1.0000 0.6073764142
C   C9        1.0  0.84370  0.37271  0.92664  1.0000 -0.0291709072
C   C10       1.0  0.72770  0.38802  0.94331  1.0000 -0.1109577038
C   C11       1.0  0.60520  0.37169  0.92554  1.0000 -0.037535337
C   C12       1.0  0.60090  0.33990  0.89036  1.0000 -0.0916315408
C   C13       1.0  0.71630  0.32398  0.87289  1.0000 -0.0196076061
C   C14       1.0  0.83640  0.34063  0.89179  1.0000 -0.0916315408
C   C15       1.0  0.97280  0.39191  0.94630  1.0000 0.5388669447
C   C16       1.0  0.48370  0.38877  0.94478  1.0000 0.5388669447
C   C17       1.0  0.71280  0.29012  0.83326  1.0000 0.591862696
C   C18       1.0  0.16300  0.09980  0.02648  1.0000 0.0890328488
C   C19       1.0  0.15000  0.11510  0.07010  1.0000 -0.2087719772
C   C20       1.0  0.22440  0.09704  0.10677  1.0000 0.1200776438
C   C21       1.0  0.30700  0.06300  0.09493  1.0000 -0.2017240544
C   C22       1.0  0.31680  0.04950  0.04931  1.0000 0.1104870147
C   C23       1.0  0.11430  0.16790  0.20320  1.0000 -0.1418292217
C   C24       1.0  0.11320  0.14410  0.16240  1.0000 -0.1418292217
C   C25       1.0  0.21590  0.11680  0.15262  1.0000 0.0630344559
C   C26       1.0  0.31210  0.11042  0.18700  1.0000 -0.1496558412
C   C27       1.0  0.31300  0.13466  0.22832  1.0000 -0.1496558412
C   C28       1.0  0.33290  0.35820  0.04200  1.0000 0.0716650577
C   C29       1.0  0.33260  0.33620  0.08240  1.0000 -0.2087719772
C   C30       1.0  0.23270  0.34260  0.11172  1.0000 0.1200776438
C   C31       1.0  0.14280  0.37300  0.09790  1.0000 -0.2017240544
C   C32       1.0  0.14770  0.39340  0.05630  1.0000 0.0890328488
C   C33       1.0  0.11990  0.29750  0.22130  1.0000 -0.15693844
C   C34       1.0  0.12570  0.32250  0.18220  1.0000 -0.1348637168
C   C35       1.0  0.22470  0.31600  0.15365  1.0000 0.0716650577
C   C36       1.0  0.31940  0.28380  0.16480  1.0000 -0.1496558412
C   C37       1.0  0.31110  0.25950  0.20430  1.0000 -0.1496558412
C   C38       1.0  0.21670  0.16510  0.23631  1.0000 0.0716650577
C   C39       1.0  0.20890  0.26470  0.23273  1.0000 0.0716650577
C   C40       1.0  0.20480  0.23970  0.27587  1.0000 -0.0196076061
C   C41       1.0  0.21820  0.19500  0.27782  1.0000 -0.0291709072
C   C42       1.0  0.23610  0.17130  0.32155  1.0000 0.0716650577
C   C43       1.0  0.31020  0.18903  0.36003  1.0000 -0.1418292217
C   C44       1.0  0.32120  0.16729  0.39979  1.0000 -0.1496558412
C   C45       1.0  0.25830  0.12412  0.40416  1.0000 0.0783773985
C   C46       1.0  0.19310  0.10460  0.36609  1.0000 -0.1418292217
C   C47       1.0  0.18380  0.12750  0.32585  1.0000 -0.15693844
C   C48       1.0  0.28860  0.10380  0.52770  1.0000 0.0890328488
C   C49       1.0  0.30660  0.12160  0.48480  1.0000 -0.1899535878
C   C50       1.0  0.26520  0.10170  0.44790  1.0000 0.1015999448
C   C51       1.0  0.21520  0.06180  0.45460  1.0000 -0.1847706858
C   C52       1.0  0.20850  0.04280  0.49800  1.0000 0.1200776438
C   C53       1.0  0.19240  0.26970  0.31606  1.0000 0.0716650577
C   C54       1.0  0.28110  0.30560  0.32500  1.0000 -0.1496558412
C   C55       1.0  0.27870  0.33140  0.36440  1.0000 -0.1496558412
C   C56       1.0  0.18730  0.32250  0.39640  1.0000 0.0630344559
C   C57       1.0  0.09630  0.28900  0.38700  1.0000 -0.1496558412
C   C58       1.0  0.09600  0.26260  0.34590  1.0000 -0.1496558412
C   C59       1.0  0.26940  0.40230  0.49730  1.0000 0.1290313498
C   C60       1.0  0.25520  0.38320  0.45170  1.0000 -0.2087719772
C   C61       1.0  0.19270  0.34570  0.44130  1.0000 0.1104870147
C   C62       1.0  0.16070  0.32090  0.48050  1.0000 -0.2153747503
C   C63       1.0  0.17380  0.34290  0.52300  1.0000 0.0250884842
C   C64       1.0  0.29760  0.72387  0.75970  1.0000 -0.0196076061
C   C65       1.0  0.28360  0.72205  0.80470  1.0000 -0.0291709072
C   C66       1.0  0.29300  0.76632  0.73370  1.0000 0.0716650577
C   C67       1.0  0.19050  0.79620  0.73830  1.0000 -0.15693844
C   C68       1.0  0.18520  0.83560  0.71490  1.0000 -0.1496558412
C   C69       1.0  0.27540  0.84601  0.68320  1.0000 0.0783773985
C   C70       1.0  0.37370  0.81670  0.67850  1.0000 -0.1496558412
C   C71       1.0  0.38100  0.77690  0.70380  1.0000 -0.1496558412
C   C72       1.0  0.16570  0.95810  0.63820  1.0000 0.1015999448
C   C73       1.0  0.16620  0.91640  0.66010  1.0000 -0.1899535878
C   C74       1.0  0.26490  0.88888  0.65700  1.0000 0.1200776438
C   C75       1.0  0.36320  0.90210  0.62930  1.0000 -0.2017240544
C   C76       1.0  0.36050  0.94360  0.60980  1.0000 0.0716650577
C   C77       1.0  0.32250  0.60170  0.67930  1.0000 0.0630344559
C   C78       1.0  0.22980  0.63480  0.66840  1.0000 -0.1418292217
C   C79       1.0  0.22800  0.67470  0.69350  1.0000 -0.1496558412
C   C80       1.0  0.31210  0.68333  0.73080  1.0000 0.0630344559
C   C81       1.0  0.40820  0.65170  0.74030  1.0000 -0.1496558412
C   C82       1.0  0.41260  0.61170  0.71530  1.0000 -0.1496558412
C   C83       1.0  0.33320  0.47630  0.65820  1.0000 0.0716650577
C   C84       1.0  0.35240  0.51820  0.67900  1.0000 -0.2017240544
C   C85       1.0  0.31420  0.55710  0.65630  1.0000 0.1200776438
C   C86       1.0  0.26940  0.54870  0.61340  1.0000 -0.2087719772
C   C87       1.0  0.25100  0.50370  0.59490  1.0000 0.1200776438
C   C88       1.0  0.26720  0.67937  0.82920  1.0000 0.0716650577
C   C89       1.0  0.19270  0.64220  0.81090  1.0000 -0.1496558412
C   C90       1.0  0.18110  0.60238  0.83330  1.0000 -0.1496558412
C   C91       1.0  0.23990  0.59743  0.87610  1.0000 0.0716650577
C   C92       1.0  0.30850  0.63515  0.89640  1.0000 -0.1418292217
C   C93       1.0  0.31990  0.67552  0.87270  1.0000 -0.15693844
C   C94       1.0  0.16820  0.47590  0.90460  1.0000 0.1104870147
C   C95       1.0  0.16260  0.51940  0.88380  1.0000 -0.2087719772
C   C96       1.0  0.23660  0.55382  0.89940  1.0000 0.1200776438
C   C97       1.0  0.30840  0.54470  0.93890  1.0000 -0.2087719772
C   C98       1.0  0.30700  0.50250  0.95800  1.0000 0.1015999448
C   C99       1.0  0.28610  0.76463  0.83340  1.0000 0.0716650577
C   C100      1.0  0.38780  0.79740  0.83040  1.0000 -0.1418292217
C   C101      1.0  0.38400  0.83790  0.85370  1.0000 -0.1418292217
C   C102      1.0  0.28570  0.84824  0.88150  1.0000 0.0630344559
C   C103      1.0  0.19150  0.81482  0.88820  1.0000 -0.15693844
C   C104      1.0  0.19130  0.77347  0.86401  1.0000 -0.1496558412
C   C105      1.0  0.33160  0.97453  0.89712  1.0000 0.0783773985
C   C106      1.0  0.34250  0.93147  0.88210  1.0000 -0.2017240544
C   C107      1.0  0.27570  0.89531  0.90183  1.0000 0.1290313498
C   C108      1.0  0.20070  0.90664  0.93645  1.0000 -0.1899535878
C   C109      1.0  0.18900  0.95148  0.95030  1.0000 0.1104870147
C   C110      1.0  0.89560  0.07610  0.62899  1.0000 -0.0196076061
C   C111      1.0  0.77720  0.05830  0.61280  1.0000 -0.1109577038
C   C112      1.0  0.66000  0.07462  0.62876  1.0000 -0.0133338966
C   C113      1.0  0.66610  0.10878  0.65999  1.0000 -0.0916315408
C   C114      1.0  0.78590  0.12806  0.67724  1.0000 -0.0196076061
C   C115      1.0  0.90250  0.11128  0.66119  1.0000 -0.0916315408
C   C116      1.0  0.02040  0.05679  0.61164  1.0000 0.5388669447
C   C117      1.0  0.52830  0.05379  0.61023  1.0000 0.5388669447
C   C118      1.0  0.79050  0.16719  0.71134  1.0000 0.591862696
C   C119      1.0  0.74180  0.13322  0.86562  1.0000 -0.0196076061
C   C120      1.0  0.62350  0.11837  0.88272  1.0000 -0.097491977
C   C121      1.0  0.62460  0.08550  0.91628  1.0000 -0.0291709072
C   C122      1.0  0.74440  0.06888  0.93077  1.0000 -0.1244842533
C   C123      1.0  0.86320  0.08304  0.91422  1.0000 -0.0291709072
C   C124      1.0  0.86070  0.11613  0.88199  1.0000 -0.0916315408
C   C125      1.0  0.74070  0.16935  0.82985  1.0000 0.6073764142
C   C126      1.0  0.50000  0.06912  0.93581  1.0000 0.5336377945
C   C127      1.0  0.98990  0.06358  0.93140  1.0000 0.5388669447
C   C128      1.0  0.51780  0.39126  0.60637  1.0000 0.5336377945
C   C129      1.0  0.11800  0.62371  0.37162  1.0000 -0.0133338966
C   C130      1.0  0.11770  0.65635  0.33843  1.0000 -0.0916315408
C   C131      1.0  0.23180  0.67370  0.32344  1.0000 -0.0291709072
C   C132      1.0  0.35100  0.65871  0.34109  1.0000 -0.0916315408
C   C133      1.0  0.35450  0.62528  0.37451  1.0000 -0.0291709072
C   C134      1.0  0.23660  0.60899  0.38902  1.0000 -0.0916315408
C   C135      1.0  0.99120  0.60537  0.38897  1.0000 0.5388669447
C   C136      1.0  0.23280  0.70924  0.28789  1.0000 0.6073764142
C   C137      1.0  0.15630  0.62729  0.07336  1.0000 -0.0291709072
C   C138      1.0  0.27230  0.61198  0.05669  1.0000 -0.1109577038
C   C139      1.0  0.39480  0.62831  0.07446  1.0000 -0.037535337
C   C140      1.0  0.39910  0.66010  0.10964  1.0000 -0.0916315408
C   C141      1.0  0.28370  0.67602  0.12711  1.0000 -0.0196076061
C   C142      1.0  0.16360  0.65937  0.10821  1.0000 -0.0916315408
C   C143      1.0  0.02720  0.60809  0.05370  1.0000 0.5388669447
C   C144      1.0  0.51630  0.61123  0.05522  1.0000 0.5388669447
C   C145      1.0  0.28720  0.70988  0.16674  1.0000 0.591862696
C   C146      1.0  0.83700  0.90020  0.97352  1.0000 0.0890328488
C   C147      1.0  0.85000  0.88490  0.92990  1.0000 -0.2087719772
C   C148      1.0  0.77560  0.90296  0.89323  1.0000 0.1200776438
C   C149      1.0  0.69300  0.93700  0.90507  1.0000 -0.2017240544
C   C150      1.0  0.68320  0.95050  0.95069  1.0000 0.1104870147
C   C151      1.0  0.88570  0.83210  0.79680  1.0000 -0.1418292217
C   C152      1.0  0.88680  0.85590  0.83760  1.0000 -0.1418292217
C   C153      1.0  0.78410  0.88320  0.84738  1.0000 0.0630344559
C   C154      1.0  0.68790  0.88958  0.81300  1.0000 -0.1496558412
C   C155      1.0  0.68700  0.86534  0.77168  1.0000 -0.1496558412
C   C156      1.0  0.66710  0.64180  0.95800  1.0000 0.0716650577
C   C157      1.0  0.66740  0.66380  0.91760  1.0000 -0.2087719772
C   C158      1.0  0.76730  0.65740  0.88828  1.0000 0.1200776438
C   C159      1.0  0.85720  0.62700  0.90210  1.0000 -0.2017240544
C   C160      1.0  0.85230  0.60660  0.94370  1.0000 0.0890328488
C   C161      1.0  0.88010  0.70250  0.77870  1.0000 -0.15693844
C   C162      1.0  0.87430  0.67750  0.81780  1.0000 -0.1348637168
C   C163      1.0  0.77530  0.68400  0.84635  1.0000 0.0716650577
C   C164      1.0  0.68060  0.71620  0.83520  1.0000 -0.1496558412
C   C165      1.0  0.68890  0.74050  0.79570  1.0000 -0.1496558412
C   C166      1.0  0.78330  0.83490  0.76369  1.0000 0.0716650577
C   C167      1.0  0.79110  0.73530  0.76727  1.0000 0.0716650577
C   C168      1.0  0.79520  0.76030  0.72413  1.0000 -0.0196076061
C   C169      1.0  0.78180  0.80500  0.72218  1.0000 -0.0291709072
C   C170      1.0  0.76390  0.82870  0.67845  1.0000 0.0716650577
C   C171      1.0  0.68980  0.81097  0.63997  1.0000 -0.1418292217
C   C172      1.0  0.67880  0.83271  0.60021  1.0000 -0.1496558412
C   C173      1.0  0.74170  0.87588  0.59584  1.0000 0.0783773985
C   C174      1.0  0.80690  0.89540  0.63391  1.0000 -0.1418292217
C   C175      1.0  0.81620  0.87250  0.67415  1.0000 -0.15693844
C   C176      1.0  0.71140  0.89620  0.47230  1.0000 0.0890328488
C   C177      1.0  0.69340  0.87840  0.51520  1.0000 -0.1899535878
C   C178      1.0  0.73480  0.89830  0.55210  1.0000 0.1015999448
C   C179      1.0  0.78480  0.93820  0.54540  1.0000 -0.1847706858
C   C180      1.0  0.79150  0.95720  0.50200  1.0000 0.1200776438
C   C181      1.0  0.80760  0.73030  0.68394  1.0000 0.0716650577
C   C182      1.0  0.71890  0.69440  0.67500  1.0000 -0.1496558412
C   C183      1.0  0.72130  0.66860  0.63560  1.0000 -0.1496558412
C   C184      1.0  0.81270  0.67750  0.60360  1.0000 0.0630344559
C   C185      1.0  0.90370  0.71100  0.61300  1.0000 -0.1496558412
C   C186      1.0  0.90400  0.73740  0.65410  1.0000 -0.1496558412
C   C187      1.0  0.73060  0.59770  0.50270  1.0000 0.1290313498
C   C188      1.0  0.74480  0.61680  0.54830  1.0000 -0.2087719772
C   C189      1.0  0.80730  0.65430  0.55870  1.0000 0.1104870147
C   C190      1.0  0.83930  0.67910  0.51950  1.0000 -0.2153747503
C   C191      1.0  0.82620  0.65710  0.47700  1.0000 0.0250884842
C   C192      1.0  0.70240  0.27613  0.24030  1.0000 -0.0196076061
C   C193      1.0  0.71640  0.27795  0.19530  1.0000 -0.0291709072
C   C194      1.0  0.70700  0.23368  0.26630  1.0000 0.0716650577
C   C195      1.0  0.80950  0.20380  0.26170  1.0000 -0.15693844
C   C196      1.0  0.81480  0.16440  0.28510  1.0000 -0.1496558412
C   C197      1.0  0.72460  0.15399  0.31680  1.0000 0.0783773985
C   C198      1.0  0.62630  0.18330  0.32150  1.0000 -0.1496558412
C   C199      1.0  0.61900  0.22310  0.29620  1.0000 -0.1496558412
C   C200      1.0  0.83430  0.04190  0.36180  1.0000 0.1015999448
C   C201      1.0  0.83380  0.08360  0.33990  1.0000 -0.1899535878
C   C202      1.0  0.73510  0.11112  0.34300  1.0000 0.1200776438
C   C203      1.0  0.63680  0.09790  0.37070  1.0000 -0.2017240544
C   C204      1.0  0.63950  0.05640  0.39020  1.0000 0.0716650577
C   C205      1.0  0.67750  0.39830  0.32070  1.0000 0.0630344559
C   C206      1.0  0.77020  0.36520  0.33160  1.0000 -0.1418292217
C   C207      1.0  0.77200  0.32530  0.30650  1.0000 -0.1496558412
C   C208      1.0  0.68790  0.31667  0.26920  1.0000 0.0630344559
C   C209      1.0  0.59180  0.34830  0.25970  1.0000 -0.1496558412
C   C210      1.0  0.58740  0.38830  0.28470  1.0000 -0.1496558412
C   C211      1.0  0.66680  0.52370  0.34180  1.0000 0.0716650577
C   C212      1.0  0.64760  0.48180  0.32100  1.0000 -0.2017240544
C   C213      1.0  0.68580  0.44290  0.34370  1.0000 0.1200776438
C   C214      1.0  0.73060  0.45130  0.38660  1.0000 -0.2087719772
C   C215      1.0  0.74900  0.49630  0.40510  1.0000 0.1200776438
C   C216      1.0  0.73280  0.32063  0.17080  1.0000 0.0716650577
C   C217      1.0  0.80730  0.35780  0.18910  1.0000 -0.1496558412
C   C218      1.0  0.81890  0.39762  0.16670  1.0000 -0.1496558412
C   C219      1.0  0.76010  0.40257  0.12390  1.0000 0.0716650577
C   C220      1.0  0.69150  0.36485  0.10360  1.0000 -0.1418292217
C   C221      1.0  0.68010  0.32448  0.12730  1.0000 -0.15693844
C   C222      1.0  0.83180  0.52410  0.09540  1.0000 0.1104870147
C   C223      1.0  0.83740  0.48060  0.11620  1.0000 -0.2087719772
C   C224      1.0  0.76340  0.44618  0.10060  1.0000 0.1200776438
C   C225      1.0  0.69160  0.45530  0.06110  1.0000 -0.2087719772
C   C226      1.0  0.69300  0.49750  0.04200  1.0000 0.1015999448
C   C227      1.0  0.71390  0.23537  0.16660  1.0000 0.0716650577
C   C228      1.0  0.61220  0.20260  0.16960  1.0000 -0.1418292217
C   C229      1.0  0.61600  0.16210  0.14630  1.0000 -0.1418292217
C   C230      1.0  0.71430  0.15176  0.11850  1.0000 0.0630344559
C   C231      1.0  0.80850  0.18518  0.11180  1.0000 -0.15693844
C   C232      1.0  0.80870  0.22653  0.13599  1.0000 -0.1496558412
C   C233      1.0  0.66840  0.02547  0.10288  1.0000 0.0783773985
C   C234      1.0  0.65750  0.06853  0.11790  1.0000 -0.2017240544
C   C235      1.0  0.72430  0.10469  0.09817  1.0000 0.1290313498
C   C236      1.0  0.79930  0.09336  0.06355  1.0000 -0.1899535878
C   C237      1.0  0.81100  0.04852  0.04970  1.0000 0.1104870147
C   C238      1.0  0.10440  0.92390  0.37101  1.0000 -0.0196076061
C   C239      1.0  0.22280  0.94170  0.38720  1.0000 -0.1109577038
C   C240      1.0  0.34000  0.92538  0.37124  1.0000 -0.0133338966
C   C241      1.0  0.33390  0.89122  0.34001  1.0000 -0.0916315408
C   C242      1.0  0.21410  0.87194  0.32276  1.0000 -0.0133338966
C   C243      1.0  0.09750  0.88872  0.33881  1.0000 -0.0916315408
C   C244      1.0  0.97960  0.94321  0.38836  1.0000 0.5388669447
C   C245      1.0  0.47170  0.94621  0.38977  1.0000 0.5388669447
C   C246      1.0  0.20950  0.83281  0.28866  1.0000 0.591862696
C   C247      1.0  0.25820  0.86678  0.13438  1.0000 -0.0196076061
C   C248      1.0  0.37650  0.88163  0.11728  1.0000 -0.097491977
C   C249      1.0  0.37540  0.91450  0.08372  1.0000 -0.0291709072
C   C250      1.0  0.25560  0.93112  0.06923  1.0000 -0.1244842533
C   C251      1.0  0.13680  0.91696  0.08578  1.0000 -0.0291709072
C   C252      1.0  0.13930  0.88387  0.11801  1.0000 -0.0916315408
C   C253      1.0  0.25930  0.83065  0.17015  1.0000 0.6073764142
C   C254      1.0  0.50000  0.93088  0.06419  1.0000 0.5336377945
C   C255      1.0  0.01010  0.93642  0.06860  1.0000 0.5388669447
C   C256      1.0  0.48220  0.60874  0.39363  1.0000 0.5336377945
N   N1        1.0  0.24130  0.38651  0.02798  1.0000 -0.2153747503
N   N2        1.0  0.24490  0.06765  0.01568  1.0000 -0.2087719772
N   N3        1.0  0.26510  0.06102  0.53346  1.0000 -0.2017240544
N   N4        1.0  0.23040  0.38580  0.52977  1.0000 -0.1899535878
N   N5        1.0  0.26270  0.97264  0.61520  1.0000 -0.2087719772
N   N6        1.0  0.25370  0.98510  0.93099  1.0000 -0.2087719772
N   N7        1.0  0.23510  0.46867  0.94063  1.0000 -0.2017240544
N   N8        1.0  0.28290  0.46973  0.61621  1.0000 -0.2087719772
N   N9        1.0  0.75870  0.61349  0.97202  1.0000 -0.2153747503
N   N10       1.0  0.75510  0.93235  0.98432  1.0000 -0.2087719772
N   N11       1.0  0.73490  0.93898  0.46654  1.0000 -0.2017240544
N   N12       1.0  0.76960  0.61420  0.47023  1.0000 -0.1899535878
N   N13       1.0  0.73730  0.02736  0.38480  1.0000 -0.2087719772
N   N14       1.0  0.74630  0.01490  0.06901  1.0000 -0.2087719772
N   N15       1.0  0.76490  0.53133  0.05937  1.0000 -0.1899535878
N   N16       1.0  0.71710  0.53027  0.38379  1.0000 -0.2087719772
O   O1        1.0  0.11490  0.37636  0.62525  1.0000 -0.5305941287
O   O2        1.0  0.00510  0.42556  0.58362  1.0000 -0.568239421
O   O3        1.0  0.87760  0.27873  0.72800  1.0000 -0.5218085671
O   O4        1.0  0.65480  0.27664  0.72279  1.0000 -0.5305941287
O   O5        1.0  0.41250  0.37463  0.62171  1.0000 -0.5305941287
O   O6        1.0  0.51350  0.41896  0.57598  1.0000 -0.5604457919
O   O7        1.0  0.07670  0.37531  0.93140  1.0000 -0.5218085671
O   O8        1.0  0.97730  0.42230  0.97618  1.0000 -0.568239421
O   O9        1.0  0.49190  0.41986  0.97459  1.0000 -0.5827767078
O   O10       1.0  0.37220  0.37048  0.93044  1.0000 -0.5218085671
O   O11       1.0  0.60230  0.27670  0.81650  1.0000 -0.5102638427
O   O12       1.0  0.82340  0.27806  0.82131  1.0000 -0.5491944376
O   O13       1.0  0.00910  0.02785  0.57932  1.0000 -0.5924559657
O   O14       1.0  0.13070  0.07083  0.63015  1.0000 -0.5218085671
O   O15       1.0  0.52600  0.02398  0.57928  1.0000 -0.5827767078
O   O16       1.0  0.42550  0.06808  0.62737  1.0000 -0.5218085671
O   O17       1.0  0.68000  0.18068  0.72186  1.0000 -0.5491944376
O   O18       1.0  0.90030  0.18229  0.72649  1.0000 -0.5102638427
O   O19       1.0  0.85130  0.18367  0.81864  1.0000 -0.5399652743
O   O20       1.0  0.62920  0.18190  0.81475  1.0000 -0.5399652743
O   O21       1.0  0.39130  0.08352  0.91831  1.0000 -0.5305941287
O   O22       1.0  0.50660  0.04276  0.96812  1.0000 -0.5604457919
O   O23       1.0  0.09580  0.08216  0.91810  1.0000 -0.5305941287
O   O24       1.0  0.98690  0.03045  0.95734  1.0000 -0.568239421
O   O25       1.0  0.88510  0.62364  0.37475  1.0000 -0.5305941287
O   O26       1.0  0.99490  0.57444  0.41638  1.0000 -0.5604457919
O   O27       1.0  0.12240  0.72127  0.27200  1.0000 -0.5218085671
O   O28       1.0  0.34520  0.72336  0.27721  1.0000 -0.5305941287
O   O29       1.0  0.58750  0.62537  0.37829  1.0000 -0.5218085671
O   O30       1.0  0.48650  0.58104  0.42402  1.0000 -0.5604457919
O   O31       1.0  0.92330  0.62469  0.06860  1.0000 -0.5218085671
O   O32       1.0  0.02270  0.57770  0.02382  1.0000 -0.568239421
O   O33       1.0  0.50810  0.58014  0.02541  1.0000 -0.5827767078
O   O34       1.0  0.62780  0.62952  0.06956  1.0000 -0.5218085671
O   O35       1.0  0.39770  0.72330  0.18350  1.0000 -0.5218085671
O   O36       1.0  0.17660  0.72194  0.17869  1.0000 -0.5491944376
O   O37       1.0  0.99090  0.97215  0.42068  1.0000 -0.5924559657
O   O38       1.0  0.86930  0.92917  0.36985  1.0000 -0.5218085671
O   O39       1.0  0.47400  0.97602  0.42072  1.0000 -0.5827767078
O   O40       1.0  0.57450  0.93192  0.37263  1.0000 -0.5218085671
O   O41       1.0  0.32000  0.81932  0.27814  1.0000 -0.5491944376
O   O42       1.0  0.09970  0.81771  0.27351  1.0000 -0.5102638427
O   O43       1.0  0.14870  0.81633  0.18136  1.0000 -0.5399652743
O   O44       1.0  0.37080  0.81810  0.18525  1.0000 -0.5305941287
O   O45       1.0  0.60870  0.91648  0.08169  1.0000 -0.5305941287
O   O46       1.0  0.49340  0.95724  0.03188  1.0000 -0.5604457919
O   O47       1.0  0.90420  0.91784  0.08190  1.0000 -0.5305941287
O   O48       1.0  0.01310  0.96955  0.04266  1.0000 -0.568239421
