# DDEC6 charges by PACMAN v1.1 (https://github.com/mtap-research/PACMAN-charge/)
data_2014[Ce][nan]3[ASR]2
_chemical_formula_sum              "Ce8 H36 C84 N12 O48"
_cell_length_a       8.1162
_cell_length_b       15.6709
_cell_length_c       30.2842
_cell_angle_alpha    90
_cell_angle_beta     90
_cell_angle_gamma    90

_symmetry_space_group_name_H-M    "P 1"
_symmetry_Int_Tables_number       1

loop_
  _symmetry_equiv_pos_as_xyz
  'x, y, z'

loop_
  _atom_site_type_symbol
  _atom_site_label
  _atom_site_symmetry_multiplicity
  _atom_site_fract_x
  _atom_site_fract_y
  _atom_site_fract_z
  _atom_site_occupancy
  _atom_site_charge
Ce  Ce1       1.0  0.43911  0.70393  0.90869  1.0000 1.917075336
Ce  Ce2       1.0  0.06089  0.20393  0.09131  1.0000 1.917075336
Ce  Ce3       1.0  0.56089  0.29607  0.40869  1.0000 1.917075336
Ce  Ce4       1.0  0.93911  0.79607  0.59131  1.0000 1.917075336
Ce  Ce5       1.0  0.56089  0.29607  0.09131  1.0000 1.917075336
Ce  Ce6       1.0  0.93911  0.79607  0.90869  1.0000 1.917075336
Ce  Ce7       1.0  0.43911  0.70393  0.59131  1.0000 1.917075336
Ce  Ce8       1.0  0.06089  0.20393  0.40869  1.0000 1.917075336
H   H1        1.0  0.52950  0.74730  0.75000  1.0000 0.1328157037
H   H2        1.0  0.97050  0.24730  0.25000  1.0000 0.1328157037
H   H3        1.0  0.47050  0.25270  0.25000  1.0000 0.1328157037
H   H4        1.0  0.02950  0.75270  0.75000  1.0000 0.1328157037
H   H5        1.0  0.99860  0.44660  0.10960  1.0000 0.1140479613
H   H6        1.0  0.50140  0.94660  0.89040  1.0000 0.1140479613
H   H7        1.0  0.00140  0.55340  0.60960  1.0000 0.1140479613
H   H8        1.0  0.49860  0.05340  0.39040  1.0000 0.1140479613
H   H9        1.0  0.00140  0.55340  0.89040  1.0000 0.1140479613
H   H10       1.0  0.49860  0.05340  0.10960  1.0000 0.1140479613
H   H11       1.0  0.99860  0.44660  0.39040  1.0000 0.1140479613
H   H12       1.0  0.50140  0.94660  0.60960  1.0000 0.1140479613
H   H13       1.0  0.88900  0.65690  0.04610  1.0000 0.1198937911
H   H14       1.0  0.61100  0.15690  0.95390  1.0000 0.1198937911
H   H15       1.0  0.11100  0.34310  0.54610  1.0000 0.1198937911
H   H16       1.0  0.38900  0.84310  0.45390  1.0000 0.1198937911
H   H17       1.0  0.11100  0.34310  0.95390  1.0000 0.1198937911
H   H18       1.0  0.38900  0.84310  0.04610  1.0000 0.1198937911
H   H19       1.0  0.88900  0.65690  0.45390  1.0000 0.1198937911
H   H20       1.0  0.61100  0.15690  0.54610  1.0000 0.1198937911
H   H21       1.0  0.78460  0.92920  0.81480  1.0000 0.1140479613
H   H22       1.0  0.71540  0.42920  0.18520  1.0000 0.1140479613
H   H23       1.0  0.21540  0.07080  0.31480  1.0000 0.1140479613
H   H24       1.0  0.28460  0.57080  0.68520  1.0000 0.1140479613
H   H25       1.0  0.21540  0.07080  0.18520  1.0000 0.1140479613
H   H26       1.0  0.28460  0.57080  0.81480  1.0000 0.1140479613
H   H27       1.0  0.78460  0.92920  0.68520  1.0000 0.1140479613
H   H28       1.0  0.71540  0.42920  0.31480  1.0000 0.1140479613
H   H29       1.0  0.28700  0.52200  0.00850  1.0000 0.1402159557
H   H30       1.0  0.21300  0.02200  0.99150  1.0000 0.1402159557
H   H31       1.0  0.71300  0.47800  0.50850  1.0000 0.1402159557
H   H32       1.0  0.78700  0.97800  0.49150  1.0000 0.1402159557
H   H33       1.0  0.71300  0.47800  0.99150  1.0000 0.1402159557
H   H34       1.0  0.78700  0.97800  0.00850  1.0000 0.1402159557
H   H35       1.0  0.28700  0.52200  0.49150  1.0000 0.1402159557
H   H36       1.0  0.21300  0.02200  0.50850  1.0000 0.1402159557
C   C1        1.0  0.60150  0.79140  0.83181  1.0000 0.6008632034
C   C2        1.0  0.89850  0.29140  0.16819  1.0000 0.6008632034
C   C3        1.0  0.39850  0.20860  0.33181  1.0000 0.6008632034
C   C4        1.0  0.10150  0.70860  0.66819  1.0000 0.6008632034
C   C5        1.0  0.39850  0.20860  0.16819  1.0000 0.6008632034
C   C6        1.0  0.10150  0.70860  0.83181  1.0000 0.6008632034
C   C7        1.0  0.60150  0.79140  0.66819  1.0000 0.6008632034
C   C8        1.0  0.89850  0.29140  0.33181  1.0000 0.6008632034
C   C9        1.0  0.60100  0.79530  0.75000  1.0000 -0.0611525153
C   C10       1.0  0.89900  0.29530  0.25000  1.0000 -0.0611525153
C   C11       1.0  0.39900  0.20470  0.25000  1.0000 -0.0611525153
C   C12       1.0  0.10100  0.70470  0.75000  1.0000 -0.0611525153
C   C13       1.0  0.15680  0.47100  0.06026  1.0000 -0.0779085783
C   C14       1.0  0.34320  0.97100  0.93974  1.0000 -0.0779085783
C   C15       1.0  0.84320  0.52900  0.56026  1.0000 -0.0779085783
C   C16       1.0  0.65680  0.02900  0.43974  1.0000 -0.0779085783
C   C17       1.0  0.84320  0.52900  0.93974  1.0000 -0.0779085783
C   C18       1.0  0.65680  0.02900  0.06026  1.0000 -0.0779085783
C   C19       1.0  0.15680  0.47100  0.43974  1.0000 -0.0779085783
C   C20       1.0  0.34320  0.97100  0.56026  1.0000 -0.0779085783
C   C21       1.0  0.02320  0.48670  0.08705  1.0000 0.0697134855
C   C22       1.0  0.47680  0.98670  0.91295  1.0000 0.0697134855
C   C23       1.0  0.97680  0.51330  0.58705  1.0000 0.0697134855
C   C24       1.0  0.52320  0.01330  0.41295  1.0000 0.0697134855
C   C25       1.0  0.97680  0.51330  0.91295  1.0000 0.0697134855
C   C26       1.0  0.52320  0.01330  0.08705  1.0000 0.0697134855
C   C27       1.0  0.02320  0.48670  0.41295  1.0000 0.0697134855
C   C28       1.0  0.47680  0.98670  0.58705  1.0000 0.0697134855
C   C29       1.0  0.11580  0.65870  0.98313  1.0000 0.6189721823
C   C30       1.0  0.38420  0.15870  0.01687  1.0000 0.6189721823
C   C31       1.0  0.88420  0.34130  0.48313  1.0000 0.6189721823
C   C32       1.0  0.61580  0.84130  0.51687  1.0000 0.6189721823
C   C33       1.0  0.88420  0.34130  0.01687  1.0000 0.6189721823
C   C34       1.0  0.61580  0.84130  0.98313  1.0000 0.6189721823
C   C35       1.0  0.11580  0.65870  0.51687  1.0000 0.6189721823
C   C36       1.0  0.38420  0.15870  0.48313  1.0000 0.6189721823
C   C37       1.0  0.26400  0.39280  0.06457  1.0000 0.5834207833
C   C38       1.0  0.23600  0.89280  0.93543  1.0000 0.5834207833
C   C39       1.0  0.73600  0.60720  0.56457  1.0000 0.5834207833
C   C40       1.0  0.76400  0.10720  0.43543  1.0000 0.5834207833
C   C41       1.0  0.73600  0.60720  0.93543  1.0000 0.5834207833
C   C42       1.0  0.76400  0.10720  0.06457  1.0000 0.5834207833
C   C43       1.0  0.26400  0.39280  0.43543  1.0000 0.5834207833
C   C44       1.0  0.23600  0.89280  0.56457  1.0000 0.5834207833
C   C45       1.0  0.95960  0.60910  0.05007  1.0000 0.0697134855
C   C46       1.0  0.54040  0.10910  0.94993  1.0000 0.0697134855
C   C47       1.0  0.04040  0.39090  0.55007  1.0000 0.0697134855
C   C48       1.0  0.45960  0.89090  0.44993  1.0000 0.0697134855
C   C49       1.0  0.04040  0.39090  0.94993  1.0000 0.0697134855
C   C50       1.0  0.45960  0.89090  0.05007  1.0000 0.0697134855
C   C51       1.0  0.95960  0.60910  0.44993  1.0000 0.0697134855
C   C52       1.0  0.54040  0.10910  0.55007  1.0000 0.0697134855
C   C53       1.0  0.65430  0.83110  0.78963  1.0000 -0.0779085783
C   C54       1.0  0.84570  0.33110  0.21037  1.0000 -0.0779085783
C   C55       1.0  0.34570  0.16890  0.28963  1.0000 -0.0779085783
C   C56       1.0  0.15430  0.66890  0.71037  1.0000 -0.0779085783
C   C57       1.0  0.34570  0.16890  0.21037  1.0000 -0.0779085783
C   C58       1.0  0.15430  0.66890  0.78963  1.0000 -0.0779085783
C   C59       1.0  0.65430  0.83110  0.71037  1.0000 -0.0779085783
C   C60       1.0  0.84570  0.33110  0.28963  1.0000 -0.0779085783
C   C61       1.0  0.09180  0.59920  0.02120  1.0000 -0.0861168466
C   C62       1.0  0.40820  0.09920  0.97880  1.0000 -0.0861168466
C   C63       1.0  0.90820  0.40080  0.52120  1.0000 -0.0861168466
C   C64       1.0  0.59180  0.90080  0.47880  1.0000 -0.0861168466
C   C65       1.0  0.90820  0.40080  0.97880  1.0000 -0.0861168466
C   C66       1.0  0.59180  0.90080  0.02120  1.0000 -0.0861168466
C   C67       1.0  0.09180  0.59920  0.47880  1.0000 -0.0861168466
C   C68       1.0  0.40820  0.09920  0.52120  1.0000 -0.0861168466
C   C69       1.0  0.75170  0.90380  0.78767  1.0000 0.0789539237
C   C70       1.0  0.74830  0.40380  0.21233  1.0000 0.0789539237
C   C71       1.0  0.24830  0.09620  0.28767  1.0000 0.0789539237
C   C72       1.0  0.25170  0.59620  0.71233  1.0000 0.0789539237
C   C73       1.0  0.24830  0.09620  0.21233  1.0000 0.0789539237
C   C74       1.0  0.25170  0.59620  0.78767  1.0000 0.0789539237
C   C75       1.0  0.75170  0.90380  0.71233  1.0000 0.0789539237
C   C76       1.0  0.74830  0.40380  0.28767  1.0000 0.0789539237
C   C77       1.0  0.19340  0.52980  0.02692  1.0000 -0.0611525153
C   C78       1.0  0.30660  0.02980  0.97308  1.0000 -0.0611525153
C   C79       1.0  0.80660  0.47020  0.52692  1.0000 -0.0611525153
C   C80       1.0  0.69340  0.97020  0.47308  1.0000 -0.0611525153
C   C81       1.0  0.80660  0.47020  0.97308  1.0000 -0.0611525153
C   C82       1.0  0.69340  0.97020  0.02692  1.0000 -0.0611525153
C   C83       1.0  0.19340  0.52980  0.47308  1.0000 -0.0611525153
C   C84       1.0  0.30660  0.02980  0.52692  1.0000 -0.0611525153
N   N1        1.0  0.92640  0.55500  0.08316  1.0000 -0.2767000869
N   N2        1.0  0.57360  0.05500  0.91684  1.0000 -0.2767000869
N   N3        1.0  0.07360  0.44500  0.58316  1.0000 -0.2767000869
N   N4        1.0  0.42640  0.94500  0.41684  1.0000 -0.2767000869
N   N5        1.0  0.07360  0.44500  0.91684  1.0000 -0.2767000869
N   N6        1.0  0.42640  0.94500  0.08316  1.0000 -0.2767000869
N   N7        1.0  0.92640  0.55500  0.41684  1.0000 -0.2767000869
N   N8        1.0  0.57360  0.05500  0.58316  1.0000 -0.2767000869
N   N9        1.0  0.80250  0.94060  0.75000  1.0000 -0.2668135539
N   N10       1.0  0.69750  0.44060  0.25000  1.0000 -0.2668135539
N   N11       1.0  0.19750  0.05940  0.25000  1.0000 -0.2668135539
N   N12       1.0  0.30250  0.55940  0.75000  1.0000 -0.2668135539
O   O1        1.0  0.66250  0.81620  0.86861  1.0000 -0.6920657605
O   O2        1.0  0.83750  0.31620  0.13139  1.0000 -0.6920657605
O   O3        1.0  0.33750  0.18380  0.36861  1.0000 -0.6920657605
O   O4        1.0  0.16250  0.68380  0.63139  1.0000 -0.6920657605
O   O5        1.0  0.33750  0.18380  0.13139  1.0000 -0.6920657605
O   O6        1.0  0.16250  0.68380  0.86861  1.0000 -0.6920657605
O   O7        1.0  0.66250  0.81620  0.63139  1.0000 -0.6920657605
O   O8        1.0  0.83750  0.31620  0.36861  1.0000 -0.6920657605
O   O9        1.0  0.38650  0.38710  0.03933  1.0000 -0.5695884824
O   O10       1.0  0.11350  0.88710  0.96067  1.0000 -0.5695884824
O   O11       1.0  0.61350  0.61290  0.53933  1.0000 -0.5695884824
O   O12       1.0  0.88650  0.11290  0.46067  1.0000 -0.5695884824
O   O13       1.0  0.61350  0.61290  0.96067  1.0000 -0.5695884824
O   O14       1.0  0.88650  0.11290  0.03933  1.0000 -0.5695884824
O   O15       1.0  0.38650  0.38710  0.46067  1.0000 -0.5695884824
O   O16       1.0  0.11350  0.88710  0.53933  1.0000 -0.5695884824
O   O17       1.0  0.24830  0.65120  0.96207  1.0000 -0.6203982905
O   O18       1.0  0.25170  0.15120  0.03793  1.0000 -0.6203982905
O   O19       1.0  0.75170  0.34880  0.46207  1.0000 -0.6203982905
O   O20       1.0  0.74830  0.84880  0.53793  1.0000 -0.6203982905
O   O21       1.0  0.75170  0.34880  0.03793  1.0000 -0.6203982905
O   O22       1.0  0.74830  0.84880  0.96207  1.0000 -0.6203982905
O   O23       1.0  0.24830  0.65120  0.53793  1.0000 -0.6203982905
O   O24       1.0  0.25170  0.15120  0.46207  1.0000 -0.6203982905
O   O25       1.0  0.49330  0.73450  0.83022  1.0000 -0.5854332
O   O26       1.0  0.00670  0.23450  0.16978  1.0000 -0.5854332
O   O27       1.0  0.50670  0.26550  0.33022  1.0000 -0.5854332
O   O28       1.0  0.99330  0.76550  0.66978  1.0000 -0.5854332
O   O29       1.0  0.50670  0.26550  0.16978  1.0000 -0.5854332
O   O30       1.0  0.99330  0.76550  0.83022  1.0000 -0.5854332
O   O31       1.0  0.49330  0.73450  0.66978  1.0000 -0.5854332
O   O32       1.0  0.00670  0.23450  0.33022  1.0000 -0.5854332
O   O33       1.0  0.23430  0.33830  0.09476  1.0000 -0.6813518405
O   O34       1.0  0.26570  0.83830  0.90524  1.0000 -0.6813518405
O   O35       1.0  0.76570  0.66170  0.59476  1.0000 -0.6813518405
O   O36       1.0  0.73430  0.16170  0.40524  1.0000 -0.6813518405
O   O37       1.0  0.76570  0.66170  0.90524  1.0000 -0.6813518405
O   O38       1.0  0.73430  0.16170  0.09476  1.0000 -0.6813518405
O   O39       1.0  0.23430  0.33830  0.40524  1.0000 -0.6813518405
O   O40       1.0  0.26570  0.83830  0.59476  1.0000 -0.6813518405
O   O41       1.0  0.00270  0.70940  0.97380  1.0000 -0.6007187068
O   O42       1.0  0.49730  0.20940  0.02620  1.0000 -0.6007187068
O   O43       1.0  0.99730  0.29060  0.47380  1.0000 -0.6007187068
O   O44       1.0  0.50270  0.79060  0.52620  1.0000 -0.6007187068
O   O45       1.0  0.99730  0.29060  0.02620  1.0000 -0.6007187068
O   O46       1.0  0.50270  0.79060  0.97380  1.0000 -0.6007187068
O   O47       1.0  0.00270  0.70940  0.52620  1.0000 -0.6007187068
O   O48       1.0  0.49730  0.20940  0.47380  1.0000 -0.6007187068
