# DDEC6 charges by PACMAN v1.1 (https://github.com/mtap-research/PACMAN-charge/)
data_2014[Co][nan]3[ASR]3
_chemical_formula_sum              "Co18 H144 C216 N36 O80"
_cell_length_a       20.135
_cell_length_b       20.135
_cell_length_c       26.217
_cell_angle_alpha    69.9099
_cell_angle_beta     110.09
_cell_angle_gamma    101.852

_symmetry_space_group_name_H-M    "P 1"
_symmetry_Int_Tables_number       1

loop_
  _symmetry_equiv_pos_as_xyz
  'x, y, z'

loop_
  _atom_site_type_symbol
  _atom_site_label
  _atom_site_symmetry_multiplicity
  _atom_site_fract_x
  _atom_site_fract_y
  _atom_site_fract_z
  _atom_site_occupancy
  _atom_site_charge
Co  Co1       1.0  0.69293  0.82771  0.97230  1.0000 0.8723834423
Co  Co2       1.0  0.82771  0.69293  0.52770  1.0000 0.8723834423
Co  Co3       1.0  0.30707  0.17229  0.02770  1.0000 0.8723834423
Co  Co4       1.0  0.17229  0.30707  0.47230  1.0000 0.8723834423
Co  Co5       1.0  0.81901  0.69701  0.03584  1.0000 0.8818694023
Co  Co6       1.0  0.69701  0.81901  0.46416  1.0000 0.8818694023
Co  Co7       1.0  0.18099  0.30299  0.96416  1.0000 0.8818694023
Co  Co8       1.0  0.30299  0.18099  0.53584  1.0000 0.8818694023
Co  Co9       1.0  0.27454  0.71268  0.06338  1.0000 1.0004672376
Co  Co10      1.0  0.71268  0.27454  0.43662  1.0000 1.0004672376
Co  Co11      1.0  0.72546  0.28732  0.93662  1.0000 1.0004672376
Co  Co12      1.0  0.28732  0.72546  0.56338  1.0000 1.0004672376
Co  Co13      1.0  0.30250  0.70356  0.70810  1.0000 0.7735683588
Co  Co14      1.0  0.70356  0.30250  0.79190  1.0000 0.7735683588
Co  Co15      1.0  0.69750  0.29644  0.29190  1.0000 0.7735683588
Co  Co16      1.0  0.29644  0.69750  0.20810  1.0000 0.7735683588
Co  Co17      1.0  0.99366  0.99366  0.75000  1.0000 0.7174732355
Co  Co18      1.0  0.00634  0.00634  0.25000  1.0000 0.7174732355
H   H1        1.0  0.96100  0.84340  0.82410  1.0000 0.1077307068
H   H2        1.0  0.84340  0.96100  0.67590  1.0000 0.1077307068
H   H3        1.0  0.03900  0.15660  0.17590  1.0000 0.1077307068
H   H4        1.0  0.15660  0.03900  0.32410  1.0000 0.1077307068
H   H5        1.0  0.90420  0.78000  0.89140  1.0000 0.1297391594
H   H6        1.0  0.78000  0.90420  0.60860  1.0000 0.1297391594
H   H7        1.0  0.09580  0.22000  0.10860  1.0000 0.1297391594
H   H8        1.0  0.22000  0.09580  0.39140  1.0000 0.1297391594
H   H9        1.0  0.82200  0.95900  0.86470  1.0000 0.137598986
H   H10       1.0  0.95900  0.82200  0.63530  1.0000 0.137598986
H   H11       1.0  0.17800  0.04100  0.13530  1.0000 0.137598986
H   H12       1.0  0.04100  0.17800  0.36470  1.0000 0.137598986
H   H13       1.0  0.88270  0.01650  0.79920  1.0000 0.1077307068
H   H14       1.0  0.01650  0.88270  0.70080  1.0000 0.1077307068
H   H15       1.0  0.11730  0.98350  0.20080  1.0000 0.1077307068
H   H16       1.0  0.98350  0.11730  0.29920  1.0000 0.1077307068
H   H17       1.0  0.02210  0.89190  0.20000  1.0000 0.1077307068
H   H18       1.0  0.89190  0.02210  0.30000  1.0000 0.1077307068
H   H19       1.0  0.97790  0.10810  0.80000  1.0000 0.1077307068
H   H20       1.0  0.10810  0.97790  0.70000  1.0000 0.1077307068
H   H21       1.0  0.95690  0.82570  0.13950  1.0000 0.137598986
H   H22       1.0  0.82570  0.95690  0.36050  1.0000 0.137598986
H   H23       1.0  0.04310  0.17430  0.86050  1.0000 0.137598986
H   H24       1.0  0.17430  0.04310  0.63950  1.0000 0.137598986
H   H25       1.0  0.78560  0.91860  0.11310  1.0000 0.1297391594
H   H26       1.0  0.91860  0.78560  0.38690  1.0000 0.1297391594
H   H27       1.0  0.21440  0.08140  0.88690  1.0000 0.1297391594
H   H28       1.0  0.08140  0.21440  0.61310  1.0000 0.1297391594
H   H29       1.0  0.85440  0.97840  0.17720  1.0000 0.1077307068
H   H30       1.0  0.97840  0.85440  0.32280  1.0000 0.1014085386
H   H31       1.0  0.14560  0.02160  0.82280  1.0000 0.1014085386
H   H32       1.0  0.02160  0.14560  0.67720  1.0000 0.1014085386
H   H33       1.0  0.62950  0.44590  0.23990  1.0000 0.1077307068
H   H34       1.0  0.44590  0.62950  0.26010  1.0000 0.1077307068
H   H35       1.0  0.37050  0.55410  0.76010  1.0000 0.1077307068
H   H36       1.0  0.55410  0.37050  0.73990  1.0000 0.1077307068
H   H37       1.0  0.64180  0.55320  0.17480  1.0000 0.1297391594
H   H38       1.0  0.55320  0.64180  0.32520  1.0000 0.1297391594
H   H39       1.0  0.35820  0.44680  0.82520  1.0000 0.1297391594
H   H40       1.0  0.44680  0.35820  0.67480  1.0000 0.1297391594
H   H41       1.0  0.82560  0.50340  0.17790  1.0000 0.1297391594
H   H42       1.0  0.50340  0.82560  0.32210  1.0000 0.1297391594
H   H43       1.0  0.17440  0.49660  0.82210  1.0000 0.1297391594
H   H44       1.0  0.49660  0.17440  0.67790  1.0000 0.1297391594
H   H45       1.0  0.80530  0.39430  0.23970  1.0000 0.1077307068
H   H46       1.0  0.39430  0.80530  0.26030  1.0000 0.1077307068
H   H47       1.0  0.19470  0.60570  0.76030  1.0000 0.1077307068
H   H48       1.0  0.60570  0.19470  0.73970  1.0000 0.1077307068
H   H49       1.0  0.39130  0.81290  0.76460  1.0000 0.1077307068
H   H50       1.0  0.81290  0.39130  0.73540  1.0000 0.1077307068
H   H51       1.0  0.60870  0.18710  0.23540  1.0000 0.1077307068
H   H52       1.0  0.18710  0.60870  0.26460  1.0000 0.1077307068
H   H53       1.0  0.49710  0.83470  0.82840  1.0000 0.1297391594
H   H54       1.0  0.83470  0.49710  0.67160  1.0000 0.1297391594
H   H55       1.0  0.50290  0.16530  0.17160  1.0000 0.1297391594
H   H56       1.0  0.16530  0.50290  0.32840  1.0000 0.1297391594
H   H57       1.0  0.56320  0.66460  0.82140  1.0000 0.137598986
H   H58       1.0  0.66460  0.56320  0.67860  1.0000 0.137598986
H   H59       1.0  0.43680  0.33540  0.17860  1.0000 0.137598986
H   H60       1.0  0.33540  0.43680  0.32140  1.0000 0.137598986
H   H61       1.0  0.45700  0.64820  0.75730  1.0000 0.1077307068
H   H62       1.0  0.64820  0.45700  0.74270  1.0000 0.1077307068
H   H63       1.0  0.54300  0.35180  0.24270  1.0000 0.1077307068
H   H64       1.0  0.35180  0.54300  0.25730  1.0000 0.1077307068
H   H65       1.0  0.94430  0.67590  0.14640  1.0000 0.1168139098
H   H66       1.0  0.67590  0.94430  0.35360  1.0000 0.1168139098
H   H67       1.0  0.05570  0.32410  0.85360  1.0000 0.1168139098
H   H68       1.0  0.32410  0.05570  0.64640  1.0000 0.1168139098
H   H69       1.0  0.06590  0.67930  0.17520  1.0000 0.137598986
H   H70       1.0  0.67930  0.06590  0.32480  1.0000 0.137598986
H   H71       1.0  0.93410  0.32070  0.82480  1.0000 0.137598986
H   H72       1.0  0.32070  0.93410  0.67520  1.0000 0.137598986
H   H73       1.0  0.05480  0.67780  0.02000  1.0000 0.137598986
H   H74       1.0  0.67780  0.05480  0.48000  1.0000 0.137598986
H   H75       1.0  0.94520  0.32220  0.98000  1.0000 0.137598986
H   H76       1.0  0.32220  0.94520  0.52000  1.0000 0.137598986
H   H77       1.0  0.93370  0.67410  0.99560  1.0000 0.1077307068
H   H78       1.0  0.67410  0.93370  0.50440  1.0000 0.1077307068
H   H79       1.0  0.06630  0.32590  0.00440  1.0000 0.1077307068
H   H80       1.0  0.32590  0.06630  0.49560  1.0000 0.1077307068
H   H81       1.0  0.76790  0.67270  0.91760  1.0000 0.1014085386
H   H82       1.0  0.67270  0.76790  0.58240  1.0000 0.1014085386
H   H83       1.0  0.23210  0.32730  0.08240  1.0000 0.1014085386
H   H84       1.0  0.32730  0.23210  0.41760  1.0000 0.1014085386
H   H85       1.0  0.73410  0.58390  0.87550  1.0000 0.1297391594
H   H86       1.0  0.58390  0.73410  0.62450  1.0000 0.1297391594
H   H87       1.0  0.26590  0.41610  0.12450  1.0000 0.1297391594
H   H88       1.0  0.41610  0.26590  0.37550  1.0000 0.1297391594
H   H89       1.0  0.77920  0.44120  0.02950  1.0000 0.1297391594
H   H90       1.0  0.44120  0.77920  0.47050  1.0000 0.1297391594
H   H91       1.0  0.22080  0.55880  0.97050  1.0000 0.1297391594
H   H92       1.0  0.55880  0.22080  0.52950  1.0000 0.1297391594
H   H93       1.0  0.81150  0.53470  0.06790  1.0000 0.1014085386
H   H94       1.0  0.53470  0.81150  0.43210  1.0000 0.1014085386
H   H95       1.0  0.18850  0.46530  0.93210  1.0000 0.1014085386
H   H96       1.0  0.46530  0.18850  0.56790  1.0000 0.1014085386
H   H97       1.0  0.66350  0.76890  0.08850  1.0000 0.1077307068
H   H98       1.0  0.76890  0.66350  0.41150  1.0000 0.1077307068
H   H99       1.0  0.33650  0.23110  0.91150  1.0000 0.1077307068
H   H100      1.0  0.23110  0.33650  0.58850  1.0000 0.1077307068
H   H101      1.0  0.57200  0.72920  0.12820  1.0000 0.1297391594
H   H102      1.0  0.72920  0.57200  0.37180  1.0000 0.1297391594
H   H103      1.0  0.42800  0.27080  0.87180  1.0000 0.1297391594
H   H104      1.0  0.27080  0.42800  0.62820  1.0000 0.1297391594
H   H105      1.0  0.43640  0.79500  0.97270  1.0000 0.1297391594
H   H106      1.0  0.79500  0.43640  0.52730  1.0000 0.1297391594
H   H107      1.0  0.56360  0.20500  0.02730  1.0000 0.1297391594
H   H108      1.0  0.20500  0.56360  0.47270  1.0000 0.1297391594
H   H109      1.0  0.53140  0.83160  0.93720  1.0000 0.1014085386
H   H110      1.0  0.83160  0.53140  0.56280  1.0000 0.1014085386
H   H111      1.0  0.46860  0.16840  0.06280  1.0000 0.1014085386
H   H112      1.0  0.16840  0.46860  0.43720  1.0000 0.1014085386
H   H113      1.0  0.81800  0.16560  0.50320  1.0000 0.1014085386
H   H114      1.0  0.16560  0.81800  0.99680  1.0000 0.1014085386
H   H115      1.0  0.18200  0.83440  0.49680  1.0000 0.1014085386
H   H116      1.0  0.83440  0.18200  0.00320  1.0000 0.1014085386
H   H117      1.0  0.87970  0.10590  0.59410  1.0000 0.1297391594
H   H118      1.0  0.10590  0.87970  0.90590  1.0000 0.1297391594
H   H119      1.0  0.12030  0.89410  0.40590  1.0000 0.1297391594
H   H120      1.0  0.89410  0.12030  0.09410  1.0000 0.1297391594
H   H121      1.0  0.77780  0.19980  0.65300  1.0000 0.1297391594
H   H122      1.0  0.19980  0.77780  0.84700  1.0000 0.1297391594
H   H123      1.0  0.22220  0.80020  0.34700  1.0000 0.1297391594
H   H124      1.0  0.80020  0.22220  0.15300  1.0000 0.1297391594
H   H125      1.0  0.71810  0.25690  0.55990  1.0000 0.1077307068
H   H126      1.0  0.25690  0.71810  0.94010  1.0000 0.1077307068
H   H127      1.0  0.28190  0.74310  0.44010  1.0000 0.1077307068
H   H128      1.0  0.74310  0.28190  0.05990  1.0000 0.1077307068
H   H129      1.0  0.68270  0.94830  0.01320  1.0000 0.1077307068
H   H130      1.0  0.94830  0.68270  0.48680  1.0000 0.1077307068
H   H131      1.0  0.31730  0.05170  0.98680  1.0000 0.1077307068
H   H132      1.0  0.05170  0.31730  0.51320  1.0000 0.1077307068
H   H133      1.0  0.69280  0.07000  0.98590  1.0000 0.137598986
H   H134      1.0  0.07000  0.69280  0.51410  1.0000 0.137598986
H   H135      1.0  0.30720  0.93000  0.01410  1.0000 0.137598986
H   H136      1.0  0.93000  0.30720  0.48590  1.0000 0.137598986
H   H137      1.0  0.67380  0.06880  0.82860  1.0000 0.137598986
H   H138      1.0  0.06880  0.67380  0.67140  1.0000 0.137598986
H   H139      1.0  0.32620  0.93120  0.17140  1.0000 0.137598986
H   H140      1.0  0.93120  0.32620  0.32860  1.0000 0.137598986
H   H141      1.0  0.66750  0.94850  0.86090  1.0000 0.1168139098
H   H142      1.0  0.94850  0.66750  0.63910  1.0000 0.1168139098
H   H143      1.0  0.33250  0.05150  0.13910  1.0000 0.1168139098
H   H144      1.0  0.05150  0.33250  0.36090  1.0000 0.1168139098
C   C1        1.0  0.93341  0.86705  0.83296  1.0000 0.0886211177
C   C2        1.0  0.86705  0.93341  0.66704  1.0000 0.0886211177
C   C3        1.0  0.06659  0.13295  0.16704  1.0000 0.0886211177
C   C4        1.0  0.13295  0.06659  0.33296  1.0000 0.0886211177
C   C5        1.0  0.89921  0.82811  0.87350  1.0000 -0.169534684
C   C6        1.0  0.82811  0.89921  0.62650  1.0000 -0.169534684
C   C7        1.0  0.10079  0.17189  0.12650  1.0000 -0.169534684
C   C8        1.0  0.17189  0.10079  0.37350  1.0000 -0.169534684
C   C9        1.0  0.85700  0.86326  0.88662  1.0000 0.0329844747
C   C10       1.0  0.86326  0.85700  0.61338  1.0000 0.0329844747
C   C11       1.0  0.14300  0.13674  0.11338  1.0000 0.0329844747
C   C12       1.0  0.13674  0.14300  0.38662  1.0000 0.0329844747
C   C13       1.0  0.85069  0.93429  0.85772  1.0000 -0.1491392053
C   C14       1.0  0.93429  0.85069  0.64228  1.0000 -0.1491392053
C   C15       1.0  0.14931  0.06571  0.14228  1.0000 -0.1491392053
C   C16       1.0  0.06571  0.14931  0.35772  1.0000 -0.1491392053
C   C17       1.0  0.88730  0.96858  0.81824  1.0000 0.0696138633
C   C18       1.0  0.96858  0.88730  0.68176  1.0000 0.0696138633
C   C19       1.0  0.11270  0.03142  0.18176  1.0000 0.0696138633
C   C20       1.0  0.03142  0.11270  0.31824  1.0000 0.0696138633
C   C21       1.0  0.81956  0.82456  0.93122  1.0000 0.5759731834
C   C22       1.0  0.82456  0.81956  0.56878  1.0000 0.5759731834
C   C23       1.0  0.18044  0.17544  0.06878  1.0000 0.5759731834
C   C24       1.0  0.17544  0.18044  0.43122  1.0000 0.5759731834
C   C25       1.0  0.97394  0.89704  0.18260  1.0000 0.0800013754
C   C26       1.0  0.89704  0.97394  0.31740  1.0000 0.0800013754
C   C27       1.0  0.02606  0.10296  0.81740  1.0000 0.0800013754
C   C28       1.0  0.10296  0.02606  0.68260  1.0000 0.0800013754
C   C29       1.0  0.93500  0.85736  0.14573  1.0000 -0.1491392053
C   C30       1.0  0.85736  0.93500  0.35427  1.0000 -0.1491392053
C   C31       1.0  0.06500  0.14264  0.85427  1.0000 -0.1491392053
C   C32       1.0  0.14264  0.06500  0.64573  1.0000 -0.1491392053
C   C33       1.0  0.86414  0.86528  0.11864  1.0000 0.0329844747
C   C34       1.0  0.86528  0.86414  0.38136  1.0000 0.0329844747
C   C35       1.0  0.13586  0.13472  0.88136  1.0000 0.0329844747
C   C36       1.0  0.13472  0.13586  0.61864  1.0000 0.0329844747
C   C37       1.0  0.83342  0.91190  0.13047  1.0000 -0.169534684
C   C38       1.0  0.91190  0.83342  0.36953  1.0000 -0.169534684
C   C39       1.0  0.16658  0.08810  0.86953  1.0000 -0.169534684
C   C40       1.0  0.08810  0.16658  0.63047  1.0000 -0.169534684
C   C41       1.0  0.87559  0.94823  0.16873  1.0000 0.0800013754
C   C42       1.0  0.94823  0.87559  0.33127  1.0000 0.0800013754
C   C43       1.0  0.12441  0.05177  0.83127  1.0000 0.0800013754
C   C44       1.0  0.05177  0.12441  0.66873  1.0000 0.0800013754
C   C45       1.0  0.82088  0.82492  0.07634  1.0000 0.5759731834
C   C46       1.0  0.82492  0.82088  0.42366  1.0000 0.5759731834
C   C47       1.0  0.17912  0.17508  0.92366  1.0000 0.5759731834
C   C48       1.0  0.17508  0.17912  0.57634  1.0000 0.5759731834
C   C49       1.0  0.66776  0.45624  0.22520  1.0000 0.0800013754
C   C50       1.0  0.45624  0.66776  0.27480  1.0000 0.0800013754
C   C51       1.0  0.33224  0.54376  0.77480  1.0000 0.0800013754
C   C52       1.0  0.54376  0.33224  0.72520  1.0000 0.0800013754
C   C53       1.0  0.67552  0.52128  0.18690  1.0000 -0.1491392053
C   C54       1.0  0.52128  0.67552  0.31310  1.0000 -0.1491392053
C   C55       1.0  0.32448  0.47872  0.81310  1.0000 -0.1491392053
C   C56       1.0  0.47872  0.32448  0.68690  1.0000 -0.1491392053
C   C57       1.0  0.73302  0.53996  0.16614  1.0000 0.0224729744
C   C58       1.0  0.53996  0.73302  0.33386  1.0000 0.0224729744
C   C59       1.0  0.26698  0.46004  0.83386  1.0000 0.0224729744
C   C60       1.0  0.46004  0.26698  0.66614  1.0000 0.0224729744
C   C61       1.0  0.78389  0.49169  0.18821  1.0000 -0.15888371
C   C62       1.0  0.49169  0.78389  0.31179  1.0000 -0.15888371
C   C63       1.0  0.21611  0.50831  0.81179  1.0000 -0.15888371
C   C64       1.0  0.50831  0.21611  0.68821  1.0000 -0.15888371
C   C65       1.0  0.77130  0.42634  0.22559  1.0000 0.0696138633
C   C66       1.0  0.42634  0.77130  0.27441  1.0000 0.0696138633
C   C67       1.0  0.22870  0.57366  0.77441  1.0000 0.0696138633
C   C68       1.0  0.57366  0.22870  0.72559  1.0000 0.0696138633
C   C69       1.0  0.73966  0.60694  0.11910  1.0000 0.5492448774
C   C70       1.0  0.60694  0.73966  0.38090  1.0000 0.5492448774
C   C71       1.0  0.26034  0.39306  0.88090  1.0000 0.5492448774
C   C72       1.0  0.39306  0.26034  0.61910  1.0000 0.5492448774
C   C73       1.0  0.42578  0.78156  0.77740  1.0000 0.055307251
C   C74       1.0  0.78156  0.42578  0.72260  1.0000 0.055307251
C   C75       1.0  0.57422  0.21844  0.22260  1.0000 0.055307251
C   C76       1.0  0.21844  0.57422  0.27740  1.0000 0.055307251
C   C77       1.0  0.48893  0.79497  0.81580  1.0000 -0.15888371
C   C78       1.0  0.79497  0.48893  0.68420  1.0000 -0.15888371
C   C79       1.0  0.51107  0.20503  0.18420  1.0000 -0.15888371
C   C80       1.0  0.20503  0.51107  0.31580  1.0000 -0.15888371
C   C81       1.0  0.54072  0.74848  0.83570  1.0000 0.0329844747
C   C82       1.0  0.74848  0.54072  0.66430  1.0000 0.0329844747
C   C83       1.0  0.45928  0.25152  0.16430  1.0000 0.0329844747
C   C84       1.0  0.25152  0.45928  0.33570  1.0000 0.0329844747
C   C85       1.0  0.52824  0.69436  0.81160  1.0000 -0.1491392053
C   C86       1.0  0.69436  0.52824  0.68840  1.0000 -0.1491392053
C   C87       1.0  0.47176  0.30564  0.18840  1.0000 -0.1491392053
C   C88       1.0  0.30564  0.47176  0.31160  1.0000 -0.1491392053
C   C89       1.0  0.46420  0.68482  0.77320  1.0000 0.0800013754
C   C90       1.0  0.68482  0.46420  0.72680  1.0000 0.0800013754
C   C91       1.0  0.53580  0.31518  0.22680  1.0000 0.0800013754
C   C92       1.0  0.31518  0.53580  0.27320  1.0000 0.0800013754
C   C93       1.0  0.60778  0.75602  0.88410  1.0000 0.5398214725
C   C94       1.0  0.75602  0.60778  0.61590  1.0000 0.5398214725
C   C95       1.0  0.39222  0.24398  0.11590  1.0000 0.5398214725
C   C96       1.0  0.24398  0.39222  0.38410  1.0000 0.5398214725
C   C97       1.0  0.96701  0.67715  0.12060  1.0000 0.0886211177
C   C98       1.0  0.67715  0.96701  0.37940  1.0000 0.0886211177
C   C99       1.0  0.03299  0.32285  0.87940  1.0000 0.0886211177
C   C100      1.0  0.32285  0.03299  0.62060  1.0000 0.0886211177
C   C101      1.0  0.04003  0.67893  0.13834  1.0000 -0.15888371
C   C102      1.0  0.67893  0.04003  0.36166  1.0000 -0.15888371
C   C103      1.0  0.95997  0.32107  0.86166  1.0000 -0.15888371
C   C104      1.0  0.32107  0.95997  0.63834  1.0000 -0.15888371
C   C105      1.0  0.07420  0.68004  0.10035  1.0000 0.0329844747
C   C106      1.0  0.68004  0.07420  0.39965  1.0000 0.0329844747
C   C107      1.0  0.92580  0.31996  0.89965  1.0000 0.0329844747
C   C108      1.0  0.31996  0.92580  0.60035  1.0000 0.0329844747
C   C109      1.0  0.03333  0.67795  0.04628  1.0000 -0.15888371
C   C110      1.0  0.67795  0.03333  0.45372  1.0000 -0.15888371
C   C111      1.0  0.96667  0.32205  0.95372  1.0000 -0.15888371
C   C112      1.0  0.32205  0.96667  0.54628  1.0000 -0.15888371
C   C113      1.0  0.96086  0.67612  0.03185  1.0000 0.0800013754
C   C114      1.0  0.67612  0.96086  0.46815  1.0000 0.0800013754
C   C115      1.0  0.03914  0.32388  0.96815  1.0000 0.0800013754
C   C116      1.0  0.32388  0.03914  0.53185  1.0000 0.0800013754
C   C117      1.0  0.15474  0.68582  0.11589  1.0000 0.5759731834
C   C118      1.0  0.68582  0.15474  0.38411  1.0000 0.5759731834
C   C119      1.0  0.84526  0.31418  0.88411  1.0000 0.5759731834
C   C120      1.0  0.31418  0.84526  0.61589  1.0000 0.5759731834
C   C121      1.0  0.76976  0.62570  0.94042  1.0000 0.0800013754
C   C122      1.0  0.62570  0.76976  0.55958  1.0000 0.0800013754
C   C123      1.0  0.23024  0.37430  0.05958  1.0000 0.0800013754
C   C124      1.0  0.37430  0.23024  0.44042  1.0000 0.0800013754
C   C125      1.0  0.74952  0.57258  0.91493  1.0000 -0.1491392053
C   C126      1.0  0.57258  0.74952  0.58507  1.0000 -0.1491392053
C   C127      1.0  0.25048  0.42742  0.08507  1.0000 -0.1491392053
C   C128      1.0  0.42742  0.25048  0.41493  1.0000 -0.1491392053
C   C129      1.0  0.75194  0.50256  0.94772  1.0000 0.0329844747
C   C130      1.0  0.50256  0.75194  0.55228  1.0000 0.0329844747
C   C131      1.0  0.24806  0.49744  0.05228  1.0000 0.0329844747
C   C132      1.0  0.49744  0.24806  0.44772  1.0000 0.0329844747
C   C133      1.0  0.77600  0.48780  0.00594  1.0000 -0.1491392053
C   C134      1.0  0.48780  0.77600  0.49406  1.0000 -0.1491392053
C   C135      1.0  0.22400  0.51220  0.99406  1.0000 -0.1491392053
C   C136      1.0  0.51220  0.22400  0.50594  1.0000 -0.1491392053
C   C137      1.0  0.79537  0.54465  0.02858  1.0000 0.0800013754
C   C138      1.0  0.54465  0.79537  0.47142  1.0000 0.0800013754
C   C139      1.0  0.20463  0.45535  0.97142  1.0000 0.0800013754
C   C140      1.0  0.45535  0.20463  0.52858  1.0000 0.0800013754
C   C141      1.0  0.72977  0.44261  0.92054  1.0000 0.5588832987
C   C142      1.0  0.44261  0.72977  0.57946  1.0000 0.5588832987
C   C143      1.0  0.27023  0.55739  0.07946  1.0000 0.5588832987
C   C144      1.0  0.55739  0.27023  0.42054  1.0000 0.5588832987
C   C145      1.0  0.61715  0.77347  0.06486  1.0000 0.0886211177
C   C146      1.0  0.77347  0.61715  0.43514  1.0000 0.0886211177
C   C147      1.0  0.38285  0.22653  0.93514  1.0000 0.0886211177
C   C148      1.0  0.22653  0.38285  0.56486  1.0000 0.0886211177
C   C149      1.0  0.56240  0.74966  0.08908  1.0000 -0.1435847128
C   C150      1.0  0.74966  0.56240  0.41092  1.0000 -0.1435847128
C   C151      1.0  0.43760  0.25034  0.91092  1.0000 -0.1435847128
C   C152      1.0  0.25034  0.43760  0.58908  1.0000 -0.1435847128
C   C153      1.0  0.49350  0.75656  0.05482  1.0000 0.0353011382
C   C154      1.0  0.75656  0.49350  0.44518  1.0000 0.0353011382
C   C155      1.0  0.50650  0.24344  0.94518  1.0000 0.0353011382
C   C156      1.0  0.24344  0.50650  0.55482  1.0000 0.0353011382
C   C157      1.0  0.48222  0.78844  0.99711  1.0000 -0.15888371
C   C158      1.0  0.78844  0.48222  0.50289  1.0000 -0.15888371
C   C159      1.0  0.51778  0.21156  0.00289  1.0000 -0.15888371
C   C160      1.0  0.21156  0.51778  0.49711  1.0000 -0.15888371
C   C161      1.0  0.53971  0.81043  0.97614  1.0000 0.0696138633
C   C162      1.0  0.81043  0.53971  0.52386  1.0000 0.0696138633
C   C163      1.0  0.46029  0.18957  0.02386  1.0000 0.0696138633
C   C164      1.0  0.18957  0.46029  0.47614  1.0000 0.0696138633
C   C165      1.0  0.43150  0.72976  0.07951  1.0000 0.5588832987
C   C166      1.0  0.72976  0.43150  0.42049  1.0000 0.5588832987
C   C167      1.0  0.56850  0.27024  0.92049  1.0000 0.5588832987
C   C168      1.0  0.27024  0.56850  0.57951  1.0000 0.5588832987
C   C169      1.0  0.81021  0.17299  0.53371  1.0000 0.0696138633
C   C170      1.0  0.17299  0.81021  0.96629  1.0000 0.0696138633
C   C171      1.0  0.18979  0.82701  0.46629  1.0000 0.0696138633
C   C172      1.0  0.82701  0.18979  0.03371  1.0000 0.0696138633
C   C173      1.0  0.84736  0.13678  0.58824  1.0000 -0.169534684
C   C174      1.0  0.13678  0.84736  0.91176  1.0000 -0.169534684
C   C175      1.0  0.15264  0.86322  0.41176  1.0000 -0.169534684
C   C176      1.0  0.86322  0.15264  0.08824  1.0000 -0.169534684
C   C177      1.0  0.83612  0.14690  0.63371  1.0000 0.0224729744
C   C178      1.0  0.14690  0.83612  0.86629  1.0000 0.0224729744
C   C179      1.0  0.16388  0.85310  0.36629  1.0000 0.0224729744
C   C180      1.0  0.85310  0.16388  0.13371  1.0000 0.0224729744
C   C181      1.0  0.78709  0.19225  0.62316  1.0000 -0.1491392053
C   C182      1.0  0.19225  0.78709  0.87684  1.0000 -0.1491392053
C   C183      1.0  0.21291  0.80775  0.37684  1.0000 -0.1491392053
C   C184      1.0  0.80775  0.21291  0.12316  1.0000 -0.1491392053
C   C185      1.0  0.75157  0.22671  0.56682  1.0000 0.1014085386
C   C186      1.0  0.22671  0.75157  0.93318  1.0000 0.1014085386
C   C187      1.0  0.24843  0.77329  0.43318  1.0000 0.1014085386
C   C188      1.0  0.77329  0.24843  0.06682  1.0000 0.1014085386
C   C189      1.0  0.87832  0.11064  0.69479  1.0000 0.5492448774
C   C190      1.0  0.11064  0.87832  0.80521  1.0000 0.5492448774
C   C191      1.0  0.12168  0.88936  0.30521  1.0000 0.5492448774
C   C192      1.0  0.88936  0.12168  0.19479  1.0000 0.5492448774
C   C193      1.0  0.68262  0.97330  0.97599  1.0000 0.0800013754
C   C194      1.0  0.97330  0.68262  0.52401  1.0000 0.0800013754
C   C195      1.0  0.31738  0.02670  0.02401  1.0000 0.0800013754
C   C196      1.0  0.02670  0.31738  0.47599  1.0000 0.0800013754
C   C197      1.0  0.68815  0.04631  0.95984  1.0000 -0.15888371
C   C198      1.0  0.04631  0.68815  0.54016  1.0000 -0.15888371
C   C199      1.0  0.31185  0.95369  0.04016  1.0000 -0.15888371
C   C200      1.0  0.95369  0.31185  0.45984  1.0000 -0.15888371
C   C201      1.0  0.68678  0.08426  0.90413  1.0000 0.0329844747
C   C202      1.0  0.08426  0.68678  0.59587  1.0000 0.0329844747
C   C203      1.0  0.31322  0.91574  0.09587  1.0000 0.0329844747
C   C204      1.0  0.91574  0.31322  0.40413  1.0000 0.0329844747
C   C205      1.0  0.67729  0.04551  0.86665  1.0000 -0.15888371
C   C206      1.0  0.04551  0.67729  0.63335  1.0000 -0.15888371
C   C207      1.0  0.32271  0.95449  0.13335  1.0000 -0.15888371
C   C208      1.0  0.95449  0.32271  0.36665  1.0000 -0.15888371
C   C209      1.0  0.67326  0.97358  0.88628  1.0000 0.0800013754
C   C210      1.0  0.97358  0.67326  0.61372  1.0000 0.0800013754
C   C211      1.0  0.32674  0.02642  0.11372  1.0000 0.0800013754
C   C212      1.0  0.02642  0.32674  0.38628  1.0000 0.0800013754
C   C213      1.0  0.69647  0.16425  0.88606  1.0000 0.5759731834
C   C214      1.0  0.16425  0.69647  0.61394  1.0000 0.5759731834
C   C215      1.0  0.30353  0.83575  0.11394  1.0000 0.5759731834
C   C216      1.0  0.83575  0.30353  0.38606  1.0000 0.5759731834
N   N1        1.0  0.92916  0.93560  0.80625  1.0000 -0.2292397941
N   N2        1.0  0.93560  0.92916  0.69375  1.0000 -0.2292397941
N   N3        1.0  0.07084  0.06440  0.19375  1.0000 -0.2292397941
N   N4        1.0  0.06440  0.07084  0.30625  1.0000 -0.2292397941
N   N5        1.0  0.94470  0.94220  0.19393  1.0000 -0.2292397941
N   N6        1.0  0.94220  0.94470  0.30607  1.0000 -0.2292397941
N   N7        1.0  0.05530  0.05780  0.80607  1.0000 -0.2292397941
N   N8        1.0  0.05780  0.05530  0.69393  1.0000 -0.2292397941
N   N9        1.0  0.71266  0.40660  0.24268  1.0000 -0.2394345538
N   N10       1.0  0.40660  0.71266  0.25732  1.0000 -0.2394345538
N   N11       1.0  0.28734  0.59340  0.75732  1.0000 -0.2394345538
N   N12       1.0  0.59340  0.28734  0.74268  1.0000 -0.2394345538
N   N13       1.0  0.41070  0.72520  0.75693  1.0000 -0.2394345538
N   N14       1.0  0.72520  0.41070  0.74307  1.0000 -0.2394345538
N   N15       1.0  0.58930  0.27480  0.24307  1.0000 -0.2394345538
N   N16       1.0  0.27480  0.58930  0.25693  1.0000 -0.2394345538
N   N17       1.0  0.92756  0.67714  0.06795  1.0000 -0.2292397941
N   N18       1.0  0.67714  0.92756  0.43205  1.0000 -0.2292397941
N   N19       1.0  0.07244  0.32286  0.93205  1.0000 -0.2292397941
N   N20       1.0  0.32286  0.07244  0.56795  1.0000 -0.2292397941
N   N21       1.0  0.79211  0.61205  0.99729  1.0000 -0.2394345538
N   N22       1.0  0.61205  0.79211  0.50271  1.0000 -0.2394345538
N   N23       1.0  0.20789  0.38795  0.00271  1.0000 -0.2394345538
N   N24       1.0  0.38795  0.20789  0.49729  1.0000 -0.2394345538
N   N25       1.0  0.60640  0.80292  0.00867  1.0000 -0.246252838
N   N26       1.0  0.80292  0.60640  0.49133  1.0000 -0.246252838
N   N27       1.0  0.39360  0.19708  0.99133  1.0000 -0.246252838
N   N28       1.0  0.19708  0.39360  0.50867  1.0000 -0.246252838
N   N29       1.0  0.76330  0.21850  0.52297  1.0000 -0.2292397941
N   N30       1.0  0.21850  0.76330  0.97703  1.0000 -0.2292397941
N   N31       1.0  0.23670  0.78150  0.47703  1.0000 -0.2292397941
N   N32       1.0  0.78150  0.23670  0.02297  1.0000 -0.2292397941
N   N33       1.0  0.67715  0.93661  0.94053  1.0000 -0.2394345538
N   N34       1.0  0.93661  0.67715  0.55947  1.0000 -0.2394345538
N   N35       1.0  0.32285  0.06339  0.05947  1.0000 -0.2394345538
N   N36       1.0  0.06339  0.32285  0.44053  1.0000 -0.2394345538
O   O1        1.0  0.71124  0.71922  0.00289  1.0000 -0.2292397941
O   O2        1.0  0.71922  0.71124  0.49711  1.0000 -0.2292397941
O   O3        1.0  0.28876  0.28078  0.99711  1.0000 -0.2292397941
O   O4        1.0  0.28078  0.28876  0.50289  1.0000 -0.2292397941
O   O5        1.0  0.83807  0.76391  0.96139  1.0000 -0.5488199862
O   O6        1.0  0.76391  0.83807  0.53861  1.0000 -0.5488199862
O   O7        1.0  0.16193  0.23609  0.03861  1.0000 -0.5488199862
O   O8        1.0  0.23609  0.16193  0.46139  1.0000 -0.5488199862
O   O9        1.0  0.77464  0.85670  0.93441  1.0000 -0.541113961
O   O10       1.0  0.85670  0.77464  0.56559  1.0000 -0.541113961
O   O11       1.0  0.22536  0.14330  0.06559  1.0000 -0.541113961
O   O12       1.0  0.14330  0.22536  0.43441  1.0000 -0.541113961
O   O13       1.0  0.85088  0.77840  0.07373  1.0000 -0.5298156696
O   O14       1.0  0.77840  0.85088  0.42627  1.0000 -0.5298156696
O   O15       1.0  0.14912  0.22160  0.92627  1.0000 -0.5298156696
O   O16       1.0  0.22160  0.14912  0.57373  1.0000 -0.5298156696
O   O17       1.0  0.76001  0.84289  0.04840  1.0000 -0.5488199862
O   O18       1.0  0.84289  0.76001  0.45160  1.0000 -0.5488199862
O   O19       1.0  0.23999  0.15711  0.95160  1.0000 -0.5488199862
O   O20       1.0  0.15711  0.23999  0.54840  1.0000 -0.5488199862
O   O21       1.0  0.79862  0.62538  0.10930  1.0000 -0.5652214619
O   O22       1.0  0.62538  0.79862  0.39070  1.0000 -0.5652214619
O   O23       1.0  0.20138  0.37462  0.89070  1.0000 -0.5652214619
O   O24       1.0  0.37462  0.20138  0.60930  1.0000 -0.5652214619
O   O25       1.0  0.68450  0.63790  0.09170  1.0000 -0.4914848129
O   O26       1.0  0.63790  0.68450  0.40830  1.0000 -0.4914848129
O   O27       1.0  0.31550  0.36210  0.90830  1.0000 -0.4914848129
O   O28       1.0  0.36210  0.31550  0.59170  1.0000 -0.4914848129
O   O29       1.0  0.62089  0.81101  0.89743  1.0000 -0.541113961
O   O30       1.0  0.81101  0.62089  0.60257  1.0000 -0.541113961
O   O31       1.0  0.37911  0.18899  0.10257  1.0000 -0.541113961
O   O32       1.0  0.18899  0.37911  0.39743  1.0000 -0.541113961
O   O33       1.0  0.64285  0.70515  0.90550  1.0000 -0.4701729151
O   O34       1.0  0.70515  0.64285  0.59450  1.0000 -0.4701729151
O   O35       1.0  0.35715  0.29485  0.09450  1.0000 -0.4701729151
O   O36       1.0  0.29485  0.35715  0.40550  1.0000 -0.4701729151
O   O37       1.0  0.17814  0.68386  0.07855  1.0000 -0.5298156696
O   O38       1.0  0.68386  0.17814  0.42145  1.0000 -0.5298156696
O   O39       1.0  0.82186  0.31614  0.92145  1.0000 -0.5298156696
O   O40       1.0  0.31614  0.82186  0.57855  1.0000 -0.5298156696
O   O41       1.0  0.18914  0.69116  0.16431  1.0000 -0.541113961
O   O42       1.0  0.69116  0.18914  0.33569  1.0000 -0.541113961
O   O43       1.0  0.81086  0.30884  0.83569  1.0000 -0.541113961
O   O44       1.0  0.30884  0.81086  0.66431  1.0000 -0.541113961
O   O45       1.0  0.73732  0.38142  0.95468  1.0000 -0.5488199862
O   O46       1.0  0.38142  0.73732  0.54532  1.0000 -0.5488199862
O   O47       1.0  0.26268  0.61858  0.04532  1.0000 -0.5488199862
O   O48       1.0  0.61858  0.26268  0.45468  1.0000 -0.5488199862
O   O49       1.0  0.70642  0.45850  0.86763  1.0000 -0.4914848129
O   O50       1.0  0.45850  0.70642  0.63237  1.0000 -0.4914848129
O   O51       1.0  0.29358  0.54150  0.13237  1.0000 -0.4914848129
O   O52       1.0  0.54150  0.29358  0.36763  1.0000 -0.4914848129
O   O53       1.0  0.44679  0.70043  0.13269  1.0000 -0.5052748653
O   O54       1.0  0.70043  0.44679  0.36731  1.0000 -0.5052748653
O   O55       1.0  0.55321  0.29957  0.86731  1.0000 -0.5045454236
O   O56       1.0  0.29957  0.55321  0.63269  1.0000 -0.5045454236
O   O57       1.0  0.37075  0.73759  0.04535  1.0000 -0.5488199862
O   O58       1.0  0.73759  0.37075  0.45465  1.0000 -0.5488199862
O   O59       1.0  0.62925  0.26241  0.95465  1.0000 -0.5488199862
O   O60       1.0  0.26241  0.62925  0.54535  1.0000 -0.5488199862
O   O61       1.0  0.91853  0.06651  0.70072  1.0000 -0.5797744426
O   O62       1.0  0.06651  0.91853  0.79928  1.0000 -0.5797744426
O   O63       1.0  0.08147  0.93349  0.29928  1.0000 -0.5797744426
O   O64       1.0  0.93349  0.08147  0.20072  1.0000 -0.5797744426
O   O65       1.0  0.87040  0.12814  0.73288  1.0000 -0.5488199862
O   O66       1.0  0.12814  0.87040  0.76712  1.0000 -0.5488199862
O   O67       1.0  0.12960  0.87186  0.26712  1.0000 -0.5488199862
O   O68       1.0  0.87186  0.12960  0.23288  1.0000 -0.5488199862
O   O69       1.0  0.71261  0.19149  0.92486  1.0000 -0.5298156696
O   O70       1.0  0.19149  0.71261  0.57514  1.0000 -0.5298156696
O   O71       1.0  0.28739  0.80851  0.07514  1.0000 -0.5298156696
O   O72       1.0  0.80851  0.28739  0.42486  1.0000 -0.5298156696
O   O73       1.0  0.33823  0.67225  0.65404  1.0000 -0.2168168905
O   O74       1.0  0.67225  0.33823  0.84596  1.0000 -0.2168168905
O   O75       1.0  0.66177  0.32775  0.34596  1.0000 -0.2142165782
O   O76       1.0  0.32775  0.66177  0.15404  1.0000 -0.2142165782
O   O77       1.0  0.68905  0.19549  0.83518  1.0000 -0.5298156696
O   O78       1.0  0.19549  0.68905  0.66482  1.0000 -0.5298156696
O   O79       1.0  0.31095  0.80451  0.16482  1.0000 -0.5298156696
O   O80       1.0  0.80451  0.31095  0.33518  1.0000 -0.5298156696
