# DDEC6 charges by PACMAN v1.1 (https://github.com/mtap-research/PACMAN-charge/)
data_2014[Co][nan]3[ASR]1
_chemical_formula_sum              "Co2 H36 C50 N14 O8"
_cell_length_a       9.666
_cell_length_b       11.358
_cell_length_c       13.671
_cell_angle_alpha    69.701
_cell_angle_beta     70.792
_cell_angle_gamma    81.668

_symmetry_space_group_name_H-M    "P 1"
_symmetry_Int_Tables_number       1

loop_
  _symmetry_equiv_pos_as_xyz
  'x, y, z'

loop_
  _atom_site_type_symbol
  _atom_site_label
  _atom_site_symmetry_multiplicity
  _atom_site_fract_x
  _atom_site_fract_y
  _atom_site_fract_z
  _atom_site_occupancy
  _atom_site_charge
Co  Co1       1.0  0.50000  0.50000  0.50000  1.0000 0.8002890295
Co  Co2       1.0  0.00000  0.00000  0.00000  1.0000 0.7279176658
H   H1        1.0  0.57900  0.53840  0.24310  1.0000 0.1183729521
H   H2        1.0  0.42100  0.46160  0.75690  1.0000 0.1183729521
H   H3        1.0  0.46160  0.22970  0.71050  1.0000 0.1293881696
H   H4        1.0  0.53840  0.77030  0.28950  1.0000 0.1293881696
H   H5        1.0  0.22380  0.36410  0.29150  1.0000 0.1293881696
H   H6        1.0  0.77620  0.63590  0.70850  1.0000 0.1293881696
H   H7        1.0  0.63170  0.04750  0.71900  1.0000 0.1293881696
H   H8        1.0  0.36830  0.95250  0.28100  1.0000 0.1293881696
H   H9        1.0  0.23360  0.36680  0.46840  1.0000 0.1183729521
H   H10       1.0  0.76640  0.63320  0.53160  1.0000 0.1183729521
H   H11       1.0  0.23800  0.08260  0.74830  1.0000 0.1116979978
H   H12       1.0  0.76200  0.91740  0.25170  1.0000 0.1116979978
H   H13       1.0  0.28380  0.73010  0.75200  1.0000 0.1293881696
H   H14       1.0  0.71620  0.26990  0.24800  1.0000 0.1293881696
H   H15       1.0  0.97030  0.43530  0.62930  1.0000 0.1183729521
H   H16       1.0  0.02970  0.56470  0.37070  1.0000 0.1183729521
H   H17       1.0  0.77200  0.30760  0.43050  1.0000 0.1183729521
H   H18       1.0  0.22800  0.69240  0.56950  1.0000 0.1183729521
H   H19       1.0  0.11530  0.74200  0.92610  1.0000 0.1293881696
H   H20       1.0  0.88470  0.25800  0.07390  1.0000 0.1293881696
H   H21       1.0  0.77900  0.12660  0.85780  1.0000 0.1116979978
H   H22       1.0  0.22100  0.87340  0.14220  1.0000 0.1116979978
H   H23       1.0  0.77920  0.29810  0.70510  1.0000 0.1116979978
H   H24       1.0  0.22080  0.70190  0.29490  1.0000 0.1116979978
H   H25       1.0  0.85910  0.95160  0.68070  1.0000 0.1293881696
H   H26       1.0  0.14090  0.04840  0.31930  1.0000 0.1293881696
H   H27       1.0  0.47030  0.19390  0.37770  1.0000 0.1183729521
H   H28       1.0  0.52970  0.80610  0.62230  1.0000 0.1183729521
H   H29       1.0  0.30350  0.13050  0.55020  1.0000 0.1293881696
H   H30       1.0  0.69650  0.86950  0.44980  1.0000 0.1293881696
H   H31       1.0  0.74570  0.50200  0.90030  1.0000 0.1394075548
H   H32       1.0  0.25430  0.49800  0.09970  1.0000 0.1394075548
H   H33       1.0  0.67770  0.47110  0.08700  1.0000 0.1394075548
H   H34       1.0  0.32230  0.52890  0.91300  1.0000 0.1394075548
H   H35       1.0  0.06320  0.82760  0.62970  1.0000 0.1293881696
H   H36       1.0  0.93680  0.17240  0.37030  1.0000 0.1293881696
C   C1        1.0  0.06580  0.24740  0.83700  1.0000 0.0538157544
C   C2        1.0  0.93420  0.75260  0.16300  1.0000 0.0538157544
C   C3        1.0  0.07460  0.35140  0.74340  1.0000 -0.0455754993
C   C4        1.0  0.92540  0.64860  0.25660  1.0000 -0.0455754993
C   C5        1.0  0.17840  0.21690  0.89860  1.0000 0.5187263435
C   C6        1.0  0.82160  0.78310  0.10140  1.0000 0.5187263435
C   C7        1.0  0.87570  0.07370  0.53060  1.0000 0.1487977749
C   C8        1.0  0.12430  0.92630  0.46940  1.0000 0.1572129226
C   C9        1.0  0.40050  0.96210  0.60340  1.0000 0.1487977749
C   C10       1.0  0.59950  0.03790  0.39660  1.0000 0.1487977749
C   C11       1.0  0.49250  0.49480  0.27770  1.0000 0.1116979978
C   C12       1.0  0.50750  0.50520  0.72230  1.0000 0.1116979978
C   C13       1.0  0.54580  0.22230  0.65480  1.0000 -0.0302606297
C   C14       1.0  0.45420  0.77770  0.34520  1.0000 -0.0302606297
C   C15       1.0  0.19490  0.44600  0.69260  1.0000 0.5768448657
C   C16       1.0  0.80510  0.55400  0.30740  1.0000 0.5768448657
C   C17       1.0  0.29600  0.39880  0.30320  1.0000 -0.1265885213
C   C18       1.0  0.70400  0.60120  0.69680  1.0000 -0.1265885213
C   C19       1.0  0.45950  0.48070  0.11050  1.0000 0.1572129226
C   C20       1.0  0.54050  0.51930  0.88950  1.0000 0.1572129226
C   C21       1.0  0.63970  0.12140  0.66030  1.0000 -0.1099496686
C   C22       1.0  0.36030  0.87860  0.33970  1.0000 -0.1099496686
C   C23       1.0  0.30240  0.40060  0.40090  1.0000 -0.0417663322
C   C24       1.0  0.69760  0.59940  0.59910  1.0000 -0.0417663322
C   C25       1.0  0.22870  0.99610  0.77180  1.0000 0.1116979978
C   C26       1.0  0.77130  0.00390  0.22820  1.0000 0.1116979978
C   C27       1.0  0.25510  0.80220  0.77230  1.0000 -0.1099496686
C   C28       1.0  0.74490  0.19780  0.22770  1.0000 -0.1099496686
C   C29       1.0  0.96670  0.36820  0.69290  1.0000 -0.0997186952
C   C30       1.0  0.03330  0.63180  0.30710  1.0000 -0.0997186952
C   C31       1.0  0.71550  0.26610  0.50110  1.0000 0.0974872692
C   C32       1.0  0.28450  0.73390  0.49890  1.0000 0.0974872692
C   C33       1.0  0.16200  0.80980  0.86830  1.0000 -0.0200169662
C   C34       1.0  0.83800  0.19020  0.13170  1.0000 -0.0200169662
C   C35       1.0  0.85380  0.18340  0.82890  1.0000 0.0682229868
C   C36       1.0  0.14620  0.81660  0.17110  1.0000 0.0682229868
C   C37       1.0  0.85400  0.28540  0.73690  1.0000 -0.1401796469
C   C38       1.0  0.14600  0.71460  0.26310  1.0000 -0.1401796469
C   C39       1.0  0.91520  0.97130  0.60770  1.0000 -0.1755255142
C   C40       1.0  0.08480  0.02870  0.39230  1.0000 -0.1755255142
C   C41       1.0  0.48250  0.11550  0.42680  1.0000 -0.1602954546
C   C42       1.0  0.51750  0.88450  0.57320  1.0000 -0.1602954546
C   C43       1.0  0.38270  0.07770  0.53020  1.0000 -0.1697398329
C   C44       1.0  0.61730  0.92230  0.46980  1.0000 -0.1697398329
C   C45       1.0  0.64710  0.50140  0.94050  1.0000 -0.1602954546
C   C46       1.0  0.35290  0.49860  0.05950  1.0000 -0.1602954546
C   C47       1.0  0.60670  0.48240  0.05200  1.0000 -0.1458339894
C   C48       1.0  0.39330  0.51760  0.94800  1.0000 -0.1458339894
C   C49       1.0  0.03840  0.89730  0.57710  1.0000 -0.1697398329
C   C50       1.0  0.96160  0.10270  0.42290  1.0000 -0.1697398329
N   N1        1.0  0.95870  0.16440  0.87735  1.0000 -0.2584075982
N   N2        1.0  0.04130  0.83560  0.12265  1.0000 -0.2584075982
N   N3        1.0  0.29900  0.92250  0.71050  1.0000 -0.0015433619
N   N4        1.0  0.70100  0.07750  0.28950  1.0000 -0.0015433619
N   N5        1.0  0.74880  0.14930  0.56260  1.0000 -0.0015433619
N   N6        1.0  0.25120  0.85070  0.43740  1.0000 -0.0015433619
N   N7        1.0  0.41780  0.45880  0.22551  1.0000 0.0010541447
N   N8        1.0  0.58220  0.54120  0.77449  1.0000 0.0010541447
N   N9        1.0  0.59370  0.31280  0.55405  1.0000 -0.2802411669
N   N10       1.0  0.40630  0.68720  0.44595  1.0000 -0.2802411669
N   N11       1.0  0.42660  0.46020  0.38416  1.0000 -0.2861815148
N   N12       1.0  0.57340  0.53980  0.61584  1.0000 -0.2861815148
N   N13       1.0  0.14570  0.93240  0.86850  1.0000 -0.2802411669
N   N14       1.0  0.85430  0.06760  0.13150  1.0000 -0.2802411669
O   O1        1.0  0.30040  0.42392  0.61810  1.0000 -0.5508129352
O   O2        1.0  0.69960  0.57608  0.38190  1.0000 -0.5508129352
O   O3        1.0  0.15870  0.11630  0.97996  1.0000 -0.5508129352
O   O4        1.0  0.84130  0.88370  0.02004  1.0000 -0.5508129352
O   O5        1.0  0.27950  0.28740  0.86748  1.0000 -0.5126811916
O   O6        1.0  0.72050  0.71260  0.13252  1.0000 -0.5126811916
O   O7        1.0  0.17470  0.54000  0.72330  1.0000 -0.5756450349
O   O8        1.0  0.82530  0.46000  0.27670  1.0000 -0.5756450349
