# DDEC6 charges by PACMAN v1.1 (https://github.com/mtap-research/PACMAN-charge/)
data_2014[Tb][nan]3[ASR]1
_chemical_formula_sum              "Tb8 H36 C84 N12 O48"
_cell_length_a       8.5085
_cell_length_b       16.0156
_cell_length_c       27.9393
_cell_angle_alpha    90
_cell_angle_beta     90
_cell_angle_gamma    90

_symmetry_space_group_name_H-M    "P 1"
_symmetry_Int_Tables_number       1

loop_
  _symmetry_equiv_pos_as_xyz
  'x, y, z'

loop_
  _atom_site_type_symbol
  _atom_site_label
  _atom_site_symmetry_multiplicity
  _atom_site_fract_x
  _atom_site_fract_y
  _atom_site_fract_z
  _atom_site_occupancy
  _atom_site_charge
Tb  Tb1       1.0  0.77034  0.80614  0.33229  1.0000 2.094596308
Tb  Tb2       1.0  0.72966  0.19386  0.83229  1.0000 2.094596308
Tb  Tb3       1.0  0.22966  0.30614  0.16771  1.0000 2.094596308
Tb  Tb4       1.0  0.27034  0.69386  0.66771  1.0000 2.0956276274
Tb  Tb5       1.0  0.73059  0.20398  0.16917  1.0000 2.0732832765
Tb  Tb6       1.0  0.76941  0.79602  0.66917  1.0000 2.0732832765
Tb  Tb7       1.0  0.26941  0.70398  0.33083  1.0000 2.0732832765
Tb  Tb8       1.0  0.23059  0.29602  0.83083  1.0000 2.0732832765
H   H1        1.0  0.42750  0.59910  0.42710  1.0000 0.1104642338
H   H2        1.0  0.07250  0.40090  0.92710  1.0000 0.1155677652
H   H3        1.0  0.57250  0.09910  0.07290  1.0000 0.1155677652
H   H4        1.0  0.92750  0.90090  0.57290  1.0000 0.1104642338
H   H5        1.0  0.33780  0.81870  0.20390  1.0000 0.1104642338
H   H6        1.0  0.16220  0.18130  0.70390  1.0000 0.1104642338
H   H7        1.0  0.66220  0.31870  0.29610  1.0000 0.1104642338
H   H8        1.0  0.83780  0.68130  0.79610  1.0000 0.1104642338
H   H9        1.0  0.98280  0.97980  0.22670  1.0000 0.1307610612
H   H10       1.0  0.51720  0.02020  0.72670  1.0000 0.1307610612
H   H11       1.0  0.01720  0.47980  0.27330  1.0000 0.1307610612
H   H12       1.0  0.48280  0.52020  0.77330  1.0000 0.1307610612
H   H13       1.0  0.52940  0.03710  0.27470  1.0000 0.1307610612
H   H14       1.0  0.97060  0.96290  0.77470  1.0000 0.1307610612
H   H15       1.0  0.47060  0.53710  0.22530  1.0000 0.1307610612
H   H16       1.0  0.02940  0.46290  0.72530  1.0000 0.1307610612
H   H17       1.0  0.14320  0.96750  0.35140  1.0000 0.1025837725
H   H18       1.0  0.35680  0.03250  0.85140  1.0000 0.1025837725
H   H19       1.0  0.85680  0.46750  0.14860  1.0000 0.1025837725
H   H20       1.0  0.64320  0.53250  0.64860  1.0000 0.1025837725
H   H21       1.0  0.35920  0.04320  0.14790  1.0000 0.1104642338
H   H22       1.0  0.14080  0.95680  0.64790  1.0000 0.1104642338
H   H23       1.0  0.64080  0.54320  0.35210  1.0000 0.1104642338
H   H24       1.0  0.85920  0.45680  0.85210  1.0000 0.1104642338
H   H25       1.0  0.64160  0.78410  0.49780  1.0000 0.1307610612
H   H26       1.0  0.85840  0.21590  0.99780  1.0000 0.1307610612
H   H27       1.0  0.35840  0.28410  0.00220  1.0000 0.1307610612
H   H28       1.0  0.14160  0.71590  0.50220  1.0000 0.1307610612
H   H29       1.0  0.42440  0.59180  0.56790  1.0000 0.1104642338
H   H30       1.0  0.07560  0.40820  0.06790  1.0000 0.1104642338
H   H31       1.0  0.57560  0.09180  0.93210  1.0000 0.1104642338
H   H32       1.0  0.92440  0.90820  0.43210  1.0000 0.1104642338
H   H33       1.0  0.14990  0.18430  0.28810  1.0000 0.1104642338
H   H34       1.0  0.35010  0.81570  0.78810  1.0000 0.1104642338
H   H35       1.0  0.85010  0.68430  0.21190  1.0000 0.1104642338
H   H36       1.0  0.64990  0.31570  0.71190  1.0000 0.1104642338
C   C1        1.0  0.57960  0.73670  0.40930  1.0000 0.6336472547
C   C2        1.0  0.92040  0.26330  0.90930  1.0000 0.6336472547
C   C3        1.0  0.42040  0.23670  0.09070  1.0000 0.6336472547
C   C4        1.0  0.07960  0.76330  0.59070  1.0000 0.6336472547
C   C5        1.0  0.08800  0.11030  0.17610  1.0000 0.6505789474
C   C6        1.0  0.41200  0.88970  0.67610  1.0000 0.6505789474
C   C7        1.0  0.91200  0.61030  0.32390  1.0000 0.6505789474
C   C8        1.0  0.58800  0.38970  0.82390  1.0000 0.6505789474
C   C9        1.0  0.43100  0.18170  0.24420  1.0000 0.6505789474
C   C10       1.0  0.06900  0.81830  0.74420  1.0000 0.6505789474
C   C11       1.0  0.56900  0.68170  0.25580  1.0000 0.6505789474
C   C12       1.0  0.93100  0.31830  0.75580  1.0000 0.6505789474
C   C13       1.0  0.35010  0.98670  0.31450  1.0000 -0.1108791614
C   C14       1.0  0.14990  0.01330  0.81450  1.0000 -0.1108791614
C   C15       1.0  0.64990  0.48670  0.18550  1.0000 -0.1108791614
C   C16       1.0  0.85010  0.51330  0.68550  1.0000 -0.1108791614
C   C17       1.0  0.15900  0.02520  0.18470  1.0000 -0.0818549304
C   C18       1.0  0.34100  0.97480  0.68470  1.0000 -0.0818549304
C   C19       1.0  0.84100  0.52520  0.31530  1.0000 -0.0818549304
C   C20       1.0  0.65900  0.47480  0.81530  1.0000 -0.0818549304
C   C21       1.0  0.45480  0.62350  0.45700  1.0000 0.0720044365
C   C22       1.0  0.04520  0.37650  0.95700  1.0000 0.0720044365
C   C23       1.0  0.54520  0.12350  0.04300  1.0000 0.0720044365
C   C24       1.0  0.95480  0.87650  0.54300  1.0000 0.0720044365
C   C25       1.0  0.14700  0.88900  0.22170  1.0000 -0.0952331433
C   C26       1.0  0.35300  0.11100  0.72170  1.0000 -0.0952331433
C   C27       1.0  0.85300  0.38900  0.27830  1.0000 -0.0952331433
C   C28       1.0  0.64700  0.61100  0.77830  1.0000 -0.0952331433
C   C29       1.0  0.29300  0.87260  0.20000  1.0000 0.0866201846
C   C30       1.0  0.20700  0.12740  0.70000  1.0000 0.0866201846
C   C31       1.0  0.70700  0.37260  0.30000  1.0000 0.0866201846
C   C32       1.0  0.79300  0.62740  0.80000  1.0000 0.0866201846
C   C33       1.0  0.35100  0.11810  0.27670  1.0000 -0.0818549304
C   C34       1.0  0.14900  0.88190  0.77670  1.0000 -0.0818549304
C   C35       1.0  0.64900  0.61810  0.22330  1.0000 -0.0818549304
C   C36       1.0  0.85100  0.38190  0.72330  1.0000 -0.0818549304
C   C37       1.0  0.08190  0.96630  0.21310  1.0000 -0.0655884752
C   C38       1.0  0.41810  0.03370  0.71310  1.0000 -0.0602596511
C   C39       1.0  0.91810  0.46630  0.28690  1.0000 -0.0602596511
C   C40       1.0  0.58190  0.53370  0.78690  1.0000 -0.0602596511
C   C41       1.0  0.53190  0.69740  0.45660  1.0000 -0.0602596511
C   C42       1.0  0.96810  0.30260  0.95660  1.0000 -0.0602596511
C   C43       1.0  0.46810  0.19740  0.04340  1.0000 -0.0602596511
C   C44       1.0  0.03190  0.80260  0.54340  1.0000 -0.0602596511
C   C45       1.0  0.42630  0.04680  0.28650  1.0000 -0.0602596511
C   C46       1.0  0.07370  0.95320  0.78650  1.0000 -0.0602596511
C   C47       1.0  0.57370  0.54680  0.21350  1.0000 -0.0602596511
C   C48       1.0  0.92630  0.45320  0.71350  1.0000 -0.0602596511
C   C49       1.0  0.54330  0.69490  0.54210  1.0000 -0.0818549304
C   C50       1.0  0.95670  0.30510  0.04210  1.0000 -0.0818549304
C   C51       1.0  0.45670  0.19490  0.95790  1.0000 -0.0818549304
C   C52       1.0  0.04330  0.80510  0.45790  1.0000 -0.0818549304
C   C53       1.0  0.19740  0.00780  0.33270  1.0000 0.0796178067
C   C54       1.0  0.30260  0.99220  0.83270  1.0000 0.0796178067
C   C55       1.0  0.80260  0.50780  0.16730  1.0000 0.0796178067
C   C56       1.0  0.69740  0.49220  0.66730  1.0000 0.0796178067
C   C57       1.0  0.30390  0.00340  0.16670  1.0000 0.0623234762
C   C58       1.0  0.19610  0.99660  0.66667  1.0000 0.0623234762
C   C59       1.0  0.69610  0.50340  0.33333  1.0000 0.0623234762
C   C60       1.0  0.80390  0.49660  0.83330  1.0000 0.0623234762
C   C61       1.0  0.58210  0.73390  0.49830  1.0000 -0.0602596511
C   C62       1.0  0.91790  0.26610  0.99830  1.0000 -0.0602596511
C   C63       1.0  0.41790  0.23390  0.00170  1.0000 -0.0602596511
C   C64       1.0  0.08210  0.76610  0.50170  1.0000 -0.0602596511
C   C65       1.0  0.58200  0.73360  0.58820  1.0000 0.6229810035
C   C66       1.0  0.91800  0.26640  0.08820  1.0000 0.6229810035
C   C67       1.0  0.41800  0.23360  0.91180  1.0000 0.6229810035
C   C68       1.0  0.08200  0.76640  0.41180  1.0000 0.6229810035
C   C69       1.0  0.41600  0.90360  0.32480  1.0000 0.6505789474
C   C70       1.0  0.08400  0.09640  0.82480  1.0000 0.6505789474
C   C71       1.0  0.58400  0.40360  0.17520  1.0000 0.6505789474
C   C72       1.0  0.91600  0.59640  0.67520  1.0000 0.6505789474
C   C73       1.0  0.45530  0.61840  0.53910  1.0000 0.0866201846
C   C74       1.0  0.04470  0.38160  0.03910  1.0000 0.0866201846
C   C75       1.0  0.54470  0.11840  0.96090  1.0000 0.0866201846
C   C76       1.0  0.95530  0.88160  0.46090  1.0000 0.0866201846
C   C77       1.0  0.20140  0.13350  0.29600  1.0000 0.0796178067
C   C78       1.0  0.29860  0.86650  0.79600  1.0000 0.0796178067
C   C79       1.0  0.79860  0.63350  0.20400  1.0000 0.0796178067
C   C80       1.0  0.70140  0.36650  0.70400  1.0000 0.0796178067
C   C81       1.0  0.07810  0.82650  0.25500  1.0000 0.6419393635
C   C82       1.0  0.42190  0.17350  0.75500  1.0000 0.6419393635
C   C83       1.0  0.92190  0.32650  0.24500  1.0000 0.6419393635
C   C84       1.0  0.57810  0.67350  0.74500  1.0000 0.6419393635
N   N1        1.0  0.12870  0.07990  0.32480  1.0000 -0.2661059383
N   N2        1.0  0.37130  0.92010  0.82480  1.0000 -0.2661059383
N   N3        1.0  0.87130  0.57990  0.17520  1.0000 -0.2619414115
N   N4        1.0  0.62870  0.42010  0.67520  1.0000 -0.2661059383
N   N5        1.0  0.41480  0.58280  0.49710  1.0000 -0.2407181161
N   N6        1.0  0.08520  0.41720  0.99710  1.0000 -0.2407181161
N   N7        1.0  0.58520  0.08280  0.00290  1.0000 -0.2407181161
N   N8        1.0  0.91480  0.91720  0.50290  1.0000 -0.2407181161
N   N9        1.0  0.37130  0.92810  0.17460  1.0000 -0.2619414115
N   N10       1.0  0.12870  0.07190  0.67460  1.0000 -0.2619414115
N   N11       1.0  0.62870  0.42810  0.32540  1.0000 -0.2619414115
N   N12       1.0  0.87130  0.57190  0.82540  1.0000 -0.2619414115
O   O1        1.0  0.52080  0.71220  0.37140  1.0000 -0.6926644826
O   O2        1.0  0.97920  0.28780  0.87140  1.0000 -0.6926644826
O   O3        1.0  0.47920  0.21220  0.12860  1.0000 -0.6926644826
O   O4        1.0  0.02080  0.78780  0.62860  1.0000 -0.6926644826
O   O5        1.0  0.94160  0.11880  0.18390  1.0000 -0.7026327262
O   O6        1.0  0.55840  0.88120  0.68390  1.0000 -0.7026327262
O   O7        1.0  0.05840  0.61880  0.31610  1.0000 -0.7026327262
O   O8        1.0  0.44160  0.38120  0.81610  1.0000 -0.7026327262
O   O9        1.0  0.14650  0.76280  0.26480  1.0000 -0.6109215254
O   O10       1.0  0.35350  0.23720  0.76480  1.0000 -0.6109215254
O   O11       1.0  0.85350  0.26280  0.23520  1.0000 -0.6109215254
O   O12       1.0  0.64650  0.73720  0.73520  1.0000 -0.6109215254
O   O13       1.0  0.51520  0.70670  0.62710  1.0000 -0.7666408354
O   O14       1.0  0.98480  0.29330  0.12710  1.0000 -0.7666408354
O   O15       1.0  0.48480  0.20670  0.87290  1.0000 -0.7666408354
O   O16       1.0  0.01520  0.79330  0.37290  1.0000 -0.7666408354
O   O17       1.0  0.17490  0.16380  0.16010  1.0000 -0.6109215254
O   O18       1.0  0.32510  0.83620  0.66010  1.0000 -0.6109215254
O   O19       1.0  0.82510  0.66380  0.33990  1.0000 -0.6109215254
O   O20       1.0  0.67490  0.33620  0.83990  1.0000 -0.6109215254
O   O21       1.0  0.68420  0.78870  0.58970  1.0000 -0.6266456628
O   O22       1.0  0.81580  0.21130  0.08970  1.0000 -0.6266456628
O   O23       1.0  0.31580  0.28870  0.91030  1.0000 -0.6266456628
O   O24       1.0  0.18420  0.71130  0.41030  1.0000 -0.6266456628
O   O25       1.0  0.32140  0.84410  0.33680  1.0000 -0.7164270142
O   O26       1.0  0.17860  0.15590  0.83680  1.0000 -0.7164270142
O   O27       1.0  0.67860  0.34410  0.16320  1.0000 -0.7164270142
O   O28       1.0  0.82140  0.65590  0.66320  1.0000 -0.7164270142
O   O29       1.0  0.68550  0.79290  0.41150  1.0000 -0.6590059781
O   O30       1.0  0.81450  0.20710  0.91150  1.0000 -0.6590059781
O   O31       1.0  0.31450  0.29290  0.08850  1.0000 -0.6590059781
O   O32       1.0  0.18550  0.70710  0.58850  1.0000 -0.6590059781
O   O33       1.0  0.94010  0.84710  0.27170  1.0000 -0.7026327262
O   O34       1.0  0.55990  0.15290  0.77170  1.0000 -0.7026327262
O   O35       1.0  0.05990  0.34710  0.22830  1.0000 -0.7026327262
O   O36       1.0  0.44010  0.65290  0.72830  1.0000 -0.7026327262
O   O37       1.0  0.56050  0.16680  0.22920  1.0000 -0.6185479695
O   O38       1.0  0.93950  0.83320  0.72920  1.0000 -0.6185479695
O   O39       1.0  0.43950  0.66680  0.27080  1.0000 -0.6185479695
O   O40       1.0  0.06050  0.33320  0.77080  1.0000 -0.6185479695
O   O41       1.0  0.55720  0.89470  0.31580  1.0000 -0.6497459645
O   O42       1.0  0.94280  0.10530  0.81580  1.0000 -0.6497459645
O   O43       1.0  0.44280  0.39470  0.18420  1.0000 -0.6497459645
O   O44       1.0  0.05720  0.60530  0.68420  1.0000 -0.6497459645
O   O45       1.0  0.34530  0.24710  0.23460  1.0000 -0.7164270142
O   O46       1.0  0.15470  0.75290  0.73460  1.0000 -0.7164270142
O   O47       1.0  0.65470  0.74710  0.26540  1.0000 -0.7164270142
O   O48       1.0  0.84530  0.25290  0.76540  1.0000 -0.7164270142
