# DDEC6 charges by PACMAN v1.1 (https://github.com/mtap-research/PACMAN-charge/)
data_2014[Ni][tfi]3[ASR]1
_chemical_formula_sum              "Ni4 H36 C60 S8 N8 O16"
_cell_length_a       11.2031
_cell_length_b       11.2031
_cell_length_c       20.3288
_cell_angle_alpha    78.4966
_cell_angle_beta     101.503
_cell_angle_gamma    90.3931

_symmetry_space_group_name_H-M    "P 1"
_symmetry_Int_Tables_number       1

loop_
  _symmetry_equiv_pos_as_xyz
  'x, y, z'

loop_
  _atom_site_type_symbol
  _atom_site_label
  _atom_site_symmetry_multiplicity
  _atom_site_fract_x
  _atom_site_fract_y
  _atom_site_fract_z
  _atom_site_occupancy
  _atom_site_charge
Ni  Ni1       1.0  0.72274  0.15762  0.77699  1.0000 0.7124466665
Ni  Ni2       1.0  0.15762  0.72274  0.72301  1.0000 0.7124466665
Ni  Ni3       1.0  0.27726  0.84238  0.22301  1.0000 0.7124466665
Ni  Ni4       1.0  0.84238  0.27726  0.27699  1.0000 0.7124466665
H   H1        1.0  0.92480  0.95460  0.82920  1.0000 0.1130780354
H   H2        1.0  0.95460  0.92480  0.67080  1.0000 0.1130780354
H   H3        1.0  0.07520  0.04540  0.17080  1.0000 0.1130780354
H   H4        1.0  0.04540  0.07520  0.32920  1.0000 0.1130780354
H   H5        1.0  0.13100  0.92820  0.86090  1.0000 0.139216236
H   H6        1.0  0.92820  0.13100  0.63910  1.0000 0.139216236
H   H7        1.0  0.86900  0.07180  0.13910  1.0000 0.139216236
H   H8        1.0  0.07180  0.86900  0.36090  1.0000 0.139216236
H   H9        1.0  0.15080  0.29420  0.81670  1.0000 0.150207109
H   H10       1.0  0.29420  0.15080  0.68330  1.0000 0.150207109
H   H11       1.0  0.84920  0.70580  0.18330  1.0000 0.150207109
H   H12       1.0  0.70580  0.84920  0.31670  1.0000 0.150207109
H   H13       1.0  0.52330  0.52330  0.75000  1.0000 0.1172487356
H   H14       1.0  0.47670  0.47670  0.25000  1.0000 0.1172487356
H   H15       1.0  0.81330  0.81330  0.75000  1.0000 0.1130780354
H   H16       1.0  0.18670  0.18670  0.25000  1.0000 0.1130780354
H   H17       1.0  0.94830  0.30730  0.78550  1.0000 0.1273625113
H   H18       1.0  0.30730  0.94830  0.71450  1.0000 0.1273625113
H   H19       1.0  0.05170  0.69270  0.21450  1.0000 0.1273625113
H   H20       1.0  0.69270  0.05170  0.28550  1.0000 0.1273625113
H   H21       1.0  0.26370  0.07350  0.98470  1.0000 0.1273625113
H   H22       1.0  0.07350  0.26370  0.51530  1.0000 0.1273625113
H   H23       1.0  0.73630  0.92650  0.01530  1.0000 0.1273625113
H   H24       1.0  0.92650  0.73630  0.48470  1.0000 0.1273625113
H   H25       1.0  0.39370  0.71350  0.13000  1.0000 0.1273625113
H   H26       1.0  0.71350  0.39370  0.37000  1.0000 0.1273625113
H   H27       1.0  0.60630  0.28650  0.87000  1.0000 0.1273625113
H   H28       1.0  0.28650  0.60630  0.63000  1.0000 0.1273625113
H   H29       1.0  0.22680  0.02880  0.09410  1.0000 0.1130780354
H   H30       1.0  0.02880  0.22680  0.40590  1.0000 0.1130780354
H   H31       1.0  0.77320  0.97120  0.90590  1.0000 0.1130780354
H   H32       1.0  0.97120  0.77320  0.59410  1.0000 0.1130780354
H   H33       1.0  0.42890  0.74570  0.02110  1.0000 0.1592747636
H   H34       1.0  0.74570  0.42890  0.47890  1.0000 0.1592747636
H   H35       1.0  0.57110  0.25430  0.97890  1.0000 0.1592747636
H   H36       1.0  0.25430  0.57110  0.52110  1.0000 0.1592747636
C   C1        1.0  0.97170  0.02350  0.82720  1.0000 0.0763156155
C   C2        1.0  0.02350  0.97170  0.67280  1.0000 0.0763156155
C   C3        1.0  0.02830  0.97650  0.17280  1.0000 0.0763156155
C   C4        1.0  0.97650  0.02830  0.32720  1.0000 0.0763156155
C   C5        1.0  0.09540  0.00620  0.84620  1.0000 -0.1939387497
C   C6        1.0  0.00620  0.09540  0.65380  1.0000 -0.1939387497
C   C7        1.0  0.90460  0.99380  0.15380  1.0000 -0.1939387497
C   C8        1.0  0.99380  0.90460  0.34620  1.0000 -0.1939387497
C   C9        1.0  0.16660  0.10820  0.84310  1.0000 0.097501218
C   C10       1.0  0.10820  0.16660  0.65690  1.0000 0.097501218
C   C11       1.0  0.83340  0.89180  0.15690  1.0000 0.097501218
C   C12       1.0  0.89180  0.83340  0.34310  1.0000 0.097501218
C   C13       1.0  0.10640  0.22360  0.81970  1.0000 -0.183968582
C   C14       1.0  0.22360  0.10640  0.68030  1.0000 -0.183968582
C   C15       1.0  0.89360  0.77640  0.18030  1.0000 -0.183968582
C   C16       1.0  0.77640  0.89360  0.31970  1.0000 -0.183968582
C   C17       1.0  0.35110  0.91430  0.99050  1.0000 0.0890735827
C   C18       1.0  0.91430  0.35110  0.50950  1.0000 0.0890735827
C   C19       1.0  0.64890  0.08570  0.00950  1.0000 0.0890735827
C   C20       1.0  0.08570  0.64890  0.49050  1.0000 0.0890735827
C   C21       1.0  0.58220  0.58220  0.75000  1.0000 -0.1214483723
C   C22       1.0  0.41780  0.41780  0.25000  1.0000 -0.1214483723
C   C23       1.0  0.55470  0.69530  0.76330  1.0000 -0.0200471695
C   C24       1.0  0.69530  0.55470  0.73670  1.0000 -0.0200471695
C   C25       1.0  0.44530  0.30470  0.23670  1.0000 -0.0200471695
C   C26       1.0  0.30470  0.44530  0.26330  1.0000 -0.0200471695
C   C27       1.0  0.64190  0.78310  0.76180  1.0000 -0.0443404939
C   C28       1.0  0.78310  0.64190  0.73820  1.0000 -0.0443404939
C   C29       1.0  0.35810  0.21690  0.23820  1.0000 -0.0443404939
C   C30       1.0  0.21690  0.35810  0.26180  1.0000 -0.0443404939
C   C31       1.0  0.75440  0.75440  0.75000  1.0000 -0.1128966294
C   C32       1.0  0.24560  0.24560  0.25000  1.0000 -0.1128966294
C   C33       1.0  0.61900  0.91180  0.77050  1.0000 0.5705101557
C   C34       1.0  0.91180  0.61900  0.72950  1.0000 0.5705101557
C   C35       1.0  0.38100  0.08820  0.22950  1.0000 0.5705101557
C   C36       1.0  0.08820  0.38100  0.27050  1.0000 0.5705101557
C   C37       1.0  0.98540  0.23020  0.80190  1.0000 0.097501218
C   C38       1.0  0.23020  0.98540  0.69810  1.0000 0.097501218
C   C39       1.0  0.01460  0.76980  0.19810  1.0000 0.097501218
C   C40       1.0  0.76980  0.01460  0.30190  1.0000 0.097501218
C   C41       1.0  0.29020  0.99880  0.01320  1.0000 -0.2042964332
C   C42       1.0  0.99880  0.29020  0.48680  1.0000 -0.2042964332
C   C43       1.0  0.70980  0.00120  0.98680  1.0000 -0.2042964332
C   C44       1.0  0.00120  0.70980  0.51320  1.0000 -0.2042964332
C   C45       1.0  0.36560  0.78640  0.10020  1.0000 0.097501218
C   C46       1.0  0.78640  0.36560  0.39980  1.0000 0.097501218
C   C47       1.0  0.63440  0.21360  0.89980  1.0000 0.097501218
C   C48       1.0  0.21360  0.63440  0.60020  1.0000 0.097501218
C   C49       1.0  0.26890  0.97130  0.07930  1.0000 0.097501218
C   C50       1.0  0.97130  0.26890  0.42070  1.0000 0.097501218
C   C51       1.0  0.73110  0.02870  0.92070  1.0000 0.097501218
C   C52       1.0  0.02870  0.73110  0.57930  1.0000 0.097501218
C   C53       1.0  0.38860  0.80560  0.03500  1.0000 -0.1939387497
C   C54       1.0  0.80560  0.38860  0.46500  1.0000 -0.1939387497
C   C55       1.0  0.61140  0.19440  0.96500  1.0000 -0.1939387497
C   C56       1.0  0.19440  0.61140  0.53500  1.0000 -0.1939387497
C   C57       1.0  0.43030  0.71010  0.77720  1.0000 0.5779873796
C   C58       1.0  0.71010  0.43030  0.72280  1.0000 0.5779873796
C   C59       1.0  0.56970  0.28990  0.22280  1.0000 0.5779873796
C   C60       1.0  0.28990  0.56970  0.27720  1.0000 0.5779873796
S   S1        1.0  0.32890  0.10770  0.86379  1.0000 0.0048428384
S   S2        1.0  0.10770  0.32890  0.63621  1.0000 0.0048428384
S   S3        1.0  0.67110  0.89230  0.13621  1.0000 0.0059942763
S   S4        1.0  0.89230  0.67110  0.36379  1.0000 0.0059942763
S   S5        1.0  0.38270  0.93270  0.90680  1.0000 0.0763156155
S   S6        1.0  0.93270  0.38270  0.59320  1.0000 0.0763156155
S   S7        1.0  0.61730  0.06730  0.09320  1.0000 0.0763156155
S   S8        1.0  0.06730  0.61730  0.40680  1.0000 0.0763156155
N   N1        1.0  0.91190  0.13390  0.80560  1.0000 -0.2353810974
N   N2        1.0  0.13390  0.91190  0.69440  1.0000 -0.2353810974
N   N3        1.0  0.08810  0.86610  0.19440  1.0000 -0.2353810974
N   N4        1.0  0.86610  0.08810  0.30560  1.0000 -0.2353810974
N   N5        1.0  0.30560  0.86640  0.12290  1.0000 -0.2180425905
N   N6        1.0  0.86640  0.30560  0.37710  1.0000 -0.2180425905
N   N7        1.0  0.69440  0.13360  0.87710  1.0000 -0.2180425905
N   N8        1.0  0.13360  0.69440  0.62290  1.0000 -0.2180425905
O   O1        1.0  0.51050  0.94230  0.76890  1.0000 -0.5627707375
O   O2        1.0  0.94230  0.51050  0.73110  1.0000 -0.5627707375
O   O3        1.0  0.48950  0.05770  0.23110  1.0000 -0.5627707375
O   O4        1.0  0.05770  0.48950  0.26890  1.0000 -0.5627707375
O   O5        1.0  0.70970  0.97670  0.77770  1.0000 -0.5627707375
O   O6        1.0  0.97670  0.70970  0.72230  1.0000 -0.5627707375
O   O7        1.0  0.29030  0.02330  0.22230  1.0000 -0.5627707375
O   O8        1.0  0.02330  0.29030  0.27770  1.0000 -0.5627707375
O   O9        1.0  0.34350  0.73490  0.72590  1.0000 -0.5627707375
O   O10       1.0  0.73490  0.34350  0.77410  1.0000 -0.5627707375
O   O11       1.0  0.65650  0.26510  0.27410  1.0000 -0.5627707375
O   O12       1.0  0.26510  0.65650  0.22590  1.0000 -0.5627707375
O   O13       1.0  0.41850  0.69050  0.83870  1.0000 -0.5707389645
O   O14       1.0  0.69050  0.41850  0.66130  1.0000 -0.5707389645
O   O15       1.0  0.58150  0.30950  0.16130  1.0000 -0.5707389645
O   O16       1.0  0.30950  0.58150  0.33870  1.0000 -0.5707389645
