# DDEC6 charges by PACMAN v1.1 (https://github.com/mtap-research/PACMAN-charge/)
data_2014[Zn][srs]3[ASR]2
_chemical_formula_sum              "Zn24 H192 C288 I48 N96"
_cell_length_a       13.8933
_cell_length_b       27.774
_cell_length_c       44.585
_cell_angle_alpha    90
_cell_angle_beta     90
_cell_angle_gamma    90

_symmetry_space_group_name_H-M    "P 1"
_symmetry_Int_Tables_number       1

loop_
  _symmetry_equiv_pos_as_xyz
  'x, y, z'

loop_
  _atom_site_type_symbol
  _atom_site_label
  _atom_site_symmetry_multiplicity
  _atom_site_fract_x
  _atom_site_fract_y
  _atom_site_fract_z
  _atom_site_occupancy
  _atom_site_charge
Zn  Zn1       1.0  0.32326  0.25844  0.81995  1.0000 0.4661644541
Zn  Zn2       1.0  0.67674  0.24156  0.31995  1.0000 0.4613497735
Zn  Zn3       1.0  0.82326  0.74156  0.68005  1.0000 0.4613497735
Zn  Zn4       1.0  0.17674  0.75844  0.18005  1.0000 0.4613497735
Zn  Zn5       1.0  0.62037  0.52501  0.58526  1.0000 0.4613497735
Zn  Zn6       1.0  0.37963  0.97499  0.08526  1.0000 0.4613497735
Zn  Zn7       1.0  0.12037  0.47499  0.91474  1.0000 0.4613497735
Zn  Zn8       1.0  0.87963  0.02501  0.41474  1.0000 0.4613497735
Zn  Zn9       1.0  0.64696  0.04854  0.58660  1.0000 0.446440288
Zn  Zn10      1.0  0.35304  0.45146  0.08660  1.0000 0.446440288
Zn  Zn11      1.0  0.14696  0.95146  0.91340  1.0000 0.4441604359
Zn  Zn12      1.0  0.85304  0.54854  0.41340  1.0000 0.446440288
Zn  Zn13      1.0  0.67674  0.74156  0.18005  1.0000 0.4661644541
Zn  Zn14      1.0  0.32326  0.75844  0.68005  1.0000 0.4613497735
Zn  Zn15      1.0  0.17674  0.25844  0.31995  1.0000 0.4613497735
Zn  Zn16      1.0  0.82326  0.24156  0.81995  1.0000 0.4661644541
Zn  Zn17      1.0  0.37963  0.47499  0.41474  1.0000 0.4613497735
Zn  Zn18      1.0  0.62037  0.02501  0.91474  1.0000 0.4613497735
Zn  Zn19      1.0  0.87963  0.52501  0.08526  1.0000 0.4613497735
Zn  Zn20      1.0  0.12037  0.97499  0.58526  1.0000 0.4613497735
Zn  Zn21      1.0  0.35304  0.95146  0.41340  1.0000 0.446440288
Zn  Zn22      1.0  0.64696  0.54854  0.91340  1.0000 0.446440288
Zn  Zn23      1.0  0.85304  0.04854  0.08660  1.0000 0.446440288
Zn  Zn24      1.0  0.14696  0.45146  0.58660  1.0000 0.446440288
H   H1        1.0  0.43860  0.20140  0.77680  1.0000 0.1093801202
H   H2        1.0  0.56140  0.29860  0.27680  1.0000 0.1093801202
H   H3        1.0  0.93860  0.79860  0.72320  1.0000 0.1093801202
H   H4        1.0  0.06140  0.70140  0.22320  1.0000 0.1093801202
H   H5        1.0  0.49980  0.20790  0.72870  1.0000 0.1318360639
H   H6        1.0  0.50020  0.29210  0.22870  1.0000 0.1318360639
H   H7        1.0  0.99980  0.79210  0.77130  1.0000 0.1318360639
H   H8        1.0  0.00020  0.70790  0.27130  1.0000 0.1318360639
H   H9        1.0  0.44650  0.35090  0.73150  1.0000 0.1375879916
H   H10       1.0  0.55350  0.14910  0.23150  1.0000 0.1375879916
H   H11       1.0  0.94650  0.64910  0.76850  1.0000 0.1375879916
H   H12       1.0  0.05350  0.85090  0.26850  1.0000 0.1375879916
H   H13       1.0  0.38040  0.33960  0.77890  1.0000 0.1154530947
H   H14       1.0  0.61960  0.16040  0.27890  1.0000 0.1154530947
H   H15       1.0  0.88040  0.66040  0.72110  1.0000 0.1154530947
H   H16       1.0  0.11960  0.83960  0.22110  1.0000 0.1154530947
H   H17       1.0  0.55930  0.48910  0.64610  1.0000 0.1093801202
H   H18       1.0  0.44070  0.01090  0.14610  1.0000 0.1093801202
H   H19       1.0  0.05930  0.51090  0.85390  1.0000 0.1093801202
H   H20       1.0  0.94070  0.98910  0.35390  1.0000 0.1093801202
H   H21       1.0  0.53120  0.41860  0.67120  1.0000 0.1318360639
H   H22       1.0  0.46880  0.08140  0.17120  1.0000 0.1318360639
H   H23       1.0  0.03120  0.58140  0.82880  1.0000 0.1318360639
H   H24       1.0  0.96880  0.91860  0.32880  1.0000 0.1318360639
H   H25       1.0  0.58730  0.34620  0.59480  1.0000 0.1318360639
H   H26       1.0  0.41270  0.15380  0.09480  1.0000 0.1318360639
H   H27       1.0  0.08730  0.65380  0.90520  1.0000 0.1318360639
H   H28       1.0  0.91270  0.84620  0.40520  1.0000 0.1318360639
H   H29       1.0  0.61200  0.41890  0.57100  1.0000 0.1093801202
H   H30       1.0  0.38800  0.08110  0.07100  1.0000 0.1093801202
H   H31       1.0  0.11200  0.58110  0.92900  1.0000 0.1093801202
H   H32       1.0  0.88800  0.91890  0.42900  1.0000 0.1093801202
H   H33       1.0  0.63750  0.15500  0.57080  1.0000 0.1093801202
H   H34       1.0  0.36250  0.34500  0.07080  1.0000 0.1093801202
H   H35       1.0  0.13750  0.84500  0.92920  1.0000 0.1093801202
H   H36       1.0  0.86250  0.65500  0.42920  1.0000 0.1093801202
H   H37       1.0  0.60300  0.22770  0.59290  1.0000 0.1375879916
H   H38       1.0  0.39700  0.27230  0.09290  1.0000 0.1375879916
H   H39       1.0  0.10300  0.77230  0.90710  1.0000 0.1375879916
H   H40       1.0  0.89700  0.72770  0.40710  1.0000 0.1375879916
H   H41       1.0  0.53440  0.15550  0.66900  1.0000 0.1318360639
H   H42       1.0  0.46560  0.34450  0.16900  1.0000 0.1318360639
H   H43       1.0  0.03440  0.84450  0.83100  1.0000 0.1318360639
H   H44       1.0  0.96560  0.65550  0.33100  1.0000 0.1318360639
H   H45       1.0  0.56350  0.08480  0.64360  1.0000 0.0989969513
H   H46       1.0  0.43650  0.41520  0.14360  1.0000 0.0989969513
H   H47       1.0  0.06350  0.91520  0.85640  1.0000 0.0989969513
H   H48       1.0  0.93650  0.58480  0.35640  1.0000 0.0989969513
H   H49       1.0  0.45570  0.02950  0.55730  1.0000 0.1093801202
H   H50       1.0  0.54430  0.47050  0.05730  1.0000 0.1093801202
H   H51       1.0  0.95570  0.97050  0.94270  1.0000 0.1093801202
H   H52       1.0  0.04430  0.52950  0.44270  1.0000 0.1093801202
H   H53       1.0  0.37510  0.04930  0.51300  1.0000 0.1318360639
H   H54       1.0  0.62490  0.45070  0.01300  1.0000 0.1318360639
H   H55       1.0  0.87510  0.95070  0.98700  1.0000 0.1318360639
H   H56       1.0  0.12490  0.54930  0.48700  1.0000 0.1318360639
H   H57       1.0  0.62550  0.09700  0.47850  1.0000 0.1375879916
H   H58       1.0  0.37450  0.40300  0.97850  1.0000 0.1375879916
H   H59       1.0  0.12550  0.90300  0.02150  1.0000 0.1375879916
H   H60       1.0  0.87450  0.59700  0.52150  1.0000 0.1375879916
H   H61       1.0  0.69960  0.07660  0.52280  1.0000 0.1093801202
H   H62       1.0  0.30040  0.42340  0.02280  1.0000 0.1093801202
H   H63       1.0  0.19960  0.92340  0.97720  1.0000 0.1093801202
H   H64       1.0  0.80040  0.57660  0.47720  1.0000 0.1093801202
H   H65       1.0  0.70660  0.19270  0.37780  1.0000 0.1093801202
H   H66       1.0  0.29340  0.30730  0.87780  1.0000 0.1093801202
H   H67       1.0  0.20660  0.80730  0.12220  1.0000 0.1093801202
H   H68       1.0  0.79340  0.69270  0.62220  1.0000 0.1093801202
H   H69       1.0  0.62390  0.15720  0.41680  1.0000 0.1318360639
H   H70       1.0  0.37610  0.34280  0.91680  1.0000 0.1318360639
H   H71       1.0  0.12390  0.84280  0.08320  1.0000 0.1318360639
H   H72       1.0  0.87610  0.65720  0.58320  1.0000 0.1318360639
H   H73       1.0  0.38300  0.16720  0.36740  1.0000 0.1375879916
H   H74       1.0  0.61700  0.33280  0.86740  1.0000 0.1375879916
H   H75       1.0  0.88300  0.83280  0.13260  1.0000 0.1375879916
H   H76       1.0  0.11700  0.66720  0.63260  1.0000 0.1318360639
H   H77       1.0  0.47270  0.20650  0.33100  1.0000 0.1093801202
H   H78       1.0  0.52730  0.29350  0.83100  1.0000 0.1093801202
H   H79       1.0  0.97270  0.79350  0.16900  1.0000 0.1093801202
H   H80       1.0  0.02730  0.70650  0.66900  1.0000 0.1093801202
H   H81       1.0  0.03640  0.07610  0.38090  1.0000 0.1093801202
H   H82       1.0  0.96360  0.42390  0.88090  1.0000 0.1093801202
H   H83       1.0  0.53640  0.92390  0.11910  1.0000 0.1093801202
H   H84       1.0  0.46360  0.57610  0.61910  1.0000 0.1093801202
H   H85       1.0  0.19390  0.10250  0.38790  1.0000 0.1318360639
H   H86       1.0  0.80610  0.39750  0.88790  1.0000 0.1318360639
H   H87       1.0  0.69390  0.89750  0.11210  1.0000 0.1318360639
H   H88       1.0  0.30610  0.60250  0.61210  1.0000 0.1318360639
H   H89       1.0  0.17530  0.06180  0.47500  1.0000 0.1318360639
H   H90       1.0  0.82470  0.43820  0.97500  1.0000 0.1318360639
H   H91       1.0  0.67530  0.93820  0.02500  1.0000 0.1318360639
H   H92       1.0  0.32470  0.56180  0.52500  1.0000 0.1318360639
H   H93       1.0  0.01880  0.03800  0.46620  1.0000 0.1154530947
H   H94       1.0  0.98120  0.46200  0.96620  1.0000 0.1154530947
H   H95       1.0  0.51880  0.96200  0.03380  1.0000 0.1154530947
H   H96       1.0  0.48120  0.53800  0.53380  1.0000 0.1154530947
H   H97       1.0  0.56140  0.79860  0.22320  1.0000 0.1093801202
H   H98       1.0  0.43860  0.70140  0.72320  1.0000 0.1093801202
H   H99       1.0  0.06140  0.20140  0.27680  1.0000 0.1093801202
H   H100      1.0  0.93860  0.29860  0.77680  1.0000 0.1093801202
H   H101      1.0  0.50020  0.79210  0.27130  1.0000 0.1318360639
H   H102      1.0  0.49980  0.70790  0.77130  1.0000 0.1318360639
H   H103      1.0  0.00020  0.20790  0.22870  1.0000 0.1318360639
H   H104      1.0  0.99980  0.29210  0.72870  1.0000 0.1318360639
H   H105      1.0  0.55350  0.64910  0.26850  1.0000 0.1375879916
H   H106      1.0  0.44650  0.85090  0.76850  1.0000 0.1375879916
H   H107      1.0  0.05350  0.35090  0.23150  1.0000 0.1375879916
H   H108      1.0  0.94650  0.14910  0.73150  1.0000 0.1375879916
H   H109      1.0  0.61960  0.66040  0.22110  1.0000 0.1154530947
H   H110      1.0  0.38040  0.83960  0.72110  1.0000 0.1154530947
H   H111      1.0  0.11960  0.33960  0.27890  1.0000 0.1154530947
H   H112      1.0  0.88040  0.16040  0.77890  1.0000 0.1154530947
H   H113      1.0  0.44070  0.51090  0.35390  1.0000 0.1093801202
H   H114      1.0  0.55930  0.98910  0.85390  1.0000 0.1093801202
H   H115      1.0  0.94070  0.48910  0.14610  1.0000 0.1093801202
H   H116      1.0  0.05930  0.01090  0.64610  1.0000 0.1093801202
H   H117      1.0  0.46880  0.58140  0.32880  1.0000 0.1318360639
H   H118      1.0  0.53120  0.91860  0.82880  1.0000 0.1318360639
H   H119      1.0  0.96880  0.41860  0.17120  1.0000 0.1318360639
H   H120      1.0  0.03120  0.08140  0.67120  1.0000 0.1318360639
H   H121      1.0  0.41270  0.65380  0.40520  1.0000 0.1318360639
H   H122      1.0  0.58730  0.84620  0.90520  1.0000 0.1318360639
H   H123      1.0  0.91270  0.34620  0.09480  1.0000 0.1318360639
H   H124      1.0  0.08730  0.15380  0.59480  1.0000 0.1318360639
H   H125      1.0  0.38800  0.58110  0.42900  1.0000 0.1093801202
H   H126      1.0  0.61200  0.91890  0.92900  1.0000 0.1093801202
H   H127      1.0  0.88800  0.41890  0.07100  1.0000 0.1093801202
H   H128      1.0  0.11200  0.08110  0.57100  1.0000 0.1093801202
H   H129      1.0  0.36250  0.84500  0.42920  1.0000 0.1093801202
H   H130      1.0  0.63750  0.65500  0.92920  1.0000 0.1093801202
H   H131      1.0  0.86250  0.15500  0.07080  1.0000 0.1093801202
H   H132      1.0  0.13750  0.34500  0.57080  1.0000 0.1093801202
H   H133      1.0  0.39700  0.77230  0.40710  1.0000 0.1375879916
H   H134      1.0  0.60300  0.72770  0.90710  1.0000 0.1375879916
H   H135      1.0  0.89700  0.22770  0.09290  1.0000 0.1375879916
H   H136      1.0  0.10300  0.27230  0.59290  1.0000 0.1375879916
H   H137      1.0  0.46560  0.84450  0.33100  1.0000 0.1318360639
H   H138      1.0  0.53440  0.65550  0.83100  1.0000 0.1318360639
H   H139      1.0  0.96560  0.15550  0.16900  1.0000 0.1318360639
H   H140      1.0  0.03440  0.34450  0.66900  1.0000 0.1318360639
H   H141      1.0  0.43650  0.91520  0.35640  1.0000 0.0989969513
H   H142      1.0  0.56350  0.58480  0.85640  1.0000 0.0989969513
H   H143      1.0  0.93650  0.08480  0.14360  1.0000 0.0989969513
H   H144      1.0  0.06350  0.41520  0.64360  1.0000 0.0989969513
H   H145      1.0  0.54430  0.97050  0.44270  1.0000 0.1093801202
H   H146      1.0  0.45570  0.52950  0.94270  1.0000 0.1093801202
H   H147      1.0  0.04430  0.02950  0.05730  1.0000 0.1093801202
H   H148      1.0  0.95570  0.47050  0.55730  1.0000 0.1093801202
H   H149      1.0  0.62490  0.95070  0.48700  1.0000 0.1318360639
H   H150      1.0  0.37510  0.54930  0.98700  1.0000 0.1318360639
H   H151      1.0  0.12490  0.04930  0.01300  1.0000 0.1318360639
H   H152      1.0  0.87510  0.45070  0.51300  1.0000 0.1318360639
H   H153      1.0  0.37450  0.90300  0.52150  1.0000 0.1375879916
H   H154      1.0  0.62550  0.59700  0.02150  1.0000 0.1375879916
H   H155      1.0  0.87450  0.09700  0.97850  1.0000 0.1375879916
H   H156      1.0  0.12550  0.40300  0.47850  1.0000 0.1375879916
H   H157      1.0  0.30040  0.92340  0.47720  1.0000 0.1093801202
H   H158      1.0  0.69960  0.57660  0.97720  1.0000 0.1093801202
H   H159      1.0  0.80040  0.07660  0.02280  1.0000 0.1093801202
H   H160      1.0  0.19960  0.42340  0.52280  1.0000 0.1093801202
H   H161      1.0  0.29340  0.80730  0.62220  1.0000 0.1093801202
H   H162      1.0  0.70660  0.69270  0.12220  1.0000 0.1093801202
H   H163      1.0  0.79340  0.19270  0.87780  1.0000 0.1093801202
H   H164      1.0  0.20660  0.30730  0.37780  1.0000 0.1093801202
H   H165      1.0  0.37610  0.84280  0.58320  1.0000 0.1318360639
H   H166      1.0  0.62390  0.65720  0.08320  1.0000 0.1318360639
H   H167      1.0  0.87610  0.15720  0.91680  1.0000 0.1318360639
H   H168      1.0  0.12390  0.34280  0.41680  1.0000 0.1318360639
H   H169      1.0  0.61700  0.83280  0.63260  1.0000 0.1318360639
H   H170      1.0  0.38300  0.66720  0.13260  1.0000 0.1375879916
H   H171      1.0  0.11700  0.16720  0.86740  1.0000 0.1375879916
H   H172      1.0  0.88300  0.33280  0.36740  1.0000 0.1375879916
H   H173      1.0  0.52730  0.79350  0.66900  1.0000 0.1093801202
H   H174      1.0  0.47270  0.70650  0.16900  1.0000 0.1093801202
H   H175      1.0  0.02730  0.20650  0.83100  1.0000 0.1093801202
H   H176      1.0  0.97270  0.29350  0.33100  1.0000 0.1093801202
H   H177      1.0  0.96360  0.92390  0.61910  1.0000 0.1093801202
H   H178      1.0  0.03640  0.57610  0.11910  1.0000 0.1093801202
H   H179      1.0  0.46360  0.07610  0.88090  1.0000 0.1093801202
H   H180      1.0  0.53640  0.42390  0.38090  1.0000 0.1093801202
H   H181      1.0  0.80610  0.89750  0.61210  1.0000 0.1318360639
H   H182      1.0  0.19390  0.60250  0.11210  1.0000 0.1318360639
H   H183      1.0  0.30610  0.10250  0.88790  1.0000 0.1318360639
H   H184      1.0  0.69390  0.39750  0.38790  1.0000 0.1318360639
H   H185      1.0  0.82470  0.93820  0.52500  1.0000 0.1318360639
H   H186      1.0  0.17530  0.56180  0.02500  1.0000 0.1318360639
H   H187      1.0  0.32470  0.06180  0.97500  1.0000 0.1318360639
H   H188      1.0  0.67530  0.43820  0.47500  1.0000 0.1318360639
H   H189      1.0  0.98120  0.96200  0.53380  1.0000 0.1154530947
H   H190      1.0  0.01880  0.53800  0.03380  1.0000 0.1154530947
H   H191      1.0  0.48120  0.03800  0.96620  1.0000 0.1154530947
H   H192      1.0  0.51880  0.46200  0.46620  1.0000 0.1154530947
C   C1        1.0  0.43770  0.23180  0.76701  1.0000 0.0989969513
C   C2        1.0  0.56230  0.26820  0.26701  1.0000 0.0989969513
C   C3        1.0  0.93770  0.76820  0.73299  1.0000 0.0989969513
C   C4        1.0  0.06230  0.73180  0.23299  1.0000 0.0989969513
C   C5        1.0  0.47520  0.23560  0.73857  1.0000 -0.1490814308
C   C6        1.0  0.52480  0.26440  0.23857  1.0000 -0.1490814308
C   C7        1.0  0.97520  0.76440  0.76143  1.0000 -0.1490814308
C   C8        1.0  0.02480  0.73560  0.26143  1.0000 -0.1490814308
C   C9        1.0  0.47680  0.28020  0.72439  1.0000 0.0605913983
C   C10       1.0  0.52320  0.21980  0.22439  1.0000 0.0605913983
C   C11       1.0  0.97680  0.71980  0.77561  1.0000 0.0605913983
C   C12       1.0  0.02320  0.78020  0.27561  1.0000 0.0605913983
C   C13       1.0  0.44330  0.31960  0.74000  1.0000 -0.1598786614
C   C14       1.0  0.55670  0.18040  0.24000  1.0000 -0.1598786614
C   C15       1.0  0.94330  0.68040  0.76000  1.0000 -0.1598786614
C   C16       1.0  0.05670  0.81960  0.26000  1.0000 -0.1598786614
C   C17       1.0  0.40470  0.31260  0.76830  1.0000 0.0804982493
C   C18       1.0  0.59530  0.18740  0.26830  1.0000 0.0804982493
C   C19       1.0  0.90470  0.68740  0.73170  1.0000 0.0804982493
C   C20       1.0  0.09530  0.81260  0.23170  1.0000 0.0804982493
C   C21       1.0  0.56490  0.45950  0.63556  1.0000 0.0804982493
C   C22       1.0  0.43510  0.04050  0.13556  1.0000 0.0804982493
C   C23       1.0  0.06490  0.54050  0.86444  1.0000 0.0804982493
C   C24       1.0  0.93510  0.95950  0.36444  1.0000 0.0804982493
C   C25       1.0  0.54920  0.41760  0.65070  1.0000 -0.1490814308
C   C26       1.0  0.45080  0.08240  0.15070  1.0000 -0.1490814308
C   C27       1.0  0.04920  0.58240  0.84930  1.0000 -0.1490814308
C   C28       1.0  0.95080  0.91760  0.34930  1.0000 -0.1490814308
C   C29       1.0  0.55940  0.37320  0.63624  1.0000 0.0443874677
C   C30       1.0  0.44060  0.12680  0.13624  1.0000 0.0443874677
C   C31       1.0  0.05940  0.62680  0.86376  1.0000 0.0489435961
C   C32       1.0  0.94060  0.87320  0.36376  1.0000 0.0489435961
C   C33       1.0  0.58170  0.37520  0.60600  1.0000 -0.1306336911
C   C34       1.0  0.41830  0.12480  0.10600  1.0000 -0.1306336911
C   C35       1.0  0.08170  0.62480  0.89400  1.0000 -0.1306336911
C   C36       1.0  0.91830  0.87520  0.39400  1.0000 -0.1356245684
C   C37       1.0  0.59600  0.41880  0.59176  1.0000 0.0888668355
C   C38       1.0  0.40400  0.08120  0.09176  1.0000 0.0888668355
C   C39       1.0  0.09600  0.58120  0.90824  1.0000 0.0888668355
C   C40       1.0  0.90400  0.91880  0.40824  1.0000 0.0888668355
C   C41       1.0  0.61500  0.15530  0.59092  1.0000 0.0804982493
C   C42       1.0  0.38500  0.34470  0.09092  1.0000 0.0804982493
C   C43       1.0  0.11500  0.84470  0.90908  1.0000 0.0804982493
C   C44       1.0  0.88500  0.65530  0.40908  1.0000 0.0804982493
C   C45       1.0  0.59640  0.19870  0.60408  1.0000 -0.1598786614
C   C46       1.0  0.40360  0.30130  0.10408  1.0000 -0.1598786614
C   C47       1.0  0.09640  0.80130  0.89592  1.0000 -0.1598786614
C   C48       1.0  0.90360  0.69870  0.39592  1.0000 -0.1598786614
C   C49       1.0  0.56780  0.20020  0.63371  1.0000 0.0489435961
C   C50       1.0  0.43220  0.29980  0.13371  1.0000 0.0489435961
C   C51       1.0  0.06780  0.79980  0.86629  1.0000 0.0489435961
C   C52       1.0  0.93220  0.70020  0.36629  1.0000 0.0489435961
C   C53       1.0  0.55510  0.15630  0.64865  1.0000 -0.1598786614
C   C54       1.0  0.44490  0.34370  0.14865  1.0000 -0.1598786614
C   C55       1.0  0.05510  0.84370  0.85135  1.0000 -0.1598786614
C   C56       1.0  0.94490  0.65630  0.35135  1.0000 -0.1598786614
C   C57       1.0  0.57300  0.11450  0.63340  1.0000 0.0888668355
C   C58       1.0  0.42700  0.38550  0.13340  1.0000 0.0888668355
C   C59       1.0  0.07300  0.88550  0.86660  1.0000 0.0888668355
C   C60       1.0  0.92700  0.61450  0.36660  1.0000 0.0888668355
C   C61       1.0  0.50960  0.28430  0.69256  1.0000 0.3778135881
C   C62       1.0  0.49040  0.21570  0.19256  1.0000 0.3778135881
C   C63       1.0  0.00960  0.71570  0.80744  1.0000 0.3778135881
C   C64       1.0  0.99040  0.78430  0.30744  1.0000 0.3778135881
C   C65       1.0  0.54710  0.32760  0.65155  1.0000 0.3637647485
C   C66       1.0  0.45290  0.17240  0.15155  1.0000 0.3637647485
C   C67       1.0  0.04710  0.67240  0.84845  1.0000 0.3637647485
C   C68       1.0  0.95290  0.82760  0.34845  1.0000 0.3637647485
C   C69       1.0  0.55130  0.24570  0.64983  1.0000 0.3735692678
C   C70       1.0  0.44870  0.25430  0.14983  1.0000 0.3778135881
C   C71       1.0  0.05130  0.75430  0.85017  1.0000 0.3778135881
C   C72       1.0  0.94870  0.74570  0.35017  1.0000 0.3735692678
C   C73       1.0  0.49000  0.04410  0.54130  1.0000 0.0723181596
C   C74       1.0  0.51000  0.45590  0.04130  1.0000 0.0723181596
C   C75       1.0  0.99000  0.95590  0.95870  1.0000 0.0723181596
C   C76       1.0  0.01000  0.54410  0.45870  1.0000 0.0723181596
C   C77       1.0  0.44190  0.05580  0.51490  1.0000 -0.1306336911
C   C78       1.0  0.55810  0.44420  0.01490  1.0000 -0.1306336911
C   C79       1.0  0.94190  0.94420  0.98510  1.0000 -0.1306336911
C   C80       1.0  0.05810  0.55580  0.48510  1.0000 -0.1306336911
C   C81       1.0  0.49030  0.07660  0.49194  1.0000 0.0489435961
C   C82       1.0  0.50970  0.42340  0.99194  1.0000 0.0489435961
C   C83       1.0  0.99030  0.92340  0.00806  1.0000 0.0489435961
C   C84       1.0  0.00970  0.57660  0.50806  1.0000 0.0489435961
C   C85       1.0  0.58920  0.08390  0.49460  1.0000 -0.1490814308
C   C86       1.0  0.41080  0.41610  0.99460  1.0000 -0.1490814308
C   C87       1.0  0.08920  0.91610  0.00540  1.0000 -0.1490814308
C   C88       1.0  0.91080  0.58390  0.50540  1.0000 -0.1490814308
C   C89       1.0  0.63210  0.07170  0.52100  1.0000 0.0723181596
C   C90       1.0  0.36790  0.42830  0.02100  1.0000 0.0723181596
C   C91       1.0  0.13210  0.92830  0.97900  1.0000 0.0723181596
C   C92       1.0  0.86790  0.57170  0.47900  1.0000 0.0723181596
C   C93       1.0  0.63890  0.18890  0.37600  1.0000 0.0804982493
C   C94       1.0  0.36110  0.31110  0.87600  1.0000 0.0804982493
C   C95       1.0  0.13890  0.81110  0.12400  1.0000 0.0804982493
C   C96       1.0  0.86110  0.68890  0.62400  1.0000 0.0804982493
C   C97       1.0  0.59090  0.16670  0.39910  1.0000 -0.1306336911
C   C98       1.0  0.40910  0.33333  0.89910  1.0000 -0.1306336911
C   C99       1.0  0.09090  0.83330  0.10090  1.0000 -0.1306336911
C   C100      1.0  0.90910  0.66667  0.60090  1.0000 -0.1306336911
C   C101      1.0  0.49330  0.15850  0.39596  1.0000 0.0605913983
C   C102      1.0  0.50670  0.34150  0.89596  1.0000 0.0605913983
C   C103      1.0  0.99330  0.84150  0.10404  1.0000 0.0605913983
C   C104      1.0  0.00670  0.65850  0.60404  1.0000 0.0605913983
C   C105      1.0  0.44970  0.17290  0.37050  1.0000 -0.1205732575
C   C106      1.0  0.55030  0.32710  0.87050  1.0000 -0.1205732575
C   C107      1.0  0.94970  0.82710  0.12950  1.0000 -0.1205732575
C   C108      1.0  0.05030  0.67290  0.62950  1.0000 -0.1205732575
C   C109      1.0  0.50430  0.19640  0.34881  1.0000 0.0888668355
C   C110      1.0  0.49570  0.30360  0.84881  1.0000 0.0888668355
C   C111      1.0  0.00430  0.80360  0.15119  1.0000 0.0888668355
C   C112      1.0  0.99570  0.69640  0.65119  1.0000 0.0888668355
C   C113      1.0  0.06490  0.07360  0.40020  1.0000 0.0888668355
C   C114      1.0  0.93510  0.42640  0.90020  1.0000 0.0888668355
C   C115      1.0  0.56490  0.92640  0.09980  1.0000 0.0888668355
C   C116      1.0  0.43510  0.57360  0.59980  1.0000 0.0888668355
C   C117      1.0  0.15870  0.08920  0.40420  1.0000 -0.1205732575
C   C118      1.0  0.84130  0.41080  0.90420  1.0000 -0.1205732575
C   C119      1.0  0.65870  0.91080  0.09580  1.0000 -0.1205732575
C   C120      1.0  0.34130  0.58920  0.59580  1.0000 -0.1205732575
C   C121      1.0  0.20030  0.08510  0.43210  1.0000 0.0605913983
C   C122      1.0  0.79970  0.41490  0.93210  1.0000 0.0605913983
C   C123      1.0  0.70030  0.91490  0.06790  1.0000 0.0605913983
C   C124      1.0  0.29970  0.58510  0.56790  1.0000 0.0605913983
C   C125      1.0  0.14760  0.06530  0.45560  1.0000 -0.1306336911
C   C126      1.0  0.85240  0.43470  0.95560  1.0000 -0.1306336911
C   C127      1.0  0.64760  0.93470  0.04440  1.0000 -0.1306336911
C   C128      1.0  0.35240  0.56530  0.54440  1.0000 -0.1306336911
C   C129      1.0  0.05520  0.05120  0.45020  1.0000 0.0723181596
C   C130      1.0  0.94480  0.44880  0.95020  1.0000 0.0723181596
C   C131      1.0  0.55520  0.94880  0.04980  1.0000 0.0723181596
C   C132      1.0  0.44480  0.55120  0.54980  1.0000 0.0723181596
C   C133      1.0  0.43990  0.09280  0.46440  1.0000 0.3735692678
C   C134      1.0  0.56010  0.40720  0.96440  1.0000 0.3778135881
C   C135      1.0  0.93990  0.90720  0.03560  1.0000 0.3778135881
C   C136      1.0  0.06010  0.59280  0.53560  1.0000 0.3778135881
C   C137      1.0  0.43900  0.13240  0.42044  1.0000 0.3778135881
C   C138      1.0  0.56100  0.36760  0.92044  1.0000 0.3778135881
C   C139      1.0  0.93900  0.86760  0.07956  1.0000 0.3778135881
C   C140      1.0  0.06100  0.63240  0.57956  1.0000 0.3778135881
C   C141      1.0  0.30330  0.09880  0.43690  1.0000 0.3735692678
C   C142      1.0  0.69670  0.40120  0.93690  1.0000 0.3778135881
C   C143      1.0  0.80330  0.90120  0.06310  1.0000 0.3735692678
C   C144      1.0  0.19670  0.59880  0.56310  1.0000 0.3735692678
C   C145      1.0  0.56230  0.76820  0.23299  1.0000 0.0989969513
C   C146      1.0  0.43770  0.73180  0.73299  1.0000 0.0989969513
C   C147      1.0  0.06230  0.23180  0.26701  1.0000 0.0989969513
C   C148      1.0  0.93770  0.26820  0.76701  1.0000 0.0989969513
C   C149      1.0  0.52480  0.76440  0.26143  1.0000 -0.1490814308
C   C150      1.0  0.47520  0.73560  0.76143  1.0000 -0.1490814308
C   C151      1.0  0.02480  0.23560  0.23857  1.0000 -0.1490814308
C   C152      1.0  0.97520  0.26440  0.73857  1.0000 -0.1490814308
C   C153      1.0  0.52320  0.71980  0.27561  1.0000 0.0605913983
C   C154      1.0  0.47680  0.78020  0.77561  1.0000 0.0605913983
C   C155      1.0  0.02320  0.28020  0.22439  1.0000 0.0605913983
C   C156      1.0  0.97680  0.21980  0.72439  1.0000 0.0605913983
C   C157      1.0  0.55670  0.68040  0.26000  1.0000 -0.1598786614
C   C158      1.0  0.44330  0.81960  0.76000  1.0000 -0.1598786614
C   C159      1.0  0.05670  0.31960  0.24000  1.0000 -0.1598786614
C   C160      1.0  0.94330  0.18040  0.74000  1.0000 -0.1598786614
C   C161      1.0  0.59530  0.68740  0.23170  1.0000 0.0804982493
C   C162      1.0  0.40470  0.81260  0.73170  1.0000 0.0804982493
C   C163      1.0  0.09530  0.31260  0.26830  1.0000 0.0804982493
C   C164      1.0  0.90470  0.18740  0.76830  1.0000 0.0804982493
C   C165      1.0  0.43510  0.54050  0.36444  1.0000 0.0804982493
C   C166      1.0  0.56490  0.95950  0.86444  1.0000 0.0804982493
C   C167      1.0  0.93510  0.45950  0.13556  1.0000 0.0804982493
C   C168      1.0  0.06490  0.04050  0.63556  1.0000 0.0804982493
C   C169      1.0  0.45080  0.58240  0.34930  1.0000 -0.1490814308
C   C170      1.0  0.54920  0.91760  0.84930  1.0000 -0.1490814308
C   C171      1.0  0.95080  0.41760  0.15070  1.0000 -0.1490814308
C   C172      1.0  0.04920  0.08240  0.65070  1.0000 -0.1490814308
C   C173      1.0  0.44060  0.62680  0.36376  1.0000 0.0489435961
C   C174      1.0  0.55940  0.87320  0.86376  1.0000 0.0489435961
C   C175      1.0  0.94060  0.37320  0.13624  1.0000 0.0443874677
C   C176      1.0  0.05940  0.12680  0.63624  1.0000 0.0443874677
C   C177      1.0  0.41830  0.62480  0.39400  1.0000 -0.1356245684
C   C178      1.0  0.58170  0.87520  0.89400  1.0000 -0.1356245684
C   C179      1.0  0.91830  0.37520  0.10600  1.0000 -0.1306336911
C   C180      1.0  0.08170  0.12480  0.60600  1.0000 -0.1306336911
C   C181      1.0  0.40400  0.58120  0.40824  1.0000 0.0888668355
C   C182      1.0  0.59600  0.91880  0.90824  1.0000 0.0888668355
C   C183      1.0  0.90400  0.41880  0.09176  1.0000 0.0888668355
C   C184      1.0  0.09600  0.08120  0.59176  1.0000 0.0888668355
C   C185      1.0  0.38500  0.84470  0.40908  1.0000 0.0804982493
C   C186      1.0  0.61500  0.65530  0.90908  1.0000 0.0804982493
C   C187      1.0  0.88500  0.15530  0.09092  1.0000 0.0804982493
C   C188      1.0  0.11500  0.34470  0.59092  1.0000 0.0804982493
C   C189      1.0  0.40360  0.80130  0.39592  1.0000 -0.1598786614
C   C190      1.0  0.59640  0.69870  0.89592  1.0000 -0.1598786614
C   C191      1.0  0.90360  0.19870  0.10408  1.0000 -0.1598786614
C   C192      1.0  0.09640  0.30130  0.60408  1.0000 -0.1598786614
C   C193      1.0  0.43220  0.79980  0.36629  1.0000 0.0489435961
C   C194      1.0  0.56780  0.70020  0.86629  1.0000 0.0489435961
C   C195      1.0  0.93220  0.20020  0.13371  1.0000 0.0489435961
C   C196      1.0  0.06780  0.29980  0.63371  1.0000 0.0489435961
C   C197      1.0  0.44490  0.84370  0.35135  1.0000 -0.1598786614
C   C198      1.0  0.55510  0.65630  0.85135  1.0000 -0.1598786614
C   C199      1.0  0.94490  0.15630  0.14865  1.0000 -0.1598786614
C   C200      1.0  0.05510  0.34370  0.64865  1.0000 -0.1598786614
C   C201      1.0  0.42700  0.88550  0.36660  1.0000 0.0888668355
C   C202      1.0  0.57300  0.61450  0.86660  1.0000 0.0888668355
C   C203      1.0  0.92700  0.11450  0.13340  1.0000 0.0888668355
C   C204      1.0  0.07300  0.38550  0.63340  1.0000 0.0888668355
C   C205      1.0  0.49040  0.71570  0.30744  1.0000 0.3778135881
C   C206      1.0  0.50960  0.78430  0.80744  1.0000 0.3778135881
C   C207      1.0  0.99040  0.28430  0.19256  1.0000 0.3778135881
C   C208      1.0  0.00960  0.21570  0.69256  1.0000 0.3778135881
C   C209      1.0  0.45290  0.67240  0.34845  1.0000 0.3637647485
C   C210      1.0  0.54710  0.82760  0.84845  1.0000 0.3637647485
C   C211      1.0  0.95290  0.32760  0.15155  1.0000 0.3637647485
C   C212      1.0  0.04710  0.17240  0.65155  1.0000 0.3637647485
C   C213      1.0  0.44870  0.75430  0.35017  1.0000 0.3778135881
C   C214      1.0  0.55130  0.74570  0.85017  1.0000 0.3778135881
C   C215      1.0  0.94870  0.24570  0.14983  1.0000 0.3778135881
C   C216      1.0  0.05130  0.25430  0.64983  1.0000 0.3735692678
C   C217      1.0  0.51000  0.95590  0.45870  1.0000 0.0723181596
C   C218      1.0  0.49000  0.54410  0.95870  1.0000 0.0723181596
C   C219      1.0  0.01000  0.04410  0.04130  1.0000 0.0723181596
C   C220      1.0  0.99000  0.45590  0.54130  1.0000 0.0723181596
C   C221      1.0  0.55810  0.94420  0.48510  1.0000 -0.1306336911
C   C222      1.0  0.44190  0.55580  0.98510  1.0000 -0.1306336911
C   C223      1.0  0.05810  0.05580  0.01490  1.0000 -0.1306336911
C   C224      1.0  0.94190  0.44420  0.51490  1.0000 -0.1306336911
C   C225      1.0  0.50970  0.92340  0.50806  1.0000 0.0489435961
C   C226      1.0  0.49030  0.57660  0.00806  1.0000 0.0489435961
C   C227      1.0  0.00970  0.07660  0.99194  1.0000 0.0489435961
C   C228      1.0  0.99030  0.42340  0.49194  1.0000 0.0489435961
C   C229      1.0  0.41080  0.91610  0.50540  1.0000 -0.1490814308
C   C230      1.0  0.58920  0.58390  0.00540  1.0000 -0.1490814308
C   C231      1.0  0.91080  0.08390  0.99460  1.0000 -0.1490814308
C   C232      1.0  0.08920  0.41610  0.49460  1.0000 -0.1490814308
C   C233      1.0  0.36790  0.92830  0.47900  1.0000 0.0723181596
C   C234      1.0  0.63210  0.57170  0.97900  1.0000 0.0723181596
C   C235      1.0  0.86790  0.07170  0.02100  1.0000 0.0723181596
C   C236      1.0  0.13210  0.42830  0.52100  1.0000 0.0723181596
C   C237      1.0  0.36110  0.81110  0.62400  1.0000 0.0804982493
C   C238      1.0  0.63890  0.68890  0.12400  1.0000 0.0804982493
C   C239      1.0  0.86110  0.18890  0.87600  1.0000 0.0804982493
C   C240      1.0  0.13890  0.31110  0.37600  1.0000 0.0804982493
C   C241      1.0  0.40910  0.83330  0.60090  1.0000 -0.1306336911
C   C242      1.0  0.59090  0.66667  0.10090  1.0000 -0.1306336911
C   C243      1.0  0.90910  0.16670  0.89910  1.0000 -0.1306336911
C   C244      1.0  0.09090  0.33333  0.39910  1.0000 -0.1306336911
C   C245      1.0  0.50670  0.84150  0.60404  1.0000 0.0605913983
C   C246      1.0  0.49330  0.65850  0.10404  1.0000 0.0605913983
C   C247      1.0  0.00670  0.15850  0.89596  1.0000 0.0605913983
C   C248      1.0  0.99330  0.34150  0.39596  1.0000 0.0605913983
C   C249      1.0  0.55030  0.82710  0.62950  1.0000 -0.1205732575
C   C250      1.0  0.44970  0.67290  0.12950  1.0000 -0.1205732575
C   C251      1.0  0.05030  0.17290  0.87050  1.0000 -0.1205732575
C   C252      1.0  0.94970  0.32710  0.37050  1.0000 -0.1205732575
C   C253      1.0  0.49570  0.80360  0.65119  1.0000 0.0888668355
C   C254      1.0  0.50430  0.69640  0.15119  1.0000 0.0888668355
C   C255      1.0  0.99570  0.19640  0.84881  1.0000 0.0888668355
C   C256      1.0  0.00430  0.30360  0.34881  1.0000 0.0888668355
C   C257      1.0  0.93510  0.92640  0.59980  1.0000 0.0888668355
C   C258      1.0  0.06490  0.57360  0.09980  1.0000 0.0888668355
C   C259      1.0  0.43510  0.07360  0.90020  1.0000 0.0888668355
C   C260      1.0  0.56490  0.42640  0.40020  1.0000 0.0888668355
C   C261      1.0  0.84130  0.91080  0.59580  1.0000 -0.1205732575
C   C262      1.0  0.15870  0.58920  0.09580  1.0000 -0.1205732575
C   C263      1.0  0.34130  0.08920  0.90420  1.0000 -0.1205732575
C   C264      1.0  0.65870  0.41080  0.40420  1.0000 -0.1205732575
C   C265      1.0  0.79970  0.91490  0.56790  1.0000 0.0605913983
C   C266      1.0  0.20030  0.58510  0.06790  1.0000 0.0605913983
C   C267      1.0  0.29970  0.08510  0.93210  1.0000 0.0605913983
C   C268      1.0  0.70030  0.41490  0.43210  1.0000 0.0605913983
C   C269      1.0  0.85240  0.93470  0.54440  1.0000 -0.1306336911
C   C270      1.0  0.14760  0.56530  0.04440  1.0000 -0.1306336911
C   C271      1.0  0.35240  0.06530  0.95560  1.0000 -0.1306336911
C   C272      1.0  0.64760  0.43470  0.45560  1.0000 -0.1306336911
C   C273      1.0  0.94480  0.94880  0.54980  1.0000 0.0723181596
C   C274      1.0  0.05520  0.55120  0.04980  1.0000 0.0723181596
C   C275      1.0  0.44480  0.05120  0.95020  1.0000 0.0723181596
C   C276      1.0  0.55520  0.44880  0.45020  1.0000 0.0723181596
C   C277      1.0  0.56010  0.90720  0.53560  1.0000 0.3778135881
C   C278      1.0  0.43990  0.59280  0.03560  1.0000 0.3778135881
C   C279      1.0  0.06010  0.09280  0.96440  1.0000 0.3778135881
C   C280      1.0  0.93990  0.40720  0.46440  1.0000 0.3735692678
C   C281      1.0  0.56100  0.86760  0.57956  1.0000 0.3778135881
C   C282      1.0  0.43900  0.63240  0.07956  1.0000 0.3778135881
C   C283      1.0  0.06100  0.13240  0.92044  1.0000 0.3778135881
C   C284      1.0  0.93900  0.36760  0.42044  1.0000 0.3778135881
C   C285      1.0  0.69670  0.90120  0.56310  1.0000 0.3735692678
C   C286      1.0  0.30330  0.59880  0.06310  1.0000 0.3735692678
C   C287      1.0  0.19670  0.09880  0.93690  1.0000 0.3778135881
C   C288      1.0  0.80330  0.40120  0.43690  1.0000 0.3735692678
I   I1        1.0  0.32309  0.16846  0.83230  1.0000 -0.4470688808
I   I2        1.0  0.67691  0.33154  0.33230  1.0000 -0.4470688808
I   I3        1.0  0.82309  0.83154  0.66770  1.0000 -0.4470688808
I   I4        1.0  0.17691  0.66846  0.16770  1.0000 -0.4470688808
I   I5        1.0  0.16057  0.30023  0.81424  1.0000 -0.460179172
I   I6        1.0  0.83943  0.19977  0.31424  1.0000 -0.460179172
I   I7        1.0  0.66057  0.69977  0.68576  1.0000 -0.460179172
I   I8        1.0  0.33943  0.80023  0.18576  1.0000 -0.460179172
I   I9        1.0  0.70797  0.57558  0.62412  1.0000 -0.4314693003
I   I10       1.0  0.29203  0.92442  0.12412  1.0000 -0.4314693003
I   I11       1.0  0.20797  0.42442  0.87588  1.0000 -0.4314693003
I   I12       1.0  0.79203  0.07558  0.37588  1.0000 -0.4314693003
I   I13       1.0  0.69580  0.50552  0.53418  1.0000 -0.4693925301
I   I14       1.0  0.30420  0.99448  0.03418  1.0000 -0.4693925301
I   I15       1.0  0.19580  0.49448  0.96582  1.0000 -0.4693925301
I   I16       1.0  0.80420  0.00552  0.46582  1.0000 -0.4693925301
I   I17       1.0  0.56306  0.98311  0.61686  1.0000 -0.4314693003
I   I18       1.0  0.43694  0.51689  0.11686  1.0000 -0.4314693003
I   I19       1.0  0.06306  0.01689  0.88314  1.0000 -0.4314693003
I   I20       1.0  0.93694  0.48311  0.38314  1.0000 -0.4314693003
I   I21       1.0  0.82852  0.05705  0.57933  1.0000 -0.4470688808
I   I22       1.0  0.17148  0.44295  0.07933  1.0000 -0.4470688808
I   I23       1.0  0.32852  0.94295  0.92067  1.0000 -0.4418889093
I   I24       1.0  0.67148  0.55705  0.42067  1.0000 -0.4418889093
I   I25       1.0  0.67691  0.83154  0.16770  1.0000 -0.4470688808
I   I26       1.0  0.32309  0.66846  0.66770  1.0000 -0.4470688808
I   I27       1.0  0.17691  0.16846  0.33230  1.0000 -0.4470688808
I   I28       1.0  0.82309  0.33154  0.83230  1.0000 -0.4470688808
I   I29       1.0  0.83943  0.69977  0.18576  1.0000 -0.460179172
I   I30       1.0  0.16057  0.80023  0.68576  1.0000 -0.460179172
I   I31       1.0  0.33943  0.30023  0.31424  1.0000 -0.460179172
I   I32       1.0  0.66057  0.19977  0.81424  1.0000 -0.460179172
I   I33       1.0  0.29203  0.42442  0.37588  1.0000 -0.4314693003
I   I34       1.0  0.70797  0.07558  0.87588  1.0000 -0.4314693003
I   I35       1.0  0.79203  0.57558  0.12412  1.0000 -0.4314693003
I   I36       1.0  0.20797  0.92442  0.62412  1.0000 -0.4314693003
I   I37       1.0  0.30420  0.49448  0.46582  1.0000 -0.4693925301
I   I38       1.0  0.69580  0.00552  0.96582  1.0000 -0.4693925301
I   I39       1.0  0.80420  0.50552  0.03418  1.0000 -0.4693925301
I   I40       1.0  0.19580  0.99448  0.53418  1.0000 -0.4693925301
I   I41       1.0  0.43694  0.01689  0.38314  1.0000 -0.4314693003
I   I42       1.0  0.56306  0.48311  0.88314  1.0000 -0.4314693003
I   I43       1.0  0.93694  0.98311  0.11686  1.0000 -0.4314693003
I   I44       1.0  0.06306  0.51689  0.61686  1.0000 -0.4314693003
I   I45       1.0  0.17148  0.94295  0.42067  1.0000 -0.4418889093
I   I46       1.0  0.82852  0.55705  0.92067  1.0000 -0.4418889093
I   I47       1.0  0.67148  0.05705  0.07933  1.0000 -0.4470688808
I   I48       1.0  0.32852  0.44295  0.57933  1.0000 -0.4470688808
N   N1        1.0  0.40050  0.26930  0.78120  1.0000 -0.1798971735
N   N2        1.0  0.59950  0.23070  0.28120  1.0000 -0.1798971735
N   N3        1.0  0.90050  0.73070  0.71880  1.0000 -0.1798971735
N   N4        1.0  0.09950  0.76930  0.21880  1.0000 -0.1798971735
N   N5        1.0  0.58800  0.46070  0.60606  1.0000 -0.1798971735
N   N6        1.0  0.41200  0.03930  0.10606  1.0000 -0.1798971735
N   N7        1.0  0.08800  0.53930  0.89394  1.0000 -0.1798971735
N   N8        1.0  0.91200  0.96070  0.39394  1.0000 -0.1798971735
N   N9        1.0  0.60320  0.11330  0.60493  1.0000 -0.1864338743
N   N10       1.0  0.39680  0.38670  0.10493  1.0000 -0.1864338743
N   N11       1.0  0.10320  0.88670  0.89507  1.0000 -0.1864338743
N   N12       1.0  0.89680  0.61330  0.39507  1.0000 -0.1798971735
N   N13       1.0  0.52090  0.32760  0.68060  1.0000 -0.4194000484
N   N14       1.0  0.47910  0.17240  0.18060  1.0000 -0.4194000484
N   N15       1.0  0.02090  0.67240  0.81940  1.0000 -0.4194000484
N   N16       1.0  0.97910  0.82760  0.31940  1.0000 -0.4194000484
N   N17       1.0  0.56420  0.28750  0.63554  1.0000 -0.4146231073
N   N18       1.0  0.43580  0.21250  0.13554  1.0000 -0.4194000484
N   N19       1.0  0.06420  0.71250  0.86446  1.0000 -0.4194000484
N   N20       1.0  0.93580  0.78750  0.36446  1.0000 -0.4194000484
N   N21       1.0  0.52350  0.24240  0.67877  1.0000 -0.4194000484
N   N22       1.0  0.47650  0.25760  0.17877  1.0000 -0.4194000484
N   N23       1.0  0.02350  0.75760  0.82123  1.0000 -0.4194000484
N   N24       1.0  0.97650  0.74240  0.32123  1.0000 -0.4194000484
N   N25       1.0  0.58500  0.05330  0.54449  1.0000 -0.1798971735
N   N26       1.0  0.41500  0.44670  0.04449  1.0000 -0.1798971735
N   N27       1.0  0.08500  0.94670  0.95551  1.0000 -0.1798971735
N   N28       1.0  0.91500  0.55330  0.45551  1.0000 -0.1798971735
N   N29       1.0  0.59710  0.20560  0.35138  1.0000 -0.1798971735
N   N30       1.0  0.40290  0.29440  0.85138  1.0000 -0.1798971735
N   N31       1.0  0.09710  0.79440  0.14862  1.0000 -0.1798971735
N   N32       1.0  0.90290  0.70560  0.64862  1.0000 -0.1798971735
N   N33       1.0  0.01310  0.05500  0.42290  1.0000 -0.1728814947
N   N34       1.0  0.98690  0.44500  0.92290  1.0000 -0.1728814947
N   N35       1.0  0.51310  0.94500  0.07710  1.0000 -0.1728814947
N   N36       1.0  0.48690  0.55500  0.57710  1.0000 -0.1728814947
N   N37       1.0  0.49080  0.11820  0.44384  1.0000 -0.3947816278
N   N38       1.0  0.50920  0.38180  0.94384  1.0000 -0.3947816278
N   N39       1.0  0.99080  0.88180  0.05616  1.0000 -0.3955615419
N   N40       1.0  0.00920  0.61820  0.55616  1.0000 -0.3947816278
N   N41       1.0  0.34640  0.12440  0.41559  1.0000 -0.3705518353
N   N42       1.0  0.65360  0.37560  0.91559  1.0000 -0.3705518353
N   N43       1.0  0.84640  0.87560  0.08441  1.0000 -0.3705518353
N   N44       1.0  0.15360  0.62440  0.58441  1.0000 -0.3705518353
N   N45       1.0  0.34670  0.08160  0.46198  1.0000 -0.3808185974
N   N46       1.0  0.65330  0.41840  0.96198  1.0000 -0.3808185974
N   N47       1.0  0.84670  0.91840  0.03802  1.0000 -0.3808185974
N   N48       1.0  0.15330  0.58160  0.53802  1.0000 -0.3808185974
N   N49       1.0  0.59950  0.73070  0.21880  1.0000 -0.1798971735
N   N50       1.0  0.40050  0.76930  0.71880  1.0000 -0.1728814947
N   N51       1.0  0.09950  0.26930  0.28120  1.0000 -0.1798971735
N   N52       1.0  0.90050  0.23070  0.78120  1.0000 -0.1798971735
N   N53       1.0  0.41200  0.53930  0.39394  1.0000 -0.1798971735
N   N54       1.0  0.58800  0.96070  0.89394  1.0000 -0.1798971735
N   N55       1.0  0.91200  0.46070  0.10606  1.0000 -0.1798971735
N   N56       1.0  0.08800  0.03930  0.60606  1.0000 -0.1798971735
N   N57       1.0  0.39680  0.88670  0.39507  1.0000 -0.1864338743
N   N58       1.0  0.60320  0.61330  0.89507  1.0000 -0.1798971735
N   N59       1.0  0.89680  0.11330  0.10493  1.0000 -0.1798971735
N   N60       1.0  0.10320  0.38670  0.60493  1.0000 -0.1864338743
N   N61       1.0  0.47910  0.67240  0.31940  1.0000 -0.4194000484
N   N62       1.0  0.52090  0.82760  0.81940  1.0000 -0.4194000484
N   N63       1.0  0.97910  0.32760  0.18060  1.0000 -0.4194000484
N   N64       1.0  0.02090  0.17240  0.68060  1.0000 -0.4194000484
N   N65       1.0  0.43580  0.71250  0.36446  1.0000 -0.4194000484
N   N66       1.0  0.56420  0.78750  0.86446  1.0000 -0.4194000484
N   N67       1.0  0.93580  0.28750  0.13554  1.0000 -0.4194000484
N   N68       1.0  0.06420  0.21250  0.63554  1.0000 -0.4146231073
N   N69       1.0  0.47650  0.75760  0.32123  1.0000 -0.4194000484
N   N70       1.0  0.52350  0.74240  0.82123  1.0000 -0.4194000484
N   N71       1.0  0.97650  0.24240  0.17877  1.0000 -0.4194000484
N   N72       1.0  0.02350  0.25760  0.67877  1.0000 -0.4194000484
N   N73       1.0  0.41500  0.94670  0.45551  1.0000 -0.1798971735
N   N74       1.0  0.58500  0.55330  0.95551  1.0000 -0.1798971735
N   N75       1.0  0.91500  0.05330  0.04449  1.0000 -0.1798971735
N   N76       1.0  0.08500  0.44670  0.54449  1.0000 -0.1798971735
N   N77       1.0  0.40290  0.79440  0.64862  1.0000 -0.1798971735
N   N78       1.0  0.59710  0.70560  0.14862  1.0000 -0.1798971735
N   N79       1.0  0.90290  0.20560  0.85138  1.0000 -0.1798971735
N   N80       1.0  0.09710  0.29440  0.35138  1.0000 -0.1798971735
N   N81       1.0  0.98690  0.94500  0.57710  1.0000 -0.1728814947
N   N82       1.0  0.01310  0.55500  0.07710  1.0000 -0.1728814947
N   N83       1.0  0.48690  0.05500  0.92290  1.0000 -0.1728814947
N   N84       1.0  0.51310  0.44500  0.42290  1.0000 -0.1728814947
N   N85       1.0  0.50920  0.88180  0.55616  1.0000 -0.3947816278
N   N86       1.0  0.49080  0.61820  0.05616  1.0000 -0.3947816278
N   N87       1.0  0.00920  0.11820  0.94384  1.0000 -0.3947816278
N   N88       1.0  0.99080  0.38180  0.44384  1.0000 -0.3947816278
N   N89       1.0  0.65360  0.87560  0.58441  1.0000 -0.3705518353
N   N90       1.0  0.34640  0.62440  0.08441  1.0000 -0.3705518353
N   N91       1.0  0.15360  0.12440  0.91559  1.0000 -0.3705518353
N   N92       1.0  0.84640  0.37560  0.41559  1.0000 -0.3705518353
N   N93       1.0  0.65330  0.91840  0.53802  1.0000 -0.3808185974
N   N94       1.0  0.34670  0.58160  0.03802  1.0000 -0.3808185974
N   N95       1.0  0.15330  0.08160  0.96198  1.0000 -0.3808185974
N   N96       1.0  0.84670  0.41840  0.46198  1.0000 -0.3808185974
