# DDEC6 charges by PACMAN v1.1 (https://github.com/mtap-research/PACMAN-charge/)
data_2014[Zn][utp]3[ASR]2
_chemical_formula_sum              "Zn8 H168 C216 N56 Cl8"
_cell_length_a       9.255
_cell_length_b       27.784
_cell_length_c       28.47
_cell_angle_alpha    90
_cell_angle_beta     90
_cell_angle_gamma    90

_symmetry_space_group_name_H-M    "P 1"
_symmetry_Int_Tables_number       1

loop_
  _symmetry_equiv_pos_as_xyz
  'x, y, z'

loop_
  _atom_site_type_symbol
  _atom_site_label
  _atom_site_symmetry_multiplicity
  _atom_site_fract_x
  _atom_site_fract_y
  _atom_site_fract_z
  _atom_site_occupancy
  _atom_site_charge
Zn  Zn1       1.0  0.08132  0.50794  0.13503  1.0000 0.6258857312
Zn  Zn2       1.0  0.41868  0.00794  0.36497  1.0000 0.6258857312
Zn  Zn3       1.0  0.91868  0.50794  0.63503  1.0000 0.6258857312
Zn  Zn4       1.0  0.58132  0.00794  0.86497  1.0000 0.6258857312
Zn  Zn5       1.0  0.08132  0.49206  0.36497  1.0000 0.6258857312
Zn  Zn6       1.0  0.41868  0.99206  0.13503  1.0000 0.6258857312
Zn  Zn7       1.0  0.91868  0.49206  0.86497  1.0000 0.6258857312
Zn  Zn8       1.0  0.58132  0.99206  0.63503  1.0000 0.6258857312
H   H1        1.0  0.22790  0.47190  0.04130  1.0000 0.103475962
H   H2        1.0  0.27210  0.97190  0.45870  1.0000 0.103475962
H   H3        1.0  0.77210  0.47190  0.54130  1.0000 0.103475962
H   H4        1.0  0.72790  0.97190  0.95870  1.0000 0.103475962
H   H5        1.0  0.84400  0.44000  0.08710  1.0000 0.1193141436
H   H6        1.0  0.65600  0.94000  0.41290  1.0000 0.1193141436
H   H7        1.0  0.15600  0.44000  0.58710  1.0000 0.1193141436
H   H8        1.0  0.34400  0.94000  0.91290  1.0000 0.1193141436
H   H9        1.0  0.88990  0.39100  0.01840  1.0000 0.1193141436
H   H10       1.0  0.61010  0.89100  0.48160  1.0000 0.1193141436
H   H11       1.0  0.11010  0.39100  0.51840  1.0000 0.1193141436
H   H12       1.0  0.38990  0.89100  0.98160  1.0000 0.1124282207
H   H13       1.0  0.24820  0.46550  0.95190  1.0000 0.1193141436
H   H14       1.0  0.25180  0.96550  0.54810  1.0000 0.1193141436
H   H15       1.0  0.75180  0.46550  0.45190  1.0000 0.1193141436
H   H16       1.0  0.74820  0.96550  0.04810  1.0000 0.1193141436
H   H17       1.0  0.38150  0.43120  0.89320  1.0000 0.1193141436
H   H18       1.0  0.11850  0.93120  0.60680  1.0000 0.1193141436
H   H19       1.0  0.61850  0.43120  0.39320  1.0000 0.1193141436
H   H20       1.0  0.88150  0.93120  0.10680  1.0000 0.1193141436
H   H21       1.0  0.22920  0.30200  0.92880  1.0000 0.1124282207
H   H22       1.0  0.27080  0.80200  0.57120  1.0000 0.1124282207
H   H23       1.0  0.77080  0.30200  0.42880  1.0000 0.1124282207
H   H24       1.0  0.72920  0.80200  0.07120  1.0000 0.1124282207
H   H25       1.0  0.10210  0.33630  0.98940  1.0000 0.1124282207
H   H26       1.0  0.39790  0.83630  0.51060  1.0000 0.1124282207
H   H27       1.0  0.89790  0.33630  0.48940  1.0000 0.1124282207
H   H28       1.0  0.60210  0.83630  0.01060  1.0000 0.1124282207
H   H29       1.0  0.80460  0.45240  0.72290  1.0000 0.1124282207
H   H30       1.0  0.69540  0.95240  0.77710  1.0000 0.1124282207
H   H31       1.0  0.19540  0.45240  0.22290  1.0000 0.1124282207
H   H32       1.0  0.30460  0.95240  0.27710  1.0000 0.1124282207
H   H33       1.0  0.57220  0.49840  0.61780  1.0000 0.1124282207
H   H34       1.0  0.92780  0.99840  0.88220  1.0000 0.1124282207
H   H35       1.0  0.42780  0.49840  0.11780  1.0000 0.1124282207
H   H36       1.0  0.07220  0.99840  0.38220  1.0000 0.1124282207
H   H37       1.0  0.41100  0.45830  0.67220  1.0000 0.1293485077
H   H38       1.0  0.08900  0.95830  0.82780  1.0000 0.1293485077
H   H39       1.0  0.58900  0.45830  0.17220  1.0000 0.1293485077
H   H40       1.0  0.91100  0.95830  0.32780  1.0000 0.1293485077
H   H41       1.0  0.73180  0.38580  0.76490  1.0000 0.1124282207
H   H42       1.0  0.76820  0.88580  0.73510  1.0000 0.1124282207
H   H43       1.0  0.26820  0.38580  0.26490  1.0000 0.1124282207
H   H44       1.0  0.23180  0.88580  0.23510  1.0000 0.1124282207
H   H45       1.0  0.65330  0.34380  0.82950  1.0000 0.1124282207
H   H46       1.0  0.84670  0.84380  0.67050  1.0000 0.1124282207
H   H47       1.0  0.34670  0.34380  0.32950  1.0000 0.1124282207
H   H48       1.0  0.15330  0.84380  0.17050  1.0000 0.1124282207
H   H49       1.0  0.26160  0.39890  0.81490  1.0000 0.1193141436
H   H50       1.0  0.23840  0.89890  0.68510  1.0000 0.1193141436
H   H51       1.0  0.73840  0.39890  0.31490  1.0000 0.1193141436
H   H52       1.0  0.76160  0.89890  0.18510  1.0000 0.1193141436
H   H53       1.0  0.33920  0.44320  0.75150  1.0000 0.1293485077
H   H54       1.0  0.16080  0.94320  0.74850  1.0000 0.1293485077
H   H55       1.0  0.66080  0.44320  0.25150  1.0000 0.1293485077
H   H56       1.0  0.83920  0.94320  0.24850  1.0000 0.1293485077
H   H57       1.0  0.49750  0.11500  0.84480  1.0000 0.103475962
H   H58       1.0  0.00250  0.61500  0.65520  1.0000 0.103475962
H   H59       1.0  0.50250  0.11500  0.34480  1.0000 0.103475962
H   H60       1.0  0.99750  0.61500  0.15520  1.0000 0.103475962
H   H61       1.0  0.77700  0.06950  0.93730  1.0000 0.1124282207
H   H62       1.0  0.72300  0.56950  0.56270  1.0000 0.1124282207
H   H63       1.0  0.22300  0.06950  0.43730  1.0000 0.1124282207
H   H64       1.0  0.27700  0.56950  0.06270  1.0000 0.1124282207
H   H65       1.0  0.76050  0.15630  0.94570  1.0000 0.1193141436
H   H66       1.0  0.73950  0.65630  0.55430  1.0000 0.1193141436
H   H67       1.0  0.23950  0.15630  0.44570  1.0000 0.1193141436
H   H68       1.0  0.26050  0.65630  0.05430  1.0000 0.1193141436
H   H69       1.0  0.60360  0.22310  0.95150  1.0000 0.1193141436
H   H70       1.0  0.89640  0.72310  0.54850  1.0000 0.1193141436
H   H71       1.0  0.39640  0.22310  0.45150  1.0000 0.1193141436
H   H72       1.0  0.10360  0.72310  0.04850  1.0000 0.1193141436
H   H73       1.0  0.51540  0.30000  0.94240  1.0000 0.1124282207
H   H74       1.0  0.98460  0.80000  0.55760  1.0000 0.1124282207
H   H75       1.0  0.48460  0.30000  0.44240  1.0000 0.1124282207
H   H76       1.0  0.01540  0.80000  0.05760  1.0000 0.1124282207
H   H77       1.0  0.41760  0.27130  0.80870  1.0000 0.1293485077
H   H78       1.0  0.08240  0.77130  0.69130  1.0000 0.1293485077
H   H79       1.0  0.58240  0.27130  0.30870  1.0000 0.1293485077
H   H80       1.0  0.91760  0.77130  0.19130  1.0000 0.1293485077
H   H81       1.0  0.50960  0.19500  0.81710  1.0000 0.1293485077
H   H82       1.0  0.99040  0.69500  0.68290  1.0000 0.1193141436
H   H83       1.0  0.49040  0.19500  0.31710  1.0000 0.1193141436
H   H84       1.0  0.00960  0.69500  0.18290  1.0000 0.1193141436
H   H85       1.0  0.22790  0.52810  0.45870  1.0000 0.103475962
H   H86       1.0  0.27210  0.02810  0.04130  1.0000 0.103475962
H   H87       1.0  0.77210  0.52810  0.95870  1.0000 0.103475962
H   H88       1.0  0.72790  0.02810  0.54130  1.0000 0.103475962
H   H89       1.0  0.84400  0.56000  0.41290  1.0000 0.1193141436
H   H90       1.0  0.65600  0.06000  0.08710  1.0000 0.1193141436
H   H91       1.0  0.15600  0.56000  0.91290  1.0000 0.1193141436
H   H92       1.0  0.34400  0.06000  0.58710  1.0000 0.1193141436
H   H93       1.0  0.88990  0.60900  0.48160  1.0000 0.1193141436
H   H94       1.0  0.61010  0.10900  0.01840  1.0000 0.1193141436
H   H95       1.0  0.11010  0.60900  0.98160  1.0000 0.1193141436
H   H96       1.0  0.38990  0.10900  0.51840  1.0000 0.1124282207
H   H97       1.0  0.24820  0.53450  0.54810  1.0000 0.1193141436
H   H98       1.0  0.25180  0.03450  0.95190  1.0000 0.1193141436
H   H99       1.0  0.75180  0.53450  0.04810  1.0000 0.1193141436
H   H100      1.0  0.74820  0.03450  0.45190  1.0000 0.1193141436
H   H101      1.0  0.38150  0.56880  0.60680  1.0000 0.1193141436
H   H102      1.0  0.11850  0.06880  0.89320  1.0000 0.1193141436
H   H103      1.0  0.61850  0.56880  0.10680  1.0000 0.1193141436
H   H104      1.0  0.88150  0.06880  0.39320  1.0000 0.1193141436
H   H105      1.0  0.22920  0.69800  0.57120  1.0000 0.1124282207
H   H106      1.0  0.27080  0.19800  0.92880  1.0000 0.1124282207
H   H107      1.0  0.77080  0.69800  0.07120  1.0000 0.1124282207
H   H108      1.0  0.72920  0.19800  0.42880  1.0000 0.1124282207
H   H109      1.0  0.10210  0.66370  0.51060  1.0000 0.1124282207
H   H110      1.0  0.39790  0.16370  0.98940  1.0000 0.1124282207
H   H111      1.0  0.89790  0.66370  0.01060  1.0000 0.1124282207
H   H112      1.0  0.60210  0.16370  0.48940  1.0000 0.1124282207
H   H113      1.0  0.80460  0.54760  0.77710  1.0000 0.1124282207
H   H114      1.0  0.69540  0.04760  0.72290  1.0000 0.1124282207
H   H115      1.0  0.19540  0.54760  0.27710  1.0000 0.1124282207
H   H116      1.0  0.30460  0.04760  0.22290  1.0000 0.1124282207
H   H117      1.0  0.57220  0.50160  0.88220  1.0000 0.1124282207
H   H118      1.0  0.92780  0.00160  0.61780  1.0000 0.1124282207
H   H119      1.0  0.42780  0.50160  0.38220  1.0000 0.1124282207
H   H120      1.0  0.07220  0.00160  0.11780  1.0000 0.1124282207
H   H121      1.0  0.41100  0.54170  0.82780  1.0000 0.1293485077
H   H122      1.0  0.08900  0.04170  0.67220  1.0000 0.1293485077
H   H123      1.0  0.58900  0.54170  0.32780  1.0000 0.1293485077
H   H124      1.0  0.91100  0.04170  0.17220  1.0000 0.1293485077
H   H125      1.0  0.73180  0.61420  0.73510  1.0000 0.1124282207
H   H126      1.0  0.76820  0.11420  0.76490  1.0000 0.1124282207
H   H127      1.0  0.26820  0.61420  0.23510  1.0000 0.1124282207
H   H128      1.0  0.23180  0.11420  0.26490  1.0000 0.1124282207
H   H129      1.0  0.65330  0.65620  0.67050  1.0000 0.1124282207
H   H130      1.0  0.84670  0.15620  0.82950  1.0000 0.1124282207
H   H131      1.0  0.34670  0.65620  0.17050  1.0000 0.1124282207
H   H132      1.0  0.15330  0.15620  0.32950  1.0000 0.1124282207
H   H133      1.0  0.26160  0.60110  0.68510  1.0000 0.1193141436
H   H134      1.0  0.23840  0.10110  0.81490  1.0000 0.1193141436
H   H135      1.0  0.73840  0.60110  0.18510  1.0000 0.1193141436
H   H136      1.0  0.76160  0.10110  0.31490  1.0000 0.1193141436
H   H137      1.0  0.33920  0.55680  0.74850  1.0000 0.1293485077
H   H138      1.0  0.16080  0.05680  0.75150  1.0000 0.1293485077
H   H139      1.0  0.66080  0.55680  0.24850  1.0000 0.1293485077
H   H140      1.0  0.83920  0.05680  0.25150  1.0000 0.1293485077
H   H141      1.0  0.49750  0.88500  0.65520  1.0000 0.103475962
H   H142      1.0  0.00250  0.38500  0.84480  1.0000 0.103475962
H   H143      1.0  0.50250  0.88500  0.15520  1.0000 0.103475962
H   H144      1.0  0.99750  0.38500  0.34480  1.0000 0.103475962
H   H145      1.0  0.77700  0.93050  0.56270  1.0000 0.1124282207
H   H146      1.0  0.72300  0.43050  0.93730  1.0000 0.1124282207
H   H147      1.0  0.22300  0.93050  0.06270  1.0000 0.1124282207
H   H148      1.0  0.27700  0.43050  0.43730  1.0000 0.1124282207
H   H149      1.0  0.76050  0.84370  0.55430  1.0000 0.1193141436
H   H150      1.0  0.73950  0.34370  0.94570  1.0000 0.1193141436
H   H151      1.0  0.23950  0.84370  0.05430  1.0000 0.1193141436
H   H152      1.0  0.26050  0.34370  0.44570  1.0000 0.1193141436
H   H153      1.0  0.60360  0.77690  0.54850  1.0000 0.1193141436
H   H154      1.0  0.89640  0.27690  0.95150  1.0000 0.1193141436
H   H155      1.0  0.39640  0.77690  0.04850  1.0000 0.1193141436
H   H156      1.0  0.10360  0.27690  0.45150  1.0000 0.1193141436
H   H157      1.0  0.51540  0.70000  0.55760  1.0000 0.1124282207
H   H158      1.0  0.98460  0.20000  0.94240  1.0000 0.1124282207
H   H159      1.0  0.48460  0.70000  0.05760  1.0000 0.1124282207
H   H160      1.0  0.01540  0.20000  0.44240  1.0000 0.1124282207
H   H161      1.0  0.41760  0.72870  0.69130  1.0000 0.1293485077
H   H162      1.0  0.08240  0.22870  0.80870  1.0000 0.1293485077
H   H163      1.0  0.58240  0.72870  0.19130  1.0000 0.1293485077
H   H164      1.0  0.91760  0.22870  0.30870  1.0000 0.1293485077
H   H165      1.0  0.50960  0.80500  0.68290  1.0000 0.1293485077
H   H166      1.0  0.99040  0.30500  0.81710  1.0000 0.1193141436
H   H167      1.0  0.49040  0.80500  0.18290  1.0000 0.1193141436
H   H168      1.0  0.00960  0.30500  0.31710  1.0000 0.1193141436
C   C1        1.0  0.13720  0.45785  0.04437  1.0000 0.081576821
C   C2        1.0  0.36280  0.95785  0.45563  1.0000 0.081576821
C   C3        1.0  0.86280  0.45785  0.54437  1.0000 0.081576821
C   C4        1.0  0.63720  0.95785  0.95563  1.0000 0.081576821
C   C5        1.0  0.92830  0.44030  0.06933  1.0000 -0.0581073145
C   C6        1.0  0.57170  0.94030  0.43067  1.0000 -0.0581073145
C   C7        1.0  0.07170  0.44030  0.56933  1.0000 -0.0581073145
C   C8        1.0  0.42830  0.94030  0.93067  1.0000 -0.0581073145
C   C9        1.0  0.95220  0.41350  0.03152  1.0000 -0.1120256962
C   C10       1.0  0.54780  0.91350  0.46848  1.0000 -0.1120256962
C   C11       1.0  0.04780  0.41350  0.53152  1.0000 -0.1120256962
C   C12       1.0  0.45220  0.91350  0.96848  1.0000 -0.1120256962
C   C13       1.0  0.16380  0.40428  0.97664  1.0000 0.1193141436
C   C14       1.0  0.33620  0.90428  0.52336  1.0000 0.1193141436
C   C15       1.0  0.83620  0.40428  0.47664  1.0000 0.1193141436
C   C16       1.0  0.66380  0.90428  0.02336  1.0000 0.1193141436
C   C17       1.0  0.24600  0.43228  0.94762  1.0000 -0.1802376649
C   C18       1.0  0.25400  0.93228  0.55238  1.0000 -0.1802376649
C   C19       1.0  0.75400  0.43228  0.44762  1.0000 -0.1802376649
C   C20       1.0  0.74600  0.93228  0.05238  1.0000 -0.1802376649
C   C21       1.0  0.32490  0.41174  0.91243  1.0000 -0.1802376649
C   C22       1.0  0.17510  0.91174  0.58757  1.0000 -0.1862722011
C   C23       1.0  0.67510  0.41174  0.41243  1.0000 -0.1802376649
C   C24       1.0  0.82490  0.91174  0.08757  1.0000 -0.1802376649
C   C25       1.0  0.32220  0.36272  0.90482  1.0000 0.1697472042
C   C26       1.0  0.17780  0.86272  0.59518  1.0000 0.1697472042
C   C27       1.0  0.67780  0.36272  0.40482  1.0000 0.1697472042
C   C28       1.0  0.82220  0.86272  0.09518  1.0000 0.1697472042
C   C29       1.0  0.23530  0.33498  0.93384  1.0000 -0.1862722011
C   C30       1.0  0.26470  0.83498  0.56616  1.0000 -0.1862722011
C   C31       1.0  0.76470  0.33498  0.43384  1.0000 -0.1862722011
C   C32       1.0  0.73530  0.83498  0.06616  1.0000 -0.1862722011
C   C33       1.0  0.15810  0.35548  0.96978  1.0000 -0.1632193694
C   C34       1.0  0.34190  0.85548  0.53022  1.0000 -0.1632193694
C   C35       1.0  0.84190  0.35548  0.46978  1.0000 -0.1632193694
C   C36       1.0  0.65810  0.85548  0.03022  1.0000 -0.1632193694
C   C37       1.0  0.72650  0.45910  0.70338  1.0000 0.081576821
C   C38       1.0  0.77350  0.95910  0.79662  1.0000 0.081576821
C   C39       1.0  0.27350  0.45910  0.20338  1.0000 0.081576821
C   C40       1.0  0.22650  0.95910  0.29662  1.0000 0.081576821
C   C41       1.0  0.59910  0.48420  0.64610  1.0000 -0.0653065316
C   C42       1.0  0.90090  0.98420  0.85390  1.0000 -0.0653065316
C   C43       1.0  0.40090  0.48420  0.14610  1.0000 -0.0653065316
C   C44       1.0  0.09910  0.98420  0.35390  1.0000 -0.0653065316
C   C45       1.0  0.51030  0.46210  0.67572  1.0000 -0.0976233076
C   C46       1.0  0.98970  0.96210  0.82428  1.0000 -0.0976233076
C   C47       1.0  0.48970  0.46210  0.17572  1.0000 -0.0976233076
C   C48       1.0  0.01030  0.96210  0.32428  1.0000 -0.0976233076
C   C49       1.0  0.54140  0.41891  0.75170  1.0000 0.1365589319
C   C50       1.0  0.95860  0.91891  0.74830  1.0000 0.1365589319
C   C51       1.0  0.45860  0.41891  0.25170  1.0000 0.1365589319
C   C52       1.0  0.04140  0.91891  0.24830  1.0000 0.1365589319
C   C53       1.0  0.63680  0.38886  0.77514  1.0000 -0.1705415019
C   C54       1.0  0.86320  0.88886  0.72486  1.0000 -0.1705415019
C   C55       1.0  0.36320  0.38886  0.27514  1.0000 -0.1705415019
C   C56       1.0  0.13680  0.88886  0.22486  1.0000 -0.1705415019
C   C57       1.0  0.58930  0.36377  0.81358  1.0000 -0.1802376649
C   C58       1.0  0.91070  0.86377  0.68642  1.0000 -0.1802376649
C   C59       1.0  0.41070  0.36377  0.31358  1.0000 -0.1802376649
C   C60       1.0  0.08930  0.86377  0.18642  1.0000 -0.1802376649
C   C61       1.0  0.44850  0.36756  0.82907  1.0000 0.1553344639
C   C62       1.0  0.05150  0.86756  0.67093  1.0000 0.1553344639
C   C63       1.0  0.55150  0.36756  0.32907  1.0000 0.1553344639
C   C64       1.0  0.94850  0.86756  0.17093  1.0000 0.1553344639
C   C65       1.0  0.35730  0.39655  0.80524  1.0000 -0.1705415019
C   C66       1.0  0.14270  0.89655  0.69476  1.0000 -0.1705415019
C   C67       1.0  0.64270  0.39655  0.30524  1.0000 -0.1705415019
C   C68       1.0  0.85730  0.89655  0.19476  1.0000 -0.1705415019
C   C69       1.0  0.40320  0.42280  0.76693  1.0000 -0.1445919735
C   C70       1.0  0.09680  0.92280  0.73307  1.0000 -0.1445919735
C   C71       1.0  0.59680  0.42280  0.26693  1.0000 -0.1445919735
C   C72       1.0  0.90320  0.92280  0.23307  1.0000 -0.1445919735
C   C73       1.0  0.56530  0.11427  0.86896  1.0000 0.081576821
C   C74       1.0  0.93470  0.61427  0.63104  1.0000 0.081576821
C   C75       1.0  0.43470  0.11427  0.36896  1.0000 0.081576821
C   C76       1.0  0.06530  0.61427  0.13104  1.0000 0.081576821
C   C77       1.0  0.71800  0.08975  0.91970  1.0000 -0.0653065316
C   C78       1.0  0.78200  0.58975  0.58030  1.0000 -0.0653065316
C   C79       1.0  0.28200  0.08975  0.41970  1.0000 -0.0653065316
C   C80       1.0  0.21800  0.58975  0.08030  1.0000 -0.0653065316
C   C81       1.0  0.70990  0.13740  0.92431  1.0000 -0.118909526
C   C82       1.0  0.79010  0.63740  0.57569  1.0000 -0.118909526
C   C83       1.0  0.29010  0.13740  0.42431  1.0000 -0.118909526
C   C84       1.0  0.20990  0.63740  0.07569  1.0000 -0.118909526
C   C85       1.0  0.56450  0.20148  0.88517  1.0000 0.1293485077
C   C86       1.0  0.93550  0.70148  0.61483  1.0000 0.1293485077
C   C87       1.0  0.43550  0.20148  0.38517  1.0000 0.1293485077
C   C88       1.0  0.06450  0.70148  0.11483  1.0000 0.1293485077
C   C89       1.0  0.56650  0.23286  0.92267  1.0000 -0.1802376649
C   C90       1.0  0.93350  0.73286  0.57733  1.0000 -0.1802376649
C   C91       1.0  0.43350  0.23286  0.42267  1.0000 -0.1802376649
C   C92       1.0  0.06650  0.73286  0.07733  1.0000 -0.1802376649
C   C93       1.0  0.51340  0.27869  0.91724  1.0000 -0.1862722011
C   C94       1.0  0.98660  0.77869  0.58276  1.0000 -0.1862722011
C   C95       1.0  0.48660  0.27869  0.41724  1.0000 -0.1862722011
C   C96       1.0  0.01340  0.77869  0.08276  1.0000 -0.1862722011
C   C97       1.0  0.45750  0.29321  0.87479  1.0000 0.153308882
C   C98       1.0  0.04250  0.79321  0.62521  1.0000 0.153308882
C   C99       1.0  0.54250  0.29321  0.37479  1.0000 0.153308882
C   C100      1.0  0.95750  0.79321  0.12521  1.0000 0.153308882
C   C101      1.0  0.45570  0.26163  0.83739  1.0000 -0.1802376649
C   C102      1.0  0.04430  0.76163  0.66261  1.0000 -0.1802376649
C   C103      1.0  0.54430  0.26163  0.33739  1.0000 -0.1802376649
C   C104      1.0  0.95570  0.76163  0.16261  1.0000 -0.1802376649
C   C105      1.0  0.50980  0.21608  0.84244  1.0000 -0.1802376649
C   C106      1.0  0.99020  0.71608  0.65756  1.0000 -0.1802376649
C   C107      1.0  0.49020  0.21608  0.34244  1.0000 -0.1802376649
C   C108      1.0  0.00980  0.71608  0.15756  1.0000 -0.1862722011
C   C109      1.0  0.13720  0.54215  0.45563  1.0000 0.081576821
C   C110      1.0  0.36280  0.04215  0.04437  1.0000 0.081576821
C   C111      1.0  0.86280  0.54215  0.95563  1.0000 0.081576821
C   C112      1.0  0.63720  0.04215  0.54437  1.0000 0.081576821
C   C113      1.0  0.92830  0.55970  0.43067  1.0000 -0.0581073145
C   C114      1.0  0.57170  0.05970  0.06933  1.0000 -0.0581073145
C   C115      1.0  0.07170  0.55970  0.93067  1.0000 -0.0581073145
C   C116      1.0  0.42830  0.05970  0.56933  1.0000 -0.0581073145
C   C117      1.0  0.95220  0.58650  0.46848  1.0000 -0.1120256962
C   C118      1.0  0.54780  0.08650  0.03152  1.0000 -0.1120256962
C   C119      1.0  0.04780  0.58650  0.96848  1.0000 -0.1120256962
C   C120      1.0  0.45220  0.08650  0.53152  1.0000 -0.1120256962
C   C121      1.0  0.16380  0.59572  0.52336  1.0000 0.1193141436
C   C122      1.0  0.33620  0.09572  0.97664  1.0000 0.1193141436
C   C123      1.0  0.83620  0.59572  0.02336  1.0000 0.1193141436
C   C124      1.0  0.66380  0.09572  0.47664  1.0000 0.1193141436
C   C125      1.0  0.24600  0.56772  0.55238  1.0000 -0.1802376649
C   C126      1.0  0.25400  0.06772  0.94762  1.0000 -0.1802376649
C   C127      1.0  0.75400  0.56772  0.05238  1.0000 -0.1802376649
C   C128      1.0  0.74600  0.06772  0.44762  1.0000 -0.1802376649
C   C129      1.0  0.32490  0.58826  0.58757  1.0000 -0.1862722011
C   C130      1.0  0.17510  0.08826  0.91243  1.0000 -0.1862722011
C   C131      1.0  0.67510  0.58826  0.08757  1.0000 -0.1802376649
C   C132      1.0  0.82490  0.08826  0.41243  1.0000 -0.1802376649
C   C133      1.0  0.32220  0.63728  0.59518  1.0000 0.1697472042
C   C134      1.0  0.17780  0.13728  0.90482  1.0000 0.1697472042
C   C135      1.0  0.67780  0.63728  0.09518  1.0000 0.1697472042
C   C136      1.0  0.82220  0.13728  0.40482  1.0000 0.1697472042
C   C137      1.0  0.23530  0.66502  0.56616  1.0000 -0.1862722011
C   C138      1.0  0.26470  0.16502  0.93384  1.0000 -0.1862722011
C   C139      1.0  0.76470  0.66502  0.06616  1.0000 -0.1862722011
C   C140      1.0  0.73530  0.16502  0.43384  1.0000 -0.1862722011
C   C141      1.0  0.15810  0.64452  0.53022  1.0000 -0.1632193694
C   C142      1.0  0.34190  0.14452  0.96978  1.0000 -0.1632193694
C   C143      1.0  0.84190  0.64452  0.03022  1.0000 -0.1632193694
C   C144      1.0  0.65810  0.14452  0.46978  1.0000 -0.1632193694
C   C145      1.0  0.72650  0.54090  0.79662  1.0000 0.081576821
C   C146      1.0  0.77350  0.04090  0.70338  1.0000 0.081576821
C   C147      1.0  0.27350  0.54090  0.29662  1.0000 0.081576821
C   C148      1.0  0.22650  0.04090  0.20338  1.0000 0.081576821
C   C149      1.0  0.59910  0.51580  0.85390  1.0000 -0.0653065316
C   C150      1.0  0.90090  0.01580  0.64610  1.0000 -0.0653065316
C   C151      1.0  0.40090  0.51580  0.35390  1.0000 -0.0653065316
C   C152      1.0  0.09910  0.01580  0.14610  1.0000 -0.0653065316
C   C153      1.0  0.51030  0.53790  0.82428  1.0000 -0.0976233076
C   C154      1.0  0.98970  0.03790  0.67572  1.0000 -0.0976233076
C   C155      1.0  0.48970  0.53790  0.32428  1.0000 -0.0976233076
C   C156      1.0  0.01030  0.03790  0.17572  1.0000 -0.0976233076
C   C157      1.0  0.54140  0.58109  0.74830  1.0000 0.1365589319
C   C158      1.0  0.95860  0.08109  0.75170  1.0000 0.1365589319
C   C159      1.0  0.45860  0.58109  0.24830  1.0000 0.1365589319
C   C160      1.0  0.04140  0.08109  0.25170  1.0000 0.1365589319
C   C161      1.0  0.63680  0.61114  0.72486  1.0000 -0.1705415019
C   C162      1.0  0.86320  0.11114  0.77514  1.0000 -0.1705415019
C   C163      1.0  0.36320  0.61114  0.22486  1.0000 -0.1705415019
C   C164      1.0  0.13680  0.11114  0.27514  1.0000 -0.1705415019
C   C165      1.0  0.58930  0.63623  0.68642  1.0000 -0.1802376649
C   C166      1.0  0.91070  0.13623  0.81358  1.0000 -0.1802376649
C   C167      1.0  0.41070  0.63623  0.18642  1.0000 -0.1802376649
C   C168      1.0  0.08930  0.13623  0.31358  1.0000 -0.1802376649
C   C169      1.0  0.44850  0.63244  0.67093  1.0000 0.1553344639
C   C170      1.0  0.05150  0.13244  0.82907  1.0000 0.1553344639
C   C171      1.0  0.55150  0.63244  0.17093  1.0000 0.1553344639
C   C172      1.0  0.94850  0.13244  0.32907  1.0000 0.1553344639
C   C173      1.0  0.35730  0.60345  0.69476  1.0000 -0.1705415019
C   C174      1.0  0.14270  0.10345  0.80524  1.0000 -0.1705415019
C   C175      1.0  0.64270  0.60345  0.19476  1.0000 -0.1705415019
C   C176      1.0  0.85730  0.10345  0.30524  1.0000 -0.1705415019
C   C177      1.0  0.40320  0.57720  0.73307  1.0000 -0.1445919735
C   C178      1.0  0.09680  0.07720  0.76693  1.0000 -0.1445919735
C   C179      1.0  0.59680  0.57720  0.23307  1.0000 -0.1445919735
C   C180      1.0  0.90320  0.07720  0.26693  1.0000 -0.1445919735
C   C181      1.0  0.56530  0.88573  0.63104  1.0000 0.081576821
C   C182      1.0  0.93470  0.38573  0.86896  1.0000 0.081576821
C   C183      1.0  0.43470  0.88573  0.13104  1.0000 0.081576821
C   C184      1.0  0.06530  0.38573  0.36896  1.0000 0.0747293668
C   C185      1.0  0.71800  0.91025  0.58030  1.0000 -0.0653065316
C   C186      1.0  0.78200  0.41025  0.91970  1.0000 -0.0653065316
C   C187      1.0  0.28200  0.91025  0.08030  1.0000 -0.0653065316
C   C188      1.0  0.21800  0.41025  0.41970  1.0000 -0.0653065316
C   C189      1.0  0.70990  0.86260  0.57569  1.0000 -0.118909526
C   C190      1.0  0.79010  0.36260  0.92431  1.0000 -0.118909526
C   C191      1.0  0.29010  0.86260  0.07569  1.0000 -0.118909526
C   C192      1.0  0.20990  0.36260  0.42431  1.0000 -0.118909526
C   C193      1.0  0.56450  0.79852  0.61483  1.0000 0.1293485077
C   C194      1.0  0.93550  0.29852  0.88517  1.0000 0.1293485077
C   C195      1.0  0.43550  0.79852  0.11483  1.0000 0.1293485077
C   C196      1.0  0.06450  0.29852  0.38517  1.0000 0.1293485077
C   C197      1.0  0.56650  0.76714  0.57733  1.0000 -0.1802376649
C   C198      1.0  0.93350  0.26714  0.92267  1.0000 -0.1802376649
C   C199      1.0  0.43350  0.76714  0.07733  1.0000 -0.1802376649
C   C200      1.0  0.06650  0.26714  0.42267  1.0000 -0.1802376649
C   C201      1.0  0.51340  0.72131  0.58276  1.0000 -0.1862722011
C   C202      1.0  0.98660  0.22131  0.91724  1.0000 -0.1862722011
C   C203      1.0  0.48660  0.72131  0.08276  1.0000 -0.1862722011
C   C204      1.0  0.01340  0.22131  0.41724  1.0000 -0.1862722011
C   C205      1.0  0.45750  0.70679  0.62521  1.0000 0.153308882
C   C206      1.0  0.04250  0.20679  0.87479  1.0000 0.1553344639
C   C207      1.0  0.54250  0.70679  0.12521  1.0000 0.153308882
C   C208      1.0  0.95750  0.20679  0.37479  1.0000 0.1553344639
C   C209      1.0  0.45570  0.73837  0.66261  1.0000 -0.1802376649
C   C210      1.0  0.04430  0.23837  0.83739  1.0000 -0.1802376649
C   C211      1.0  0.54430  0.73837  0.16261  1.0000 -0.1802376649
C   C212      1.0  0.95570  0.23837  0.33739  1.0000 -0.1802376649
C   C213      1.0  0.50980  0.78392  0.65756  1.0000 -0.1862722011
C   C214      1.0  0.99020  0.28392  0.84244  1.0000 -0.1802376649
C   C215      1.0  0.49020  0.78392  0.15756  1.0000 -0.1862722011
C   C216      1.0  0.00980  0.28392  0.34244  1.0000 -0.1802376649
N   N1        1.0  0.04580  0.46817  0.07810  1.0000 -0.2677574307
N   N2        1.0  0.45420  0.96817  0.42190  1.0000 -0.2677574307
N   N3        1.0  0.95420  0.46817  0.57810  1.0000 -0.2677574307
N   N4        1.0  0.54580  0.96817  0.92190  1.0000 -0.2677574307
N   N5        1.0  0.08570  0.42565  0.01580  1.0000 0.01119545
N   N6        1.0  0.41430  0.92565  0.48420  1.0000 0.01119545
N   N7        1.0  0.91430  0.42565  0.51580  1.0000 0.01119545
N   N8        1.0  0.58570  0.92565  0.98420  1.0000 0.01119545
N   N9        1.0  0.62530  0.07537  0.88483  1.0000 -0.2677574307
N   N10       1.0  0.87470  0.57537  0.61517  1.0000 -0.2677574307
N   N11       1.0  0.37470  0.07537  0.38483  1.0000 -0.2677574307
N   N12       1.0  0.12530  0.57537  0.11517  1.0000 -0.2677574307
N   N13       1.0  0.61280  0.15304  0.89154  1.0000 -0.0010146929
N   N14       1.0  0.88720  0.65304  0.60846  1.0000 -0.0010146929
N   N15       1.0  0.38720  0.15304  0.39154  1.0000 -0.0010146929
N   N16       1.0  0.11280  0.65304  0.10846  1.0000 -0.0010146929
N   N17       1.0  0.59180  0.44586  0.71217  1.0000 0.01119545
N   N18       1.0  0.90820  0.94586  0.78783  1.0000 0.01119545
N   N19       1.0  0.40820  0.44586  0.21217  1.0000 0.01119545
N   N20       1.0  0.09180  0.94586  0.28783  1.0000 0.01119545
N   N21       1.0  0.73610  0.48285  0.66381  1.0000 -0.2677574307
N   N22       1.0  0.76390  0.98285  0.83619  1.0000 -0.2677574307
N   N23       1.0  0.26390  0.48285  0.16381  1.0000 -0.2677574307
N   N24       1.0  0.23610  0.98285  0.33619  1.0000 -0.2677574307
N   N25       1.0  0.40290  0.34072  0.86906  1.0000 -0.1981728742
N   N26       1.0  0.09710  0.84072  0.63094  1.0000 -0.1981728742
N   N27       1.0  0.59710  0.34072  0.36906  1.0000 -0.1981728742
N   N28       1.0  0.90290  0.84072  0.13094  1.0000 -0.1981728742
N   N29       1.0  0.04580  0.53183  0.42190  1.0000 -0.2677574307
N   N30       1.0  0.45420  0.03183  0.07810  1.0000 -0.2677574307
N   N31       1.0  0.95420  0.53183  0.92190  1.0000 -0.2677574307
N   N32       1.0  0.54580  0.03183  0.57810  1.0000 -0.2677574307
N   N33       1.0  0.08570  0.57435  0.48420  1.0000 0.01119545
N   N34       1.0  0.41430  0.07435  0.01580  1.0000 0.01119545
N   N35       1.0  0.91430  0.57435  0.98420  1.0000 0.01119545
N   N36       1.0  0.58570  0.07435  0.51580  1.0000 0.01119545
N   N37       1.0  0.62530  0.92463  0.61517  1.0000 -0.2677574307
N   N38       1.0  0.87470  0.42463  0.88483  1.0000 -0.2677574307
N   N39       1.0  0.37470  0.92463  0.11517  1.0000 -0.2677574307
N   N40       1.0  0.12530  0.42463  0.38483  1.0000 -0.2677574307
N   N41       1.0  0.61280  0.84696  0.60846  1.0000 -0.0010146929
N   N42       1.0  0.88720  0.34696  0.89154  1.0000 -0.0010146929
N   N43       1.0  0.38720  0.84696  0.10846  1.0000 -0.0010146929
N   N44       1.0  0.11280  0.34696  0.39154  1.0000 -0.0010146929
N   N45       1.0  0.59180  0.55414  0.78783  1.0000 0.01119545
N   N46       1.0  0.90820  0.05414  0.71217  1.0000 0.01119545
N   N47       1.0  0.40820  0.55414  0.28783  1.0000 0.01119545
N   N48       1.0  0.09180  0.05414  0.21217  1.0000 0.01119545
N   N49       1.0  0.73610  0.51715  0.83619  1.0000 -0.2677574307
N   N50       1.0  0.76390  0.01715  0.66381  1.0000 -0.2677574307
N   N51       1.0  0.26390  0.51715  0.33619  1.0000 -0.2677574307
N   N52       1.0  0.23610  0.01715  0.16381  1.0000 -0.2677574307
N   N53       1.0  0.40290  0.65928  0.63094  1.0000 -0.1981728742
N   N54       1.0  0.09710  0.15928  0.86906  1.0000 -0.1981728742
N   N55       1.0  0.59710  0.65928  0.13094  1.0000 -0.1981728742
N   N56       1.0  0.90290  0.15928  0.36906  1.0000 -0.1981728742
Cl  Cl1       1.0  0.89290  0.50076  0.18323  1.0000 -0.5788637562
Cl  Cl2       1.0  0.60710  0.00076  0.31677  1.0000 -0.5788637562
Cl  Cl3       1.0  0.10710  0.50076  0.68323  1.0000 -0.5788637562
Cl  Cl4       1.0  0.39290  0.00076  0.81677  1.0000 -0.5788637562
Cl  Cl5       1.0  0.89290  0.49924  0.31677  1.0000 -0.5788637562
Cl  Cl6       1.0  0.60710  0.99924  0.18323  1.0000 -0.5788637562
Cl  Cl7       1.0  0.10710  0.49924  0.81677  1.0000 -0.5788637562
Cl  Cl8       1.0  0.39290  0.99924  0.68323  1.0000 -0.5788637562
