# DDEC6 charges by PACMAN v1.1 (https://github.com/mtap-research/PACMAN-charge/)
data_2014[Zn][pcu]3[ASR]20
_chemical_formula_sum              "Zn4 H40 C68 N4 O16"
_cell_length_a       10.239
_cell_length_b       12.191
_cell_length_c       13.91
_cell_angle_alpha    94.6
_cell_angle_beta     93.75
_cell_angle_gamma    99.87

_symmetry_space_group_name_H-M    "P 1"
_symmetry_Int_Tables_number       1

loop_
  _symmetry_equiv_pos_as_xyz
  'x, y, z'

loop_
  _atom_site_type_symbol
  _atom_site_label
  _atom_site_symmetry_multiplicity
  _atom_site_fract_x
  _atom_site_fract_y
  _atom_site_fract_z
  _atom_site_occupancy
  _atom_site_charge
Zn  Zn1       1.0  0.72203  0.01907  0.22823  1.0000 0.8279329282
Zn  Zn2       1.0  0.76110  0.19622  0.46048  1.0000 0.8279329282
Zn  Zn3       1.0  0.27797  0.98093  0.77177  1.0000 0.8279329282
Zn  Zn4       1.0  0.23890  0.80378  0.53952  1.0000 0.8279329282
H   H1        1.0  0.63830  0.57020  0.46400  1.0000 0.1385286455
H   H2        1.0  0.66100  0.74230  0.40210  1.0000 0.1210215551
H   H3        1.0  0.81930  0.68170  0.09920  1.0000 0.1210215551
H   H4        1.0  0.86340  0.52890  0.01140  1.0000 0.1095785532
H   H5        1.0  0.83780  0.35570  0.07210  1.0000 0.1095785532
H   H6        1.0  0.77040  0.33660  0.22550  1.0000 0.1210215551
H   H7        1.0  0.36640  0.06840  0.47130  1.0000 0.1294525121
H   H8        1.0  0.14300  0.07870  0.47950  1.0000 0.1294525121
H   H9        1.0  0.02700  0.23030  0.19740  1.0000 0.1210215551
H   H10       1.0  0.14030  0.30500  0.07520  1.0000 0.1095785532
H   H11       1.0  0.36790  0.30910  0.07450  1.0000 0.1095785532
H   H12       1.0  0.47930  0.23430  0.19170  1.0000 0.1095785532
H   H13       1.0  0.57670  0.20240  0.61290  1.0000 0.1294525121
H   H14       1.0  0.56130  0.16550  0.77040  1.0000 0.1294525121
H   H15       1.0  0.94490  0.13680  0.78570  1.0000 0.1385286455
H   H16       1.0  0.95220  0.17770  0.62880  1.0000 0.1210215551
H   H17       1.0  0.59360  0.19320  0.93260  1.0000 0.1385286455
H   H18       1.0  0.58330  0.14120  0.08630  1.0000 0.1095785532
H   H19       1.0  0.85760  0.96220  0.05010  1.0000 0.1095785532
H   H20       1.0  0.88120  0.01550  0.89720  1.0000 0.1385286455
H   H21       1.0  0.36170  0.42980  0.53600  1.0000 0.1385286455
H   H22       1.0  0.33900  0.25770  0.59790  1.0000 0.1210215551
H   H23       1.0  0.18070  0.31830  0.90080  1.0000 0.1210215551
H   H24       1.0  0.13660  0.47110  0.98860  1.0000 0.1095785532
H   H25       1.0  0.16220  0.64430  0.92790  1.0000 0.1095785532
H   H26       1.0  0.22960  0.66340  0.77450  1.0000 0.1210215551
H   H27       1.0  0.63360  0.93160  0.52870  1.0000 0.1294525121
H   H28       1.0  0.85700  0.92130  0.52050  1.0000 0.1294525121
H   H29       1.0  0.97300  0.76970  0.80260  1.0000 0.1210215551
H   H30       1.0  0.85970  0.69500  0.92480  1.0000 0.1095785532
H   H31       1.0  0.63210  0.69090  0.92550  1.0000 0.1095785532
H   H32       1.0  0.52070  0.76570  0.80830  1.0000 0.1095785532
H   H33       1.0  0.42330  0.79760  0.38710  1.0000 0.1294525121
H   H34       1.0  0.43870  0.83450  0.22960  1.0000 0.1294525121
H   H35       1.0  0.05510  0.86320  0.21430  1.0000 0.1385286455
H   H36       1.0  0.04780  0.82230  0.37120  1.0000 0.1210215551
H   H37       1.0  0.40640  0.80680  0.06740  1.0000 0.1385286455
H   H38       1.0  0.41670  0.85880  0.91370  1.0000 0.1095785532
H   H39       1.0  0.14240  0.03780  0.94990  1.0000 0.1095785532
H   H40       1.0  0.11880  0.98450  0.10280  1.0000 0.1385286455
C   C1        1.0  0.70690  0.48890  0.35300  1.0000 -0.036928508
C   C2        1.0  0.67150  0.57840  0.40390  1.0000 -0.1017410779
C   C3        1.0  0.68510  0.68240  0.36600  1.0000 -0.1017410779
C   C4        1.0  0.73280  0.69900  0.27740  1.0000 -0.0910554375
C   C5        1.0  0.80890  0.61330  0.12560  1.0000 -0.146658774
C   C6        1.0  0.83500  0.52180  0.07310  1.0000 -0.1097564631
C   C7        1.0  0.82030  0.41740  0.10960  1.0000 -0.1097564631
C   C8        1.0  0.77980  0.40620  0.20120  1.0000 -0.1272421587
C   C9        1.0  0.75200  0.49980  0.25930  1.0000 0.0599303219
C   C10       1.0  0.76570  0.60580  0.22080  1.0000 0.0599303219
C   C11       1.0  0.74440  0.81310  0.24460  1.0000 0.5507123661
C   C12       1.0  0.69650  0.38190  0.40260  1.0000 0.5572434854
C   C13       1.0  0.38680  0.12890  0.34300  1.0000 -0.0544365044
C   C14       1.0  0.32100  0.09510  0.42070  1.0000 -0.1017410779
C   C15       1.0  0.18540  0.10010  0.42510  1.0000 -0.1097564631
C   C16       1.0  0.11510  0.13600  0.35070  1.0000 -0.0695596482
C   C17       1.0  0.11750  0.22910  0.19650  1.0000 -0.1388134952
C   C18       1.0  0.18510  0.27490  0.12410  1.0000 -0.1017410779
C   C19       1.0  0.32190  0.27650  0.12340  1.0000 -0.0910554375
C   C20       1.0  0.38800  0.23120  0.19310  1.0000 -0.1388134952
C   C21       1.0  0.32120  0.17900  0.26840  1.0000 0.0599303219
C   C22       1.0  0.18200  0.18000  0.27040  1.0000 0.0513252695
C   C23       1.0  0.52670  0.10600  0.33790  1.0000 0.5853921366
C   C24       1.0  0.96710  0.12490  0.35490  1.0000 0.5966807199
C   C25       1.0  0.65160  0.18830  0.64800  1.0000 0.0902049037
C   C26       1.0  0.64140  0.16540  0.74240  1.0000 -0.1725473139
C   C27       1.0  0.75040  0.14210  0.79610  1.0000 0.1095785532
C   C28       1.0  0.86830  0.14890  0.75160  1.0000 -0.1775116208
C   C29       1.0  0.87200  0.17340  0.65720  1.0000 0.0902049037
C   C30       1.0  0.74080  0.11090  0.89610  1.0000 0.1095785532
C   C31       1.0  0.65030  0.14730  0.95530  1.0000 -0.1919461149
C   C32       1.0  0.64460  0.11540  0.04780  1.0000 0.0684404117
C   C33       1.0  0.80560  0.01150  0.02720  1.0000 0.0902049037
C   C34       1.0  0.81880  0.04210  0.93420  1.0000 -0.1919461149
C   C35       1.0  0.29310  0.51110  0.64700  1.0000 -0.036928508
C   C36       1.0  0.32850  0.42160  0.59610  1.0000 -0.1017410779
C   C37       1.0  0.31490  0.31760  0.63400  1.0000 -0.1017410779
C   C38       1.0  0.26720  0.30100  0.72260  1.0000 -0.0910554375
C   C39       1.0  0.19110  0.38670  0.87440  1.0000 -0.146658774
C   C40       1.0  0.16500  0.47820  0.92690  1.0000 -0.1097564631
C   C41       1.0  0.17970  0.58260  0.89040  1.0000 -0.1097564631
C   C42       1.0  0.22020  0.59380  0.79880  1.0000 -0.1272421587
C   C43       1.0  0.24800  0.50020  0.74070  1.0000 0.0599303219
C   C44       1.0  0.23430  0.39420  0.77920  1.0000 0.0599303219
C   C45       1.0  0.25560  0.18690  0.75540  1.0000 0.5507123661
C   C46       1.0  0.30350  0.61810  0.59740  1.0000 0.5572434854
C   C47       1.0  0.61320  0.87110  0.65700  1.0000 -0.0544365044
C   C48       1.0  0.67900  0.90490  0.57930  1.0000 -0.1017410779
C   C49       1.0  0.81460  0.89990  0.57490  1.0000 -0.1097564631
C   C50       1.0  0.88490  0.86400  0.64930  1.0000 -0.0695596482
C   C51       1.0  0.88250  0.77090  0.80350  1.0000 -0.1388134952
C   C52       1.0  0.81490  0.72510  0.87590  1.0000 -0.1017410779
C   C53       1.0  0.67810  0.72350  0.87660  1.0000 -0.0910554375
C   C54       1.0  0.61200  0.76880  0.80690  1.0000 -0.1388134952
C   C55       1.0  0.67880  0.82100  0.73160  1.0000 0.0599303219
C   C56       1.0  0.81800  0.82000  0.72960  1.0000 0.0513252695
C   C57       1.0  0.47330  0.89400  0.66210  1.0000 0.5853921366
C   C58       1.0  0.03290  0.87510  0.64510  1.0000 0.5966807199
C   C59       1.0  0.34840  0.81170  0.35200  1.0000 0.0902049037
C   C60       1.0  0.35860  0.83460  0.25760  1.0000 -0.1725473139
C   C61       1.0  0.24960  0.85790  0.20390  1.0000 0.1095785532
C   C62       1.0  0.13170  0.85110  0.24840  1.0000 -0.1775116208
C   C63       1.0  0.12800  0.82660  0.34280  1.0000 0.0902049037
C   C64       1.0  0.25920  0.88910  0.10390  1.0000 0.1095785532
C   C65       1.0  0.34970  0.85270  0.04470  1.0000 -0.1952902633
C   C66       1.0  0.35540  0.88460  0.95220  1.0000 0.0684404117
C   C67       1.0  0.19440  0.98850  0.97280  1.0000 0.0902049037
C   C68       1.0  0.18120  0.95790  0.06580  1.0000 -0.1919461149
N   N1        1.0  0.76510  0.19130  0.60400  1.0000 -0.2400974441
N   N2        1.0  0.72220  0.04930  0.08540  1.0000 -0.2298662099
N   N3        1.0  0.23490  0.80870  0.39600  1.0000 -0.2400974441
N   N4        1.0  0.27780  0.95070  0.91460  1.0000 -0.2298662099
O   O1        1.0  0.67540  0.87860  0.28390  1.0000 -0.5330172984
O   O2        1.0  0.82340  0.84820  0.18410  1.0000 -0.5661825943
O   O3        1.0  0.60550  0.35370  0.45240  1.0000 -0.5330172984
O   O4        1.0  0.79270  0.32770  0.39290  1.0000 -0.5471866536
O   O5        1.0  0.59130  0.09800  0.41610  1.0000 -0.5435000368
O   O6        1.0  0.56950  0.09340  0.25590  1.0000 -0.5435000368
O   O7        1.0  0.92340  0.13340  0.43720  1.0000 -0.5330172984
O   O8        1.0  0.89540  0.10420  0.27690  1.0000 -0.5435000368
O   O9        1.0  0.32460  0.12140  0.71610  1.0000 -0.5330172984
O   O10       1.0  0.17660  0.15180  0.81590  1.0000 -0.5661825943
O   O11       1.0  0.39450  0.64630  0.54760  1.0000 -0.5330172984
O   O12       1.0  0.20730  0.67230  0.60710  1.0000 -0.5471866536
O   O13       1.0  0.40870  0.90200  0.58390  1.0000 -0.5435000368
O   O14       1.0  0.43050  0.90660  0.74410  1.0000 -0.5435000368
O   O15       1.0  0.07660  0.86660  0.56280  1.0000 -0.5330172984
O   O16       1.0  0.10460  0.89580  0.72310  1.0000 -0.5435000368
