# DDEC6 charges by PACMAN v1.1 (https://github.com/mtap-research/PACMAN-charge/)
data_2014[Cu][hms]3[ASR]1
_chemical_formula_sum              "Cu4 H60 C92 N12 O16"
_cell_length_a       14.6944
_cell_length_b       14.6944
_cell_length_c       20.35
_cell_angle_alpha    55.3116
_cell_angle_beta     124.688
_cell_angle_gamma    139.575

_symmetry_space_group_name_H-M    "P 1"
_symmetry_Int_Tables_number       1

loop_
  _symmetry_equiv_pos_as_xyz
  'x, y, z'

loop_
  _atom_site_type_symbol
  _atom_site_label
  _atom_site_symmetry_multiplicity
  _atom_site_fract_x
  _atom_site_fract_y
  _atom_site_fract_z
  _atom_site_occupancy
  _atom_site_charge
Cu  Cu1       1.0  0.41940  0.09840  0.76550  1.0000 0.6797492722
Cu  Cu2       1.0  0.90160  0.58060  0.26550  1.0000 0.6797492722
Cu  Cu3       1.0  0.09840  0.41940  0.73450  1.0000 0.6797492722
Cu  Cu4       1.0  0.58060  0.90160  0.23450  1.0000 0.6797492722
H   H1        1.0  0.47310  0.33570  0.61240  1.0000 0.1115461926
H   H2        1.0  0.66430  0.52690  0.11240  1.0000 0.1115461926
H   H3        1.0  0.37890  0.44470  0.50860  1.0000 0.1381136496
H   H4        1.0  0.55530  0.62110  0.00860  1.0000 0.1381136496
H   H5        1.0  0.08600  0.19860  0.62870  1.0000 0.1381136496
H   H6        1.0  0.80140  0.91400  0.12870  1.0000 0.1381136496
H   H7        1.0  0.18760  0.09380  0.72880  1.0000 0.1115461926
H   H8        1.0  0.90620  0.81240  0.22880  1.0000 0.1115461926
H   H9        1.0  0.19990  0.43830  0.39310  1.0000 0.1381136496
H   H10       1.0  0.56170  0.80010  0.89310  1.0000 0.1381136496
H   H11       1.0  0.08670  0.53110  0.28820  1.0000 0.1115461926
H   H12       1.0  0.46890  0.91330  0.78820  1.0000 0.1115461926
H   H13       1.0  0.95070  0.45910  0.44280  1.0000 0.1115461926
H   H14       1.0  0.54090  0.04930  0.94280  1.0000 0.1115461926
H   H15       1.0  0.06630  0.37310  0.55160  1.0000 0.1467238584
H   H16       1.0  0.62690  0.93370  0.05160  1.0000 0.1467238584
H   H17       1.0  0.78580  0.36940  0.18790  1.0000 0.1115461926
H   H18       1.0  0.63060  0.21420  0.68790  1.0000 0.1115461926
H   H19       1.0  0.05030  0.78990  0.12620  1.0000 0.1195582121
H   H20       1.0  0.21010  0.94970  0.62620  1.0000 0.1195582121
H   H21       1.0  0.92200  0.60620  0.76670  1.0000 0.1195582121
H   H22       1.0  0.39380  0.07800  0.26670  1.0000 0.1195582121
H   H23       1.0  0.11510  0.78550  0.94490  1.0000 0.1115461926
H   H24       1.0  0.21450  0.88490  0.44490  1.0000 0.1115461926
H   H25       1.0  0.72170  0.38970  0.93960  1.0000 0.1195582121
H   H26       1.0  0.61030  0.27830  0.43960  1.0000 0.1195582121
H   H27       1.0  0.05000  0.79860  0.01110  1.0000 0.1292638798
H   H28       1.0  0.20140  0.95000  0.51110  1.0000 0.1292638798
H   H29       1.0  0.77730  0.36590  0.07410  1.0000 0.1292638798
H   H30       1.0  0.63410  0.22270  0.57410  1.0000 0.1292638798
H   H31       1.0  0.33570  0.47310  0.88760  1.0000 0.1115461926
H   H32       1.0  0.52690  0.66430  0.38760  1.0000 0.1115461926
H   H33       1.0  0.44470  0.37890  0.99140  1.0000 0.1381136496
H   H34       1.0  0.62110  0.55530  0.49140  1.0000 0.1381136496
H   H35       1.0  0.19860  0.08600  0.87130  1.0000 0.1381136496
H   H36       1.0  0.91400  0.80140  0.37130  1.0000 0.1381136496
H   H37       1.0  0.09380  0.18760  0.77120  1.0000 0.1115461926
H   H38       1.0  0.81240  0.90620  0.27120  1.0000 0.1115461926
H   H39       1.0  0.43830  0.19990  0.10690  1.0000 0.1381136496
H   H40       1.0  0.80010  0.56170  0.60690  1.0000 0.1381136496
H   H41       1.0  0.53110  0.08670  0.21180  1.0000 0.1115461926
H   H42       1.0  0.91330  0.46890  0.71180  1.0000 0.1115461926
H   H43       1.0  0.45910  0.95070  0.05720  1.0000 0.1115461926
H   H44       1.0  0.04930  0.54090  0.55720  1.0000 0.1115461926
H   H45       1.0  0.37310  0.06630  0.94840  1.0000 0.1467238584
H   H46       1.0  0.93370  0.62690  0.44840  1.0000 0.1467238584
H   H47       1.0  0.36940  0.78580  0.31210  1.0000 0.1115461926
H   H48       1.0  0.21420  0.63060  0.81210  1.0000 0.1115461926
H   H49       1.0  0.78990  0.05030  0.37380  1.0000 0.1195582121
H   H50       1.0  0.94970  0.21010  0.87380  1.0000 0.1195582121
H   H51       1.0  0.60620  0.92200  0.73330  1.0000 0.1195582121
H   H52       1.0  0.07800  0.39380  0.23330  1.0000 0.1195582121
H   H53       1.0  0.78550  0.11510  0.55510  1.0000 0.1115461926
H   H54       1.0  0.88490  0.21450  0.05510  1.0000 0.1115461926
H   H55       1.0  0.38970  0.72170  0.56040  1.0000 0.1195582121
H   H56       1.0  0.27830  0.61030  0.06040  1.0000 0.1195582121
H   H57       1.0  0.79860  0.05000  0.48890  1.0000 0.1292638798
H   H58       1.0  0.95000  0.20140  0.98890  1.0000 0.1292638798
H   H59       1.0  0.36590  0.77730  0.42590  1.0000 0.1292638798
H   H60       1.0  0.22270  0.63410  0.92590  1.0000 0.1292638798
C   C1        1.0  0.39170  0.30510  0.61520  1.0000 0.079950937
C   C2        1.0  0.69490  0.60830  0.11520  1.0000 0.079950937
C   C3        1.0  0.33600  0.37200  0.55240  1.0000 -0.2001637549
C   C4        1.0  0.62800  0.66400  0.05240  1.0000 -0.2001637549
C   C5        1.0  0.21640  0.33140  0.55400  1.0000 0.1115461926
C   C6        1.0  0.66860  0.78360  0.05400  1.0000 0.1115461926
C   C7        1.0  0.16380  0.22700  0.62290  1.0000 -0.1890192158
C   C8        1.0  0.77300  0.83620  0.12290  1.0000 -0.1890192158
C   C9        1.0  0.22580  0.16460  0.68320  1.0000 0.079950937
C   C10       1.0  0.83540  0.77420  0.18320  1.0000 0.079950937
C   C11       1.0  0.14650  0.39370  0.48520  1.0000 0.1027965018
C   C12       1.0  0.60630  0.85350  0.98520  1.0000 0.1027965018
C   C13       1.0  0.15040  0.44200  0.40480  1.0000 -0.1890192158
C   C14       1.0  0.55800  0.84960  0.90480  1.0000 -0.1890192158
C   C15       1.0  0.08000  0.49600  0.34170  1.0000 0.0894781121
C   C16       1.0  0.50400  0.92000  0.84170  1.0000 0.0894781121
C   C17       1.0  0.00150  0.45470  0.43270  1.0000 0.079950937
C   C18       1.0  0.54530  0.99850  0.93270  1.0000 0.079950937
C   C19       1.0  0.07030  0.40250  0.49840  1.0000 -0.1890192158
C   C20       1.0  0.59750  0.92970  0.99840  1.0000 -0.1890192158
C   C21       1.0  0.16370  0.85210  0.81050  1.0000 0.5228010038
C   C22       1.0  0.14790  0.83630  0.31050  1.0000 0.5228010038
C   C23       1.0  0.83970  0.45730  0.15150  1.0000 0.079950937
C   C24       1.0  0.54270  0.16030  0.65150  1.0000 0.079950937
C   C25       1.0  0.99430  0.70310  0.11570  1.0000 0.0894781121
C   C26       1.0  0.29690  0.00570  0.61570  1.0000 0.0894781121
C   C27       1.0  0.67610  0.35610  0.80480  1.0000 0.5365515718
C   C28       1.0  0.64390  0.32390  0.30480  1.0000 0.5365515718
C   C29       1.0  0.80170  0.47950  0.84610  1.0000 -0.010302195
C   C30       1.0  0.52050  0.19830  0.34610  1.0000 -0.010302195
C   C31       1.0  0.92030  0.60190  0.81340  1.0000 -0.1259445107
C   C32       1.0  0.39810  0.07970  0.31340  1.0000 -0.1259445107
C   C33       1.0  0.03630  0.71790  0.84850  1.0000 -0.010302195
C   C34       1.0  0.28210  0.96370  0.34850  1.0000 -0.010302195
C   C35       1.0  0.03560  0.70900  0.91970  1.0000 -0.15923179
C   C36       1.0  0.29100  0.96440  0.41970  1.0000 -0.15923179
C   C37       1.0  0.91690  0.58690  0.95400  1.0000 0.0606020478
C   C38       1.0  0.41310  0.08310  0.45400  1.0000 0.0606020478
C   C39       1.0  0.80090  0.47230  0.91680  1.0000 -0.1504089391
C   C40       1.0  0.52770  0.19910  0.41680  1.0000 -0.1504089391
C   C41       1.0  0.99560  0.70900  0.04640  1.0000 -0.2001637549
C   C42       1.0  0.29100  0.00440  0.54640  1.0000 -0.2001637549
C   C43       1.0  0.91620  0.58260  0.02850  1.0000 0.1292638798
C   C44       1.0  0.41740  0.08380  0.52850  1.0000 0.1292638798
C   C45       1.0  0.83510  0.45450  0.08340  1.0000 -0.1890192158
C   C46       1.0  0.54550  0.16490  0.58340  1.0000 -0.1890192158
C   C47       1.0  0.30510  0.39170  0.88480  1.0000 0.079950937
C   C48       1.0  0.60830  0.69490  0.38480  1.0000 0.079950937
C   C49       1.0  0.37200  0.33600  0.94760  1.0000 -0.2001637549
C   C50       1.0  0.66400  0.62800  0.44760  1.0000 -0.2001637549
C   C51       1.0  0.33140  0.21640  0.94600  1.0000 0.1115461926
C   C52       1.0  0.78360  0.66860  0.44600  1.0000 0.1115461926
C   C53       1.0  0.22700  0.16380  0.87710  1.0000 -0.1890192158
C   C54       1.0  0.83620  0.77300  0.37710  1.0000 -0.1890192158
C   C55       1.0  0.16460  0.22580  0.81680  1.0000 0.079950937
C   C56       1.0  0.77420  0.83540  0.31680  1.0000 0.079950937
C   C57       1.0  0.39370  0.14650  0.01480  1.0000 0.1027965018
C   C58       1.0  0.85350  0.60630  0.51480  1.0000 0.1027965018
C   C59       1.0  0.44200  0.15040  0.09520  1.0000 -0.1890192158
C   C60       1.0  0.84960  0.55800  0.59520  1.0000 -0.1890192158
C   C61       1.0  0.49600  0.08000  0.15830  1.0000 0.0894781121
C   C62       1.0  0.92000  0.50400  0.65830  1.0000 0.0894781121
C   C63       1.0  0.45470  0.00150  0.06730  1.0000 0.079950937
C   C64       1.0  0.99850  0.54530  0.56730  1.0000 0.079950937
C   C65       1.0  0.40250  0.07030  0.00160  1.0000 -0.1890192158
C   C66       1.0  0.92970  0.59750  0.50160  1.0000 -0.1890192158
C   C67       1.0  0.85210  0.16370  0.68950  1.0000 0.5228010038
C   C68       1.0  0.83630  0.14790  0.18950  1.0000 0.5228010038
C   C69       1.0  0.45730  0.83970  0.34850  1.0000 0.079950937
C   C70       1.0  0.16030  0.54270  0.84850  1.0000 0.079950937
C   C71       1.0  0.70310  0.99430  0.38430  1.0000 0.0894781121
C   C72       1.0  0.00570  0.29690  0.88430  1.0000 0.0894781121
C   C73       1.0  0.35610  0.67610  0.69520  1.0000 0.5365515718
C   C74       1.0  0.32390  0.64390  0.19520  1.0000 0.5365515718
C   C75       1.0  0.47950  0.80170  0.65390  1.0000 -0.010302195
C   C76       1.0  0.19830  0.52050  0.15390  1.0000 -0.010302195
C   C77       1.0  0.60190  0.92030  0.68660  1.0000 -0.1259445107
C   C78       1.0  0.07970  0.39810  0.18660  1.0000 -0.1259445107
C   C79       1.0  0.71790  0.03630  0.65150  1.0000 -0.010302195
C   C80       1.0  0.96370  0.28210  0.15150  1.0000 -0.010302195
C   C81       1.0  0.70900  0.03560  0.58030  1.0000 -0.15923179
C   C82       1.0  0.96440  0.29100  0.08030  1.0000 -0.15923179
C   C83       1.0  0.58690  0.91690  0.54600  1.0000 0.0606020478
C   C84       1.0  0.08310  0.41310  0.04600  1.0000 0.0606020478
C   C85       1.0  0.47230  0.80090  0.58320  1.0000 -0.1504089391
C   C86       1.0  0.19910  0.52770  0.08320  1.0000 -0.1504089391
C   C87       1.0  0.70900  0.99560  0.45360  1.0000 -0.2001637549
C   C88       1.0  0.00440  0.29100  0.95360  1.0000 -0.2001637549
C   C89       1.0  0.58260  0.91620  0.47150  1.0000 0.1292638798
C   C90       1.0  0.08380  0.41740  0.97150  1.0000 0.1292638798
C   C91       1.0  0.45450  0.83510  0.41660  1.0000 -0.1890192158
C   C92       1.0  0.16490  0.54550  0.91660  1.0000 -0.1890192158
N   N1        1.0  0.33783  0.20077  0.67910  1.0000 -0.2001637549
N   N2        1.0  0.79923  0.66217  0.17910  1.0000 -0.2001637549
N   N3        1.0  0.91728  0.57952  0.16850  1.0000 -0.2517541429
N   N4        1.0  0.42048  0.08272  0.66850  1.0000 -0.2517541429
N   N5        1.0  0.00348  0.49972  0.35430  1.0000 -0.2166726967
N   N6        1.0  0.50028  0.99652  0.85430  1.0000 -0.2166726967
N   N7        1.0  0.20077  0.33783  0.82090  1.0000 -0.2001637549
N   N8        1.0  0.66217  0.79923  0.32090  1.0000 -0.2001637549
N   N9        1.0  0.57952  0.91728  0.33150  1.0000 -0.2517541429
N   N10       1.0  0.08272  0.42048  0.83150  1.0000 -0.2517541429
N   N11       1.0  0.49972  0.00348  0.14570  1.0000 -0.2166726967
N   N12       1.0  0.99652  0.50028  0.64570  1.0000 -0.2166726967
O   O1        1.0  0.56347  0.25253  0.83080  1.0000 -0.5260908684
O   O2        1.0  0.74747  0.43653  0.33080  1.0000 -0.5260908684
O   O3        1.0  0.68850  0.36350  0.74590  1.0000 -0.5846670648
O   O4        1.0  0.63650  0.31150  0.24590  1.0000 -0.5846670648
O   O5        1.0  0.26440  0.95620  0.84130  1.0000 -0.5402779361
O   O6        1.0  0.04380  0.73560  0.34130  1.0000 -0.5402779361
O   O7        1.0  0.16160  0.85200  0.74870  1.0000 -0.5573943337
O   O8        1.0  0.14800  0.83840  0.24870  1.0000 -0.5573943337
O   O9        1.0  0.25253  0.56347  0.66920  1.0000 -0.5260908684
O   O10       1.0  0.43653  0.74747  0.16920  1.0000 -0.5260908684
O   O11       1.0  0.36350  0.68850  0.75410  1.0000 -0.5846670648
O   O12       1.0  0.31150  0.63650  0.25410  1.0000 -0.5846670648
O   O13       1.0  0.95620  0.26440  0.65870  1.0000 -0.5402779361
O   O14       1.0  0.73560  0.04380  0.15870  1.0000 -0.5402779361
O   O15       1.0  0.85200  0.16160  0.75130  1.0000 -0.5573943337
O   O16       1.0  0.83840  0.14800  0.25130  1.0000 -0.5573943337
