# DDEC6 charges by PACMAN v1.1 (https://github.com/mtap-research/PACMAN-charge/)
data_2014[Cu][tbo]3[ASR]11
_chemical_formula_sum              "Cu12 H24 C72 O48"
_cell_length_a       18.5858
_cell_length_b       18.5858
_cell_length_c       18.5858
_cell_angle_alpha    60
_cell_angle_beta     60
_cell_angle_gamma    60

_symmetry_space_group_name_H-M    "P 1"
_symmetry_Int_Tables_number       1

loop_
  _symmetry_equiv_pos_as_xyz
  'x, y, z'

loop_
  _atom_site_type_symbol
  _atom_site_label
  _atom_site_symmetry_multiplicity
  _atom_site_fract_x
  _atom_site_fract_y
  _atom_site_fract_z
  _atom_site_occupancy
  _atom_site_charge
Cu  Cu1       1.0  0.00000  0.00000  0.56984  1.0000 0.8523064973
Cu  Cu2       1.0  0.56984  0.43016  0.00000  1.0000 0.8523064973
Cu  Cu3       1.0  0.00000  0.00000  0.43016  1.0000 0.8523064973
Cu  Cu4       1.0  0.43016  0.56984  0.00000  1.0000 0.8523064973
Cu  Cu5       1.0  0.00000  0.56984  0.00000  1.0000 0.8523064973
Cu  Cu6       1.0  0.43016  0.00000  0.56984  1.0000 0.8523064973
Cu  Cu7       1.0  1.00000  0.43016  0.56984  1.0000 0.8523064973
Cu  Cu8       1.0  0.56984  0.00000  0.00000  1.0000 0.8523064973
Cu  Cu9       1.0  0.56984  0.00000  0.43016  1.0000 0.8523064973
Cu  Cu10      1.0  0.43016  0.00000  0.00000  1.0000 0.8523064973
Cu  Cu11      1.0  0.00000  0.43016  0.00000  1.0000 0.8523064973
Cu  Cu12      1.0  0.00000  0.56984  0.43016  1.0000 0.8523064973
H   H1        1.0  0.27250  0.96670  0.27250  1.0000 0.1363669209
H   H2        1.0  0.51170  0.72750  0.72750  1.0000 0.1363669209
H   H3        1.0  0.96670  0.27250  0.48830  1.0000 0.1363669209
H   H4        1.0  0.72750  0.51170  0.03330  1.0000 0.1363669209
H   H5        1.0  0.03330  0.51170  0.72750  1.0000 0.1363669209
H   H6        1.0  0.48830  0.27250  0.96670  1.0000 0.1363669209
H   H7        1.0  0.72750  0.72750  0.51170  1.0000 0.1363669209
H   H8        1.0  0.03330  0.72750  0.51170  1.0000 0.1363669209
H   H9        1.0  0.27250  0.48830  0.27250  1.0000 0.1363669209
H   H10       1.0  0.51170  0.72750  0.03330  1.0000 0.1363669209
H   H11       1.0  0.27250  0.27250  0.96670  1.0000 0.1363669209
H   H12       1.0  0.96670  0.27250  0.27250  1.0000 0.1363669209
H   H13       1.0  0.27250  0.96670  0.48830  1.0000 0.1363669209
H   H14       1.0  0.48830  0.96670  0.27250  1.0000 0.1363669209
H   H15       1.0  0.27250  0.48830  0.96670  1.0000 0.1363669209
H   H16       1.0  0.27250  0.27250  0.48830  1.0000 0.1363669209
H   H17       1.0  0.96670  0.48830  0.27250  1.0000 0.1363669209
H   H18       1.0  0.48830  0.27250  0.27250  1.0000 0.1363669209
H   H19       1.0  0.72750  0.03330  0.51170  1.0000 0.1363669209
H   H20       1.0  0.03330  0.72750  0.72750  1.0000 0.1363669209
H   H21       1.0  0.51170  0.03330  0.72750  1.0000 0.1363669209
H   H22       1.0  0.72750  0.72750  0.03330  1.0000 0.1363669209
H   H23       1.0  0.72750  0.51170  0.72750  1.0000 0.1363669209
H   H24       1.0  0.72750  0.03330  0.72750  1.0000 0.1363669209
C   C1        1.0  0.25788  0.96696  0.38758  1.0000 -0.0357618919
C   C2        1.0  0.61242  0.61242  0.74212  1.0000 -0.0357618919
C   C3        1.0  0.96696  0.25788  0.38758  1.0000 -0.0357618919
C   C4        1.0  0.61242  0.61242  0.03304  1.0000 -0.0357618919
C   C5        1.0  0.03304  0.61242  0.74212  1.0000 -0.0357618919
C   C6        1.0  0.38758  0.38758  0.96696  1.0000 -0.0357618919
C   C7        1.0  0.61242  0.74212  0.61242  1.0000 -0.0357618919
C   C8        1.0  0.03304  0.61242  0.61242  1.0000 -0.0357618919
C   C9        1.0  0.38758  0.38758  0.25788  1.0000 -0.0357618919
C   C10       1.0  0.61242  0.74212  0.03304  1.0000 -0.0357618919
C   C11       1.0  0.38758  0.25788  0.96696  1.0000 -0.0357618919
C   C12       1.0  0.96696  0.38758  0.25788  1.0000 -0.0357618919
C   C13       1.0  0.38758  0.96696  0.38758  1.0000 -0.0357618919
C   C14       1.0  0.38758  0.96696  0.25788  1.0000 -0.0357618919
C   C15       1.0  0.25788  0.38758  0.96696  1.0000 -0.0357618919
C   C16       1.0  0.25788  0.38758  0.38758  1.0000 -0.0357618919
C   C17       1.0  0.96696  0.38758  0.38758  1.0000 -0.0357618919
C   C18       1.0  0.38758  0.25788  0.38758  1.0000 -0.0357618919
C   C19       1.0  0.74212  0.03304  0.61242  1.0000 -0.0357618919
C   C20       1.0  0.03304  0.74212  0.61242  1.0000 -0.0357618919
C   C21       1.0  0.61242  0.03304  0.61242  1.0000 -0.0357618919
C   C22       1.0  0.74212  0.61242  0.03304  1.0000 -0.0357618919
C   C23       1.0  0.74212  0.61242  0.61242  1.0000 -0.0357618919
C   C24       1.0  0.61242  0.03304  0.74212  1.0000 -0.0357618919
C   C25       1.0  0.16267  0.97459  0.43137  1.0000 0.5826513889
C   C26       1.0  0.56863  0.56863  0.83733  1.0000 0.5826513889
C   C27       1.0  0.97459  0.16267  0.43137  1.0000 0.5826513889
C   C28       1.0  0.56863  0.56863  0.02541  1.0000 0.5826513889
C   C29       1.0  0.02541  0.56863  0.83733  1.0000 0.5826513889
C   C30       1.0  0.43137  0.43137  0.97459  1.0000 0.5826513889
C   C31       1.0  0.56863  0.83733  0.56863  1.0000 0.5826513889
C   C32       1.0  0.02541  0.56863  0.56863  1.0000 0.5826513889
C   C33       1.0  0.43137  0.43137  0.16267  1.0000 0.5826513889
C   C34       1.0  0.56863  0.83733  0.02541  1.0000 0.5826513889
C   C35       1.0  0.43137  0.16267  0.97459  1.0000 0.5826513889
C   C36       1.0  0.97459  0.43137  0.16267  1.0000 0.5826513889
C   C37       1.0  0.43137  0.97459  0.43137  1.0000 0.5826513889
C   C38       1.0  0.43137  0.97459  0.16267  1.0000 0.5826513889
C   C39       1.0  0.16267  0.43137  0.97459  1.0000 0.5826513889
C   C40       1.0  0.16267  0.43137  0.43137  1.0000 0.5826513889
C   C41       1.0  0.97459  0.43137  0.43137  1.0000 0.5826513889
C   C42       1.0  0.43137  0.16267  0.43137  1.0000 0.5826513889
C   C43       1.0  0.83733  0.02541  0.56863  1.0000 0.5826513889
C   C44       1.0  0.02541  0.83733  0.56863  1.0000 0.5826513889
C   C45       1.0  0.56863  0.02541  0.56863  1.0000 0.5826513889
C   C46       1.0  0.83733  0.56863  0.02541  1.0000 0.5826513889
C   C47       1.0  0.83733  0.56863  0.56863  1.0000 0.5826513889
C   C48       1.0  0.56863  0.02541  0.83733  1.0000 0.5826513889
C   C49       1.0  0.30136  0.96686  0.30136  1.0000 -0.0790940781
C   C50       1.0  0.56958  0.69864  0.69864  1.0000 -0.0790940781
C   C51       1.0  0.96686  0.30136  0.43042  1.0000 -0.0790940781
C   C52       1.0  0.69864  0.56958  0.03314  1.0000 -0.0790940781
C   C53       1.0  0.03314  0.56958  0.69864  1.0000 -0.0790940781
C   C54       1.0  0.43042  0.30136  0.96686  1.0000 -0.0790940781
C   C55       1.0  0.69864  0.69864  0.56958  1.0000 -0.0790940781
C   C56       1.0  0.03314  0.69864  0.56958  1.0000 -0.0790940781
C   C57       1.0  0.30136  0.43042  0.30136  1.0000 -0.0790940781
C   C58       1.0  0.56958  0.69864  0.03314  1.0000 -0.0790940781
C   C59       1.0  0.30136  0.30136  0.96686  1.0000 -0.0790940781
C   C60       1.0  0.96686  0.30136  0.30136  1.0000 -0.0790940781
C   C61       1.0  0.30136  0.96686  0.43042  1.0000 -0.0790940781
C   C62       1.0  0.43042  0.96686  0.30136  1.0000 -0.0790940781
C   C63       1.0  0.30136  0.43042  0.96686  1.0000 -0.0790940781
C   C64       1.0  0.30136  0.30136  0.43042  1.0000 -0.0790940781
C   C65       1.0  0.96686  0.43042  0.30136  1.0000 -0.0790940781
C   C66       1.0  0.43042  0.30136  0.30136  1.0000 -0.0790940781
C   C67       1.0  0.69864  0.03314  0.56958  1.0000 -0.0790940781
C   C68       1.0  0.03314  0.69864  0.69864  1.0000 -0.0790940781
C   C69       1.0  0.56958  0.03314  0.69864  1.0000 -0.0790940781
C   C70       1.0  0.69864  0.69864  0.03314  1.0000 -0.0790940781
C   C71       1.0  0.69864  0.56958  0.69864  1.0000 -0.0790940781
C   C72       1.0  0.69864  0.03314  0.69864  1.0000 -0.0790940781
O   O1        1.0  0.12621  0.97869  0.50767  1.0000 -0.5141345439
O   O2        1.0  0.61257  0.49233  0.87379  1.0000 -0.5153039729
O   O3        1.0  0.97869  0.12621  0.38743  1.0000 -0.5153039729
O   O4        1.0  0.49233  0.61257  0.02131  1.0000 -0.5153039729
O   O5        1.0  0.02131  0.61257  0.87379  1.0000 -0.5153039729
O   O6        1.0  0.38743  0.50767  0.97869  1.0000 -0.5153039729
O   O7        1.0  0.49233  0.87379  0.61257  1.0000 -0.5153039729
O   O8        1.0  0.02131  0.49233  0.61257  1.0000 -0.5153039729
O   O9        1.0  0.50767  0.38743  0.12621  1.0000 -0.5153039729
O   O10       1.0  0.61257  0.87379  0.02131  1.0000 -0.5153039729
O   O11       1.0  0.50767  0.12621  0.97869  1.0000 -0.5153039729
O   O12       1.0  0.97869  0.50767  0.12621  1.0000 -0.5153039729
O   O13       1.0  0.50767  0.97869  0.38743  1.0000 -0.5153039729
O   O14       1.0  0.38743  0.97869  0.12621  1.0000 -0.5153039729
O   O15       1.0  0.12621  0.38743  0.97869  1.0000 -0.5153039729
O   O16       1.0  0.12621  0.50767  0.38743  1.0000 -0.5153039729
O   O17       1.0  0.97869  0.38743  0.50767  1.0000 -0.5153039729
O   O18       1.0  0.38743  0.12621  0.50767  1.0000 -0.5153039729
O   O19       1.0  0.87379  0.02131  0.61257  1.0000 -0.5153039729
O   O20       1.0  0.02131  0.87379  0.49233  1.0000 -0.5153039729
O   O21       1.0  0.61257  0.02131  0.49233  1.0000 -0.5153039729
O   O22       1.0  0.87379  0.49233  0.02131  1.0000 -0.5153039729
O   O23       1.0  0.87379  0.61257  0.49233  1.0000 -0.5141345439
O   O24       1.0  0.49233  0.02131  0.87379  1.0000 -0.5153039729
O   O25       1.0  0.87379  0.02131  0.49233  1.0000 -0.5153039729
O   O26       1.0  0.38743  0.50767  0.12621  1.0000 -0.5153039729
O   O27       1.0  0.02131  0.87379  0.61257  1.0000 -0.5153039729
O   O28       1.0  0.50767  0.38743  0.97869  1.0000 -0.5153039729
O   O29       1.0  0.97869  0.38743  0.12621  1.0000 -0.5153039729
O   O30       1.0  0.61257  0.49233  0.02131  1.0000 -0.5153039729
O   O31       1.0  0.50767  0.12621  0.38743  1.0000 -0.5153039729
O   O32       1.0  0.97869  0.50767  0.38743  1.0000 -0.5153039729
O   O33       1.0  0.49233  0.61257  0.87379  1.0000 -0.5153039729
O   O34       1.0  0.38743  0.12621  0.97869  1.0000 -0.5141345439
O   O35       1.0  0.49233  0.87379  0.02131  1.0000 -0.5153039729
O   O36       1.0  0.02131  0.49233  0.87379  1.0000 -0.5153039729
O   O37       1.0  0.49233  0.02131  0.61257  1.0000 -0.5153039729
O   O38       1.0  0.61257  0.02131  0.87379  1.0000 -0.5153039729
O   O39       1.0  0.87379  0.61257  0.02131  1.0000 -0.5153039729
O   O40       1.0  0.87379  0.49233  0.61257  1.0000 -0.5153039729
O   O41       1.0  0.02131  0.61257  0.49233  1.0000 -0.5153039729
O   O42       1.0  0.61257  0.87379  0.49233  1.0000 -0.5153039729
O   O43       1.0  0.12621  0.97869  0.38743  1.0000 -0.5153039729
O   O44       1.0  0.97869  0.12621  0.50767  1.0000 -0.5153039729
O   O45       1.0  0.38743  0.97869  0.50767  1.0000 -0.5141345439
O   O46       1.0  0.12621  0.50767  0.97869  1.0000 -0.5141345439
O   O47       1.0  0.12621  0.38743  0.50767  1.0000 -0.5141345439
O   O48       1.0  0.50767  0.97869  0.12621  1.0000 -0.5153039729
