# DDEC6 charges by PACMAN v1.1 (https://github.com/mtap-research/PACMAN-charge/)
data_2015[Ho][rob]3[ASR]1
_chemical_formula_sum              "Ho8 H168 C276 O72"
_cell_length_a       14.418
_cell_length_b       19.0994
_cell_length_c       30.593
_cell_angle_alpha    90
_cell_angle_beta     90
_cell_angle_gamma    90

_symmetry_space_group_name_H-M    "P 1"
_symmetry_Int_Tables_number       1

loop_
  _symmetry_equiv_pos_as_xyz
  'x, y, z'

loop_
  _atom_site_type_symbol
  _atom_site_label
  _atom_site_symmetry_multiplicity
  _atom_site_fract_x
  _atom_site_fract_y
  _atom_site_fract_z
  _atom_site_occupancy
  _atom_site_charge
Ho  Ho1       1.0  0.02725  0.31145  0.37080  1.0000 2.0423860174
Ho  Ho2       1.0  0.97275  0.68855  0.87080  1.0000 2.0423860174
Ho  Ho3       1.0  0.52725  0.18855  0.87080  1.0000 2.0423860174
Ho  Ho4       1.0  0.47275  0.81145  0.37080  1.0000 2.0423860174
Ho  Ho5       1.0  0.96480  0.35751  0.24681  1.0000 2.0337488276
Ho  Ho6       1.0  0.03520  0.64249  0.74681  1.0000 2.0337488276
Ho  Ho7       1.0  0.46480  0.14249  0.74681  1.0000 2.0337488276
Ho  Ho8       1.0  0.53520  0.85751  0.24681  1.0000 2.0337488276
H   H1        1.0  0.72720  0.40280  0.27070  1.0000 0.3473806503
H   H2        1.0  0.27280  0.59720  0.77070  1.0000 0.3473806503
H   H3        1.0  0.22720  0.09720  0.77070  1.0000 0.3473806503
H   H4        1.0  0.77280  0.90280  0.27070  1.0000 0.3473806503
H   H5        1.0  0.50490  0.59960  0.35690  1.0000 0.3473806503
H   H6        1.0  0.49510  0.40040  0.85690  1.0000 0.3473806503
H   H7        1.0  0.00490  0.90040  0.85690  1.0000 0.3473806503
H   H8        1.0  0.99510  0.09960  0.35690  1.0000 0.3473806503
H   H9        1.0  0.35960  0.20110  0.95190  1.0000 0.3413458278
H   H10       1.0  0.64040  0.79890  0.45190  1.0000 0.3413458278
H   H11       1.0  0.85960  0.29890  0.45190  1.0000 0.3413458278
H   H12       1.0  0.14040  0.70110  0.95190  1.0000 0.3413458278
H   H13       1.0  0.03180  0.25440  0.12910  1.0000 0.3413458278
H   H14       1.0  0.96820  0.74560  0.62910  1.0000 0.3413458278
H   H15       1.0  0.53180  0.24560  0.62910  1.0000 0.3413458278
H   H16       1.0  0.46820  0.75440  0.12910  1.0000 0.3413458278
H   H17       1.0  0.22490  0.73980  0.34830  1.0000 0.3584058208
H   H18       1.0  0.77510  0.26020  0.84830  1.0000 0.3584058208
H   H19       1.0  0.72490  0.76020  0.84830  1.0000 0.3584058208
H   H20       1.0  0.27510  0.23980  0.34830  1.0000 0.3584058208
H   H21       1.0  0.00170  0.56890  0.26460  1.0000 0.3473806503
H   H22       1.0  0.99830  0.43110  0.76460  1.0000 0.3473806503
H   H23       1.0  0.50170  0.93110  0.76460  1.0000 0.3473806503
H   H24       1.0  0.49830  0.06890  0.26460  1.0000 0.3473806503
H   H25       1.0  0.74600  0.36660  0.41170  1.0000 0.1258766276
H   H26       1.0  0.25400  0.63340  0.91170  1.0000 0.1258766276
H   H27       1.0  0.24600  0.13340  0.91170  1.0000 0.1258766276
H   H28       1.0  0.75400  0.86660  0.41170  1.0000 0.1258766276
H   H29       1.0  0.63680  0.38190  0.47280  1.0000 0.1200158884
H   H30       1.0  0.36320  0.61810  0.97280  1.0000 0.1200158884
H   H31       1.0  0.13680  0.11810  0.97280  1.0000 0.1200158884
H   H32       1.0  0.86320  0.88190  0.47280  1.0000 0.1200158884
H   H33       1.0  0.48940  0.39710  0.49730  1.0000 0.1108066301
H   H34       1.0  0.51060  0.60290  0.99730  1.0000 0.1108066301
H   H35       1.0  0.98940  0.10290  0.99730  1.0000 0.1108066301
H   H36       1.0  0.01060  0.89710  0.49730  1.0000 0.1108066301
H   H37       1.0  0.37090  0.42030  0.44730  1.0000 0.1200158884
H   H38       1.0  0.62910  0.57970  0.94730  1.0000 0.1200158884
H   H39       1.0  0.87090  0.07970  0.94730  1.0000 0.1200158884
H   H40       1.0  0.12910  0.92030  0.44730  1.0000 0.1200158884
H   H41       1.0  0.39920  0.43290  0.37540  1.0000 0.1200158884
H   H42       1.0  0.60080  0.56710  0.87540  1.0000 0.1200158884
H   H43       1.0  0.89920  0.06710  0.87540  1.0000 0.1200158884
H   H44       1.0  0.10080  0.93290  0.37540  1.0000 0.1200158884
H   H45       1.0  0.42980  0.43680  0.31120  1.0000 0.1108066301
H   H46       1.0  0.57020  0.56320  0.81120  1.0000 0.1108066301
H   H47       1.0  0.92980  0.06320  0.81120  1.0000 0.1108066301
H   H48       1.0  0.07020  0.93680  0.31120  1.0000 0.1108066301
H   H49       1.0  0.49130  0.40300  0.27480  1.0000 0.1108066301
H   H50       1.0  0.50870  0.59700  0.77480  1.0000 0.1108066301
H   H51       1.0  0.99130  0.09700  0.77480  1.0000 0.1108066301
H   H52       1.0  0.00870  0.90300  0.27480  1.0000 0.1108066301
H   H53       1.0  0.48450  0.41520  0.21160  1.0000 0.1108066301
H   H54       1.0  0.51550  0.58480  0.71160  1.0000 0.1108066301
H   H55       1.0  0.98450  0.08480  0.71160  1.0000 0.1108066301
H   H56       1.0  0.01550  0.91520  0.21160  1.0000 0.1108066301
H   H57       1.0  0.46790  0.43360  0.13800  1.0000 0.1108066301
H   H58       1.0  0.53210  0.56640  0.63800  1.0000 0.1108066301
H   H59       1.0  0.96790  0.06640  0.63800  1.0000 0.1108066301
H   H60       1.0  0.03210  0.93360  0.13800  1.0000 0.1108066301
H   H61       1.0  0.47360  0.54550  0.10800  1.0000 0.1108066301
H   H62       1.0  0.52640  0.45450  0.60800  1.0000 0.1108066301
H   H63       1.0  0.97360  0.95450  0.60800  1.0000 0.1108066301
H   H64       1.0  0.02640  0.04550  0.10800  1.0000 0.1108066301
H   H65       1.0  0.49640  0.63830  0.15220  1.0000 0.1108066301
H   H66       1.0  0.50360  0.36170  0.65220  1.0000 0.1108066301
H   H67       1.0  0.99640  0.86170  0.65220  1.0000 0.1108066301
H   H68       1.0  0.00360  0.13830  0.15220  1.0000 0.1108066301
H   H69       1.0  0.51370  0.68870  0.22550  1.0000 0.1200158884
H   H70       1.0  0.48630  0.31130  0.72550  1.0000 0.1200158884
H   H71       1.0  0.01370  0.81130  0.72550  1.0000 0.1200158884
H   H72       1.0  0.98630  0.18870  0.22550  1.0000 0.1200158884
H   H73       1.0  0.00620  0.48510  0.39750  1.0000 0.1200158884
H   H74       1.0  0.99380  0.51490  0.89750  1.0000 0.1200158884
H   H75       1.0  0.50620  0.01490  0.89750  1.0000 0.1200158884
H   H76       1.0  0.49380  0.98510  0.39750  1.0000 0.1200158884
H   H77       1.0  0.98590  0.53880  0.46920  1.0000 0.1200158884
H   H78       1.0  0.01410  0.46120  0.96920  1.0000 0.1200158884
H   H79       1.0  0.48590  0.96120  0.96920  1.0000 0.1200158884
H   H80       1.0  0.51410  0.03880  0.46920  1.0000 0.1200158884
H   H81       1.0  0.97280  0.63540  0.51250  1.0000 0.1108066301
H   H82       1.0  0.02720  0.36460  0.01250  1.0000 0.1108066301
H   H83       1.0  0.47280  0.86460  0.01250  1.0000 0.1108066301
H   H84       1.0  0.52720  0.13540  0.51250  1.0000 0.1108066301
H   H85       1.0  0.98090  0.74620  0.48080  1.0000 0.1108066301
H   H86       1.0  0.01910  0.25380  0.98080  1.0000 0.1108066301
H   H87       1.0  0.48090  0.75380  0.98080  1.0000 0.1108066301
H   H88       1.0  0.51910  0.24620  0.48080  1.0000 0.1108066301
H   H89       1.0  0.00190  0.75980  0.40860  1.0000 0.1108066301
H   H90       1.0  0.99810  0.24020  0.90860  1.0000 0.1108066301
H   H91       1.0  0.50190  0.74020  0.90860  1.0000 0.1108066301
H   H92       1.0  0.49810  0.25980  0.40860  1.0000 0.1108066301
H   H93       1.0  0.93660  0.73410  0.30720  1.0000 0.1108066301
H   H94       1.0  0.06340  0.26590  0.80720  1.0000 0.1108066301
H   H95       1.0  0.43660  0.76590  0.80720  1.0000 0.1108066301
H   H96       1.0  0.56340  0.23410  0.30720  1.0000 0.1108066301
H   H97       1.0  0.99780  0.76890  0.34330  1.0000 0.1108066301
H   H98       1.0  0.00220  0.23110  0.84330  1.0000 0.1108066301
H   H99       1.0  0.49780  0.73110  0.84330  1.0000 0.1108066301
H   H100      1.0  0.50220  0.26890  0.34330  1.0000 0.1108066301
H   H101      1.0  0.90850  0.73780  0.24190  1.0000 0.1200158884
H   H102      1.0  0.09150  0.26220  0.74190  1.0000 0.1200158884
H   H103      1.0  0.40850  0.76220  0.74190  1.0000 0.1200158884
H   H104      1.0  0.59150  0.23780  0.24190  1.0000 0.1200158884
H   H105      1.0  0.88000  0.75860  0.17030  1.0000 0.1108066301
H   H106      1.0  0.12000  0.24140  0.67030  1.0000 0.1108066301
H   H107      1.0  0.38000  0.74140  0.67030  1.0000 0.1108066301
H   H108      1.0  0.62000  0.25860  0.17030  1.0000 0.1108066301
H   H109      1.0  0.99800  0.78500  0.12220  1.0000 0.1200158884
H   H110      1.0  0.00200  0.21500  0.62220  1.0000 0.1200158884
H   H111      1.0  0.49800  0.71500  0.62220  1.0000 0.1200158884
H   H112      1.0  0.50200  0.28500  0.12220  1.0000 0.1200158884
H   H113      1.0  0.14600  0.80300  0.14850  1.0000 0.1108066301
H   H114      1.0  0.85400  0.19700  0.64850  1.0000 0.1108066301
H   H115      1.0  0.64600  0.69700  0.64850  1.0000 0.1108066301
H   H116      1.0  0.35400  0.30300  0.14850  1.0000 0.1108066301
H   H117      1.0  0.25480  0.80820  0.20910  1.0000 0.1200158884
H   H118      1.0  0.74520  0.19180  0.70910  1.0000 0.1200158884
H   H119      1.0  0.75480  0.69180  0.70910  1.0000 0.1200158884
H   H120      1.0  0.24520  0.30820  0.20910  1.0000 0.1200158884
H   H121      1.0  0.17130  0.45560  0.13600  1.0000 0.1200158884
H   H122      1.0  0.82870  0.54440  0.63600  1.0000 0.1200158884
H   H123      1.0  0.67130  0.04440  0.63600  1.0000 0.1200158884
H   H124      1.0  0.32870  0.95560  0.13600  1.0000 0.1200158884
H   H125      1.0  0.28230  0.51600  0.08850  1.0000 0.1200158884
H   H126      1.0  0.71770  0.48400  0.58850  1.0000 0.1200158884
H   H127      1.0  0.78230  0.98400  0.58850  1.0000 0.1200158884
H   H128      1.0  0.21770  0.01600  0.08850  1.0000 0.1200158884
H   H129      1.0  0.37890  0.51590  0.03010  1.0000 0.1108066301
H   H130      1.0  0.62110  0.48410  0.53010  1.0000 0.1108066301
H   H131      1.0  0.87890  0.98410  0.53010  1.0000 0.1108066301
H   H132      1.0  0.12110  0.01590  0.03010  1.0000 0.1108066301
H   H133      1.0  0.38540  0.42080  0.98460  1.0000 0.1200158884
H   H134      1.0  0.61460  0.57920  0.48460  1.0000 0.1200158884
H   H135      1.0  0.88540  0.07920  0.48460  1.0000 0.1200158884
H   H136      1.0  0.11460  0.92080  0.98460  1.0000 0.1200158884
H   H137      1.0  0.30490  0.31880  0.00060  1.0000 0.1200158884
H   H138      1.0  0.69510  0.68120  0.50060  1.0000 0.1200158884
H   H139      1.0  0.80490  0.18120  0.50060  1.0000 0.1200158884
H   H140      1.0  0.19510  0.81880  0.00060  1.0000 0.1200158884
H   H141      1.0  0.18950  0.23700  0.00960  1.0000 0.1108066301
H   H142      1.0  0.81050  0.76300  0.50960  1.0000 0.1108066301
H   H143      1.0  0.68950  0.26300  0.50960  1.0000 0.1108066301
H   H144      1.0  0.31050  0.73700  0.00960  1.0000 0.1108066301
H   H145      1.0  0.14780  0.19490  0.04880  1.0000 0.1108066301
H   H146      1.0  0.85220  0.80510  0.54880  1.0000 0.1108066301
H   H147      1.0  0.64780  0.30510  0.54880  1.0000 0.1108066301
H   H148      1.0  0.35220  0.69490  0.04880  1.0000 0.1108066301
H   H149      1.0  0.19850  0.17950  0.12190  1.0000 0.1108066301
H   H150      1.0  0.80150  0.82050  0.62190  1.0000 0.1108066301
H   H151      1.0  0.69850  0.32050  0.62190  1.0000 0.1108066301
H   H152      1.0  0.30150  0.67950  0.12190  1.0000 0.1108066301
H   H153      1.0  0.24700  0.13170  0.18600  1.0000 0.1108066301
H   H154      1.0  0.75300  0.86830  0.68600  1.0000 0.1108066301
H   H155      1.0  0.74700  0.36830  0.68600  1.0000 0.1108066301
H   H156      1.0  0.25300  0.63170  0.18600  1.0000 0.1108066301
H   H157      1.0  0.39200  0.08190  0.19290  1.0000 0.1200158884
H   H158      1.0  0.60800  0.91810  0.69290  1.0000 0.1200158884
H   H159      1.0  0.89200  0.41810  0.69290  1.0000 0.1200158884
H   H160      1.0  0.10800  0.58190  0.19290  1.0000 0.1200158884
H   H161      1.0  0.48730  0.07220  0.13350  1.0000 0.1200158884
H   H162      1.0  0.51270  0.92780  0.63350  1.0000 0.1200158884
H   H163      1.0  0.98730  0.42780  0.63350  1.0000 0.1200158884
H   H164      1.0  0.01270  0.57220  0.13350  1.0000 0.1200158884
H   H165      1.0  0.51830  0.09900  0.05570  1.0000 0.1200158884
H   H166      1.0  0.48170  0.90100  0.55570  1.0000 0.1200158884
H   H167      1.0  0.01830  0.40100  0.55570  1.0000 0.1200158884
H   H168      1.0  0.98170  0.59900  0.05570  1.0000 0.1200158884
C   C1        1.0  0.81840  0.36360  0.33488  1.0000 0.6664576453
C   C2        1.0  0.18160  0.63640  0.83488  1.0000 0.6664576453
C   C3        1.0  0.31840  0.13640  0.83488  1.0000 0.6664576453
C   C4        1.0  0.68160  0.86360  0.33488  1.0000 0.6664576453
C   C5        1.0  0.72260  0.38230  0.34869  1.0000 -0.1584191176
C   C6        1.0  0.27740  0.61770  0.84869  1.0000 -0.1584191176
C   C7        1.0  0.22260  0.11770  0.84869  1.0000 -0.1584191176
C   C8        1.0  0.77740  0.88230  0.34869  1.0000 -0.1584191176
C   C9        1.0  0.70030  0.37930  0.39183  1.0000 -0.1391728303
C   C10       1.0  0.29970  0.62070  0.89183  1.0000 -0.1391728303
C   C11       1.0  0.20030  0.12070  0.89183  1.0000 -0.1391728303
C   C12       1.0  0.79970  0.87930  0.39183  1.0000 -0.1391728303
C   C13       1.0  0.61130  0.39460  0.40763  1.0000 0.0496733084
C   C14       1.0  0.38870  0.60540  0.90763  1.0000 0.0496733084
C   C15       1.0  0.11130  0.10540  0.90763  1.0000 0.0496733084
C   C16       1.0  0.88870  0.89460  0.40763  1.0000 0.0496733084
C   C17       1.0  0.58960  0.39100  0.45284  1.0000 -0.1391728303
C   C18       1.0  0.41040  0.60900  0.95284  1.0000 -0.1391728303
C   C19       1.0  0.08960  0.10900  0.95284  1.0000 -0.1391728303
C   C20       1.0  0.91040  0.89100  0.45284  1.0000 -0.1391728303
C   C21       1.0  0.50250  0.40030  0.46760  1.0000 -0.1093902088
C   C22       1.0  0.49750  0.59970  0.96760  1.0000 -0.1093902088
C   C23       1.0  0.00250  0.09970  0.96760  1.0000 -0.1093902088
C   C24       1.0  0.99750  0.90030  0.46760  1.0000 -0.1093902088
C   C25       1.0  0.43130  0.41520  0.43720  1.0000 -0.09188021
C   C26       1.0  0.56870  0.58480  0.93720  1.0000 -0.09188021
C   C27       1.0  0.93130  0.08480  0.93720  1.0000 -0.09188021
C   C28       1.0  0.06870  0.91520  0.43720  1.0000 -0.09188021
C   C29       1.0  0.44780  0.42200  0.39420  1.0000 -0.1283831622
C   C30       1.0  0.55220  0.57800  0.89420  1.0000 -0.1283831622
C   C31       1.0  0.94780  0.07800  0.89420  1.0000 -0.1283831622
C   C32       1.0  0.05220  0.92200  0.39420  1.0000 -0.1283831622
C   C33       1.0  0.54040  0.41276  0.37682  1.0000 0.0496733084
C   C34       1.0  0.45960  0.58724  0.87682  1.0000 0.0496733084
C   C35       1.0  0.04040  0.08724  0.87682  1.0000 0.0496733084
C   C36       1.0  0.95960  0.91276  0.37682  1.0000 0.0496733084
C   C37       1.0  0.56390  0.41898  0.33204  1.0000 -0.0317561657
C   C38       1.0  0.43610  0.58102  0.83204  1.0000 -0.0317561657
C   C39       1.0  0.06390  0.08102  0.83204  1.0000 -0.0317561657
C   C40       1.0  0.93610  0.91898  0.33204  1.0000 -0.0317561657
C   C41       1.0  0.65250  0.40324  0.31831  1.0000 0.2102703172
C   C42       1.0  0.34750  0.59676  0.81831  1.0000 0.2102703172
C   C43       1.0  0.15250  0.09676  0.81831  1.0000 0.2102703172
C   C44       1.0  0.84750  0.90324  0.31831  1.0000 0.2102703172
C   C45       1.0  0.49040  0.43850  0.29748  1.0000 -0.2524755376
C   C46       1.0  0.50960  0.56150  0.79748  1.0000 -0.2524755376
C   C47       1.0  0.99040  0.06150  0.79748  1.0000 -0.2524755376
C   C48       1.0  0.00960  0.93850  0.29748  1.0000 -0.2524755376
C   C49       1.0  0.50180  0.50960  0.27602  1.0000 -0.0317561657
C   C50       1.0  0.49820  0.49040  0.77602  1.0000 -0.0317561657
C   C51       1.0  0.00180  0.99040  0.77602  1.0000 -0.0317561657
C   C52       1.0  0.99820  0.00960  0.27602  1.0000 -0.0317561657
C   C53       1.0  0.49630  0.51670  0.22922  1.0000 0.0496733084
C   C54       1.0  0.50370  0.48330  0.72922  1.0000 0.0496733084
C   C55       1.0  0.99630  0.98330  0.72922  1.0000 0.0496733084
C   C56       1.0  0.00370  0.01670  0.22922  1.0000 0.0496733084
C   C57       1.0  0.48560  0.46070  0.20067  1.0000 -0.1283831622
C   C58       1.0  0.51440  0.53930  0.70067  1.0000 -0.1283831622
C   C59       1.0  0.98560  0.03930  0.70067  1.0000 -0.1283831622
C   C60       1.0  0.01440  0.96070  0.20067  1.0000 -0.1283831622
C   C61       1.0  0.47650  0.47190  0.15630  1.0000 -0.1093902088
C   C62       1.0  0.52350  0.52810  0.65630  1.0000 -0.1093902088
C   C63       1.0  0.97650  0.02810  0.65630  1.0000 -0.1093902088
C   C64       1.0  0.02350  0.97190  0.15630  1.0000 -0.1093902088
C   C65       1.0  0.48000  0.53910  0.13790  1.0000 -0.1001200772
C   C66       1.0  0.52000  0.46090  0.63790  1.0000 -0.1001200772
C   C67       1.0  0.98000  0.96090  0.63790  1.0000 -0.1001200772
C   C68       1.0  0.02000  0.03910  0.13790  1.0000 -0.1001200772
C   C69       1.0  0.49250  0.59380  0.16436  1.0000 -0.1391728303
C   C70       1.0  0.50750  0.40620  0.66436  1.0000 -0.1391728303
C   C71       1.0  0.99250  0.90620  0.66436  1.0000 -0.1391728303
C   C72       1.0  0.00750  0.09380  0.16436  1.0000 -0.1391728303
C   C73       1.0  0.50030  0.58640  0.21097  1.0000 0.0701505166
C   C74       1.0  0.49970  0.41360  0.71097  1.0000 0.0701505166
C   C75       1.0  0.00030  0.91360  0.71097  1.0000 0.0701505166
C   C76       1.0  0.99970  0.08640  0.21097  1.0000 0.0701505166
C   C77       1.0  0.51040  0.64430  0.23788  1.0000 -0.1500606428
C   C78       1.0  0.48960  0.35570  0.73788  1.0000 -0.1500606428
C   C79       1.0  0.01040  0.85570  0.73788  1.0000 -0.1500606428
C   C80       1.0  0.98960  0.14430  0.23788  1.0000 -0.1500606428
C   C81       1.0  0.51570  0.63740  0.28273  1.0000 -0.1584191176
C   C82       1.0  0.48430  0.36260  0.78273  1.0000 -0.1584191176
C   C83       1.0  0.01570  0.86260  0.78273  1.0000 -0.1584191176
C   C84       1.0  0.98430  0.13740  0.28273  1.0000 -0.1584191176
C   C85       1.0  0.50830  0.56910  0.30148  1.0000 0.2245647234
C   C86       1.0  0.49170  0.43090  0.80148  1.0000 0.2245647234
C   C87       1.0  0.00830  0.93090  0.80148  1.0000 0.2245647234
C   C88       1.0  0.99170  0.06910  0.30148  1.0000 0.2245647234
C   C89       1.0  0.52280  0.70110  0.31024  1.0000 0.6533433569
C   C90       1.0  0.47720  0.29890  0.81024  1.0000 0.6533433569
C   C91       1.0  0.02280  0.79890  0.81024  1.0000 0.6533433569
C   C92       1.0  0.97720  0.20110  0.31024  1.0000 0.6533433569
C   C93       1.0  0.01100  0.46920  0.31272  1.0000 0.661462113
C   C94       1.0  0.98900  0.53080  0.81272  1.0000 0.661462113
C   C95       1.0  0.51100  0.03080  0.81272  1.0000 0.661462113
C   C96       1.0  0.48900  0.96920  0.31272  1.0000 0.661462113
C   C97       1.0  0.00980  0.53420  0.33950  1.0000 -0.165782966
C   C98       1.0  0.99020  0.46580  0.83950  1.0000 -0.165782966
C   C99       1.0  0.50980  0.96580  0.83950  1.0000 -0.165782966
C   C100      1.0  0.49020  0.03420  0.33950  1.0000 -0.165782966
C   C101      1.0  0.00550  0.52920  0.38457  1.0000 -0.1391728303
C   C102      1.0  0.99450  0.47080  0.88457  1.0000 -0.1391728303
C   C103      1.0  0.50550  0.97080  0.88457  1.0000 -0.1391728303
C   C104      1.0  0.49450  0.02920  0.38457  1.0000 -0.1391728303
C   C105      1.0  0.00010  0.58820  0.41110  1.0000 0.0600590256
C   C106      1.0  0.99990  0.41180  0.91110  1.0000 0.0600590256
C   C107      1.0  0.50010  0.91180  0.91110  1.0000 0.0600590256
C   C108      1.0  0.49990  0.08820  0.41110  1.0000 0.0600590256
C   C109      1.0  0.98850  0.58300  0.45650  1.0000 -0.1283831622
C   C110      1.0  0.01150  0.41700  0.95650  1.0000 -0.1283831622
C   C111      1.0  0.48850  0.91700  0.95650  1.0000 -0.1283831622
C   C112      1.0  0.51150  0.08300  0.45650  1.0000 -0.1283831622
C   C113      1.0  0.98100  0.64020  0.48250  1.0000 -0.1001200772
C   C114      1.0  0.01900  0.35980  0.98250  1.0000 -0.1001200772
C   C115      1.0  0.48100  0.85980  0.98250  1.0000 -0.1001200772
C   C116      1.0  0.51900  0.14020  0.48250  1.0000 -0.1001200772
C   C117      1.0  0.98580  0.70670  0.46320  1.0000 -0.09188021
C   C118      1.0  0.01420  0.29330  0.96320  1.0000 -0.09188021
C   C119      1.0  0.48580  0.79330  0.96320  1.0000 -0.09188021
C   C120      1.0  0.51420  0.20670  0.46320  1.0000 -0.09188021
C   C121      1.0  0.99720  0.71470  0.41990  1.0000 -0.1391728303
C   C122      1.0  0.00280  0.28530  0.91990  1.0000 -0.1391728303
C   C123      1.0  0.49720  0.78530  0.91990  1.0000 -0.1391728303
C   C124      1.0  0.50280  0.21470  0.41990  1.0000 -0.1391728303
C   C125      1.0  0.00250  0.65610  0.39040  1.0000 0.0496733084
C   C126      1.0  0.99750  0.34390  0.89040  1.0000 0.0496733084
C   C127      1.0  0.50250  0.84390  0.89040  1.0000 0.0496733084
C   C128      1.0  0.49750  0.15610  0.39040  1.0000 0.0496733084
C   C129      1.0  0.00520  0.66280  0.34423  1.0000 -0.0317561657
C   C130      1.0  0.99480  0.33720  0.84423  1.0000 -0.0317561657
C   C131      1.0  0.50520  0.83720  0.84423  1.0000 -0.0317561657
C   C132      1.0  0.49480  0.16280  0.34423  1.0000 -0.0317561657
C   C133      1.0  0.00630  0.60120  0.31968  1.0000 0.226900689
C   C134      1.0  0.99370  0.39880  0.81968  1.0000 0.226900689
C   C135      1.0  0.50630  0.89880  0.81968  1.0000 0.226900689
C   C136      1.0  0.49370  0.10120  0.31968  1.0000 0.226900689
C   C137      1.0  0.99700  0.73250  0.32113  1.0000 -0.2600907016
C   C138      1.0  0.00300  0.26750  0.82113  1.0000 -0.2600907016
C   C139      1.0  0.49700  0.76750  0.82113  1.0000 -0.2600907016
C   C140      1.0  0.50300  0.23250  0.32113  1.0000 -0.2600907016
C   C141      1.0  0.06870  0.75120  0.28706  1.0000 -0.0384693875
C   C142      1.0  0.93130  0.24880  0.78706  1.0000 -0.0384693875
C   C143      1.0  0.56870  0.74880  0.78706  1.0000 -0.0384693875
C   C144      1.0  0.43130  0.25120  0.28706  1.0000 -0.0384693875
C   C145      1.0  0.04750  0.76070  0.24187  1.0000 0.0427230072
C   C146      1.0  0.95250  0.23930  0.74187  1.0000 0.0427230072
C   C147      1.0  0.54750  0.73930  0.74187  1.0000 0.0427230072
C   C148      1.0  0.45250  0.26070  0.24187  1.0000 0.0427230072
C   C149      1.0  0.95700  0.75160  0.22380  1.0000 -0.1283831622
C   C150      1.0  0.04300  0.24840  0.72380  1.0000 -0.1283831622
C   C151      1.0  0.45700  0.74840  0.72380  1.0000 -0.1283831622
C   C152      1.0  0.54300  0.25160  0.22380  1.0000 -0.1283831622
C   C153      1.0  0.94040  0.76280  0.18070  1.0000 -0.1001200772
C   C154      1.0  0.05960  0.23720  0.68070  1.0000 -0.1001200772
C   C155      1.0  0.44040  0.73720  0.68070  1.0000 -0.1001200772
C   C156      1.0  0.55960  0.26280  0.18070  1.0000 -0.1001200772
C   C157      1.0  0.01050  0.78010  0.15190  1.0000 -0.1093902088
C   C158      1.0  0.98950  0.21990  0.65190  1.0000 -0.1093902088
C   C159      1.0  0.51050  0.71990  0.65190  1.0000 -0.1093902088
C   C160      1.0  0.48950  0.28010  0.15190  1.0000 -0.1093902088
C   C161      1.0  0.09870  0.79010  0.16753  1.0000 -0.1283831622
C   C162      1.0  0.90130  0.20990  0.66753  1.0000 -0.1283831622
C   C163      1.0  0.59870  0.70990  0.66753  1.0000 -0.1283831622
C   C164      1.0  0.40130  0.29010  0.16753  1.0000 -0.1283831622
C   C165      1.0  0.11770  0.78090  0.21223  1.0000 0.0496733084
C   C166      1.0  0.88230  0.21910  0.71223  1.0000 0.0496733084
C   C167      1.0  0.61770  0.71910  0.71223  1.0000 0.0496733084
C   C168      1.0  0.38230  0.28090  0.21223  1.0000 0.0496733084
C   C169      1.0  0.20830  0.79400  0.22826  1.0000 -0.1500606428
C   C170      1.0  0.79170  0.20600  0.72826  1.0000 -0.1500606428
C   C171      1.0  0.70830  0.70600  0.72826  1.0000 -0.1500606428
C   C172      1.0  0.29170  0.29400  0.22826  1.0000 -0.1500606428
C   C173      1.0  0.22760  0.78600  0.27157  1.0000 -0.1500606428
C   C174      1.0  0.77240  0.21400  0.77157  1.0000 -0.1500606428
C   C175      1.0  0.72760  0.71400  0.77157  1.0000 -0.1500606428
C   C176      1.0  0.27240  0.28600  0.27157  1.0000 -0.1500606428
C   C177      1.0  0.15750  0.76550  0.30157  1.0000 0.2102703172
C   C178      1.0  0.84250  0.23450  0.80157  1.0000 0.2102703172
C   C179      1.0  0.65750  0.73450  0.80157  1.0000 0.2102703172
C   C180      1.0  0.34250  0.26550  0.30157  1.0000 0.2102703172
C   C181      1.0  0.32560  0.80360  0.28667  1.0000 0.661462113
C   C182      1.0  0.67440  0.19640  0.78667  1.0000 0.661462113
C   C183      1.0  0.82560  0.69640  0.78667  1.0000 0.661462113
C   C184      1.0  0.17440  0.30360  0.28667  1.0000 0.661462113
C   C185      1.0  0.05950  0.36290  0.16735  1.0000 0.5945792717
C   C186      1.0  0.94050  0.63710  0.66735  1.0000 0.5945792717
C   C187      1.0  0.55950  0.13710  0.66735  1.0000 0.5945792717
C   C188      1.0  0.44050  0.86290  0.16735  1.0000 0.5945792717
C   C189      1.0  0.12030  0.35980  0.12822  1.0000 -0.1500606428
C   C190      1.0  0.87970  0.64020  0.62822  1.0000 -0.1500606428
C   C191      1.0  0.62030  0.14020  0.62822  1.0000 -0.1500606428
C   C192      1.0  0.37970  0.85980  0.12822  1.0000 -0.1500606428
C   C193      1.0  0.17460  0.41610  0.11829  1.0000 -0.1391728303
C   C194      1.0  0.82540  0.58390  0.61829  1.0000 -0.1391728303
C   C195      1.0  0.67460  0.08390  0.61829  1.0000 -0.1391728303
C   C196      1.0  0.32540  0.91610  0.11829  1.0000 -0.1391728303
C   C197      1.0  0.23520  0.41710  0.08250  1.0000 0.0496733084
C   C198      1.0  0.76480  0.58290  0.58250  1.0000 0.0496733084
C   C199      1.0  0.73520  0.08290  0.58250  1.0000 0.0496733084
C   C200      1.0  0.26480  0.91710  0.08250  1.0000 0.0496733084
C   C201      1.0  0.28680  0.47600  0.07130  1.0000 -0.1391728303
C   C202      1.0  0.71320  0.52400  0.57130  1.0000 -0.1391728303
C   C203      1.0  0.78680  0.02400  0.57130  1.0000 -0.1391728303
C   C204      1.0  0.21320  0.97600  0.07130  1.0000 -0.1391728303
C   C205      1.0  0.34340  0.47650  0.03620  1.0000 -0.1093902088
C   C206      1.0  0.65660  0.52350  0.53620  1.0000 -0.1093902088
C   C207      1.0  0.84340  0.02350  0.53620  1.0000 -0.1093902088
C   C208      1.0  0.15660  0.97650  0.03620  1.0000 -0.1093902088
C   C209      1.0  0.34850  0.41890  0.00950  1.0000 -0.1001200772
C   C210      1.0  0.65150  0.58110  0.50950  1.0000 -0.1001200772
C   C211      1.0  0.84850  0.08110  0.50950  1.0000 -0.1001200772
C   C212      1.0  0.15150  0.91890  0.00950  1.0000 -0.1001200772
C   C213      1.0  0.29980  0.35750  0.01888  1.0000 -0.1391728303
C   C214      1.0  0.70020  0.64250  0.51888  1.0000 -0.1391728303
C   C215      1.0  0.79980  0.14250  0.51888  1.0000 -0.1391728303
C   C216      1.0  0.20020  0.85750  0.01888  1.0000 -0.1391728303
C   C217      1.0  0.24280  0.35460  0.05638  1.0000 0.0427230072
C   C218      1.0  0.75720  0.64540  0.55638  1.0000 0.0427230072
C   C219      1.0  0.74280  0.14540  0.55638  1.0000 0.0427230072
C   C220      1.0  0.25720  0.85460  0.05638  1.0000 0.0427230072
C   C221      1.0  0.18760  0.29430  0.06657  1.0000 -0.0317561657
C   C222      1.0  0.81240  0.70570  0.56657  1.0000 -0.0317561657
C   C223      1.0  0.68760  0.20570  0.56657  1.0000 -0.0317561657
C   C224      1.0  0.31240  0.79430  0.06657  1.0000 -0.0317561657
C   C225      1.0  0.12370  0.29980  0.10054  1.0000 0.2102703172
C   C226      1.0  0.87630  0.70020  0.60054  1.0000 0.2048557264
C   C227      1.0  0.62370  0.20020  0.60054  1.0000 0.2102703172
C   C228      1.0  0.37630  0.79980  0.10054  1.0000 0.2102703172
C   C229      1.0  0.19760  0.22620  0.04035  1.0000 -0.2600907016
C   C230      1.0  0.80240  0.77380  0.54035  1.0000 -0.2600907016
C   C231      1.0  0.69760  0.27380  0.54035  1.0000 -0.2600907016
C   C232      1.0  0.30240  0.72620  0.04035  1.0000 -0.2600907016
C   C233      1.0  0.28790  0.18800  0.04566  1.0000 -0.0384693875
C   C234      1.0  0.71210  0.81200  0.54566  1.0000 -0.0384693875
C   C235      1.0  0.78790  0.31200  0.54566  1.0000 -0.0384693875
C   C236      1.0  0.21210  0.68800  0.04566  1.0000 -0.0384693875
C   C237      1.0  0.31550  0.15830  0.08638  1.0000 0.0321034861
C   C238      1.0  0.68450  0.84170  0.58638  1.0000 0.0321034861
C   C239      1.0  0.81550  0.34170  0.58638  1.0000 0.0321034861
C   C240      1.0  0.18450  0.65830  0.08638  1.0000 0.0321034861
C   C241      1.0  0.25700  0.15920  0.12366  1.0000 -0.1500606428
C   C242      1.0  0.74300  0.84080  0.62366  1.0000 -0.1500606428
C   C243      1.0  0.75700  0.34080  0.62366  1.0000 -0.1500606428
C   C244      1.0  0.24300  0.65920  0.12366  1.0000 -0.1500606428
C   C245      1.0  0.28620  0.13060  0.16185  1.0000 -0.09188021
C   C246      1.0  0.71380  0.86940  0.66185  1.0000 -0.09188021
C   C247      1.0  0.78620  0.36940  0.66185  1.0000 -0.09188021
C   C248      1.0  0.21380  0.63060  0.16185  1.0000 -0.09188021
C   C249      1.0  0.37310  0.09950  0.16596  1.0000 -0.09188021
C   C250      1.0  0.62690  0.90050  0.66596  1.0000 -0.09188021
C   C251      1.0  0.87310  0.40050  0.66596  1.0000 -0.09188021
C   C252      1.0  0.12690  0.59950  0.16596  1.0000 -0.09188021
C   C253      1.0  0.43040  0.09470  0.13090  1.0000 -0.1391728303
C   C254      1.0  0.56960  0.90530  0.63090  1.0000 -0.1391728303
C   C255      1.0  0.93040  0.40530  0.63090  1.0000 -0.1391728303
C   C256      1.0  0.06960  0.59470  0.13090  1.0000 -0.1391728303
C   C257      1.0  0.40300  0.12410  0.09004  1.0000 0.0496733084
C   C258      1.0  0.59700  0.87590  0.59004  1.0000 0.0496733084
C   C259      1.0  0.90300  0.37590  0.59004  1.0000 0.0496733084
C   C260      1.0  0.09700  0.62410  0.09004  1.0000 0.0496733084
C   C261      1.0  0.46040  0.12010  0.05303  1.0000 -0.1500606428
C   C262      1.0  0.53960  0.87990  0.55303  1.0000 -0.1500606428
C   C263      1.0  0.96040  0.37990  0.55303  1.0000 -0.1500606428
C   C264      1.0  0.03960  0.62010  0.05303  1.0000 -0.1500606428
C   C265      1.0  0.43420  0.14610  0.01337  1.0000 -0.1391728303
C   C266      1.0  0.56580  0.85390  0.51337  1.0000 -0.1391728303
C   C267      1.0  0.93420  0.35390  0.51337  1.0000 -0.1391728303
C   C268      1.0  0.06580  0.64610  0.01337  1.0000 -0.1391728303
C   C269      1.0  0.34690  0.18010  0.00965  1.0000 0.2048557264
C   C270      1.0  0.65310  0.81990  0.50965  1.0000 0.2048557264
C   C271      1.0  0.84690  0.31990  0.50965  1.0000 0.2048557264
C   C272      1.0  0.15310  0.68010  0.00965  1.0000 0.2048557264
C   C273      1.0  0.50020  0.13680  0.97579  1.0000 0.6122172696
C   C274      1.0  0.49980  0.86320  0.47579  1.0000 0.6122172696
C   C275      1.0  0.00020  0.36320  0.47579  1.0000 0.6122172696
C   C276      1.0  0.99980  0.63680  0.97579  1.0000 0.6122172696
O   O1        1.0  0.84146  0.37794  0.29536  1.0000 -0.7094997245
O   O2        1.0  0.15854  0.62206  0.79536  1.0000 -0.7094997245
O   O3        1.0  0.34146  0.12206  0.79536  1.0000 -0.7094997245
O   O4        1.0  0.65854  0.87794  0.29536  1.0000 -0.7094997245
O   O5        1.0  0.87090  0.33428  0.36247  1.0000 -0.6357458013
O   O6        1.0  0.12910  0.66572  0.86247  1.0000 -0.6357458013
O   O7        1.0  0.37090  0.16572  0.86247  1.0000 -0.6357458013
O   O8        1.0  0.62910  0.83428  0.36247  1.0000 -0.6357458013
O   O9        1.0  0.67140  0.40855  0.27474  1.0000 -0.413968541
O   O10       1.0  0.32860  0.59145  0.77474  1.0000 -0.413968541
O   O11       1.0  0.17140  0.09145  0.77474  1.0000 -0.413968541
O   O12       1.0  0.82860  0.90855  0.27474  1.0000 -0.413968541
O   O13       1.0  0.51840  0.69554  0.35140  1.0000 -0.646487512
O   O14       1.0  0.48160  0.30446  0.85140  1.0000 -0.646487512
O   O15       1.0  0.01840  0.80446  0.85140  1.0000 -0.646487512
O   O16       1.0  0.98160  0.19554  0.35140  1.0000 -0.646487512
O   O17       1.0  0.52758  0.76124  0.29330  1.0000 -0.7317373035
O   O18       1.0  0.47242  0.23876  0.79330  1.0000 -0.7317373035
O   O19       1.0  0.02758  0.73876  0.79330  1.0000 -0.7317373035
O   O20       1.0  0.97242  0.26124  0.29330  1.0000 -0.7317373035
O   O21       1.0  0.50580  0.56104  0.34517  1.0000 -0.4237423989
O   O22       1.0  0.49420  0.43896  0.84517  1.0000 -0.4237423989
O   O23       1.0  0.00580  0.93896  0.84517  1.0000 -0.4237423989
O   O24       1.0  0.99420  0.06104  0.34517  1.0000 -0.4237423989
O   O25       1.0  0.57460  0.10950  0.98081  1.0000 -0.4912576902
O   O26       1.0  0.42540  0.89050  0.48081  1.0000 -0.4912576902
O   O27       1.0  0.07460  0.39050  0.48081  1.0000 -0.4912576902
O   O28       1.0  0.92540  0.60950  0.98081  1.0000 -0.4912576902
O   O29       1.0  0.47050  0.16060  0.93828  1.0000 -0.7317373035
O   O30       1.0  0.52950  0.83940  0.43828  1.0000 -0.7317373035
O   O31       1.0  0.97050  0.33940  0.43828  1.0000 -0.7317373035
O   O32       1.0  0.02950  0.66060  0.93828  1.0000 -0.7317373035
O   O33       1.0  0.31840  0.20670  0.97004  1.0000 -0.4372540119
O   O34       1.0  0.68160  0.79330  0.47004  1.0000 -0.4372540119
O   O35       1.0  0.81840  0.29330  0.47004  1.0000 -0.4372540119
O   O36       1.0  0.18160  0.70670  0.97004  1.0000 -0.4372540119
O   O37       1.0  0.05530  0.41622  0.19032  1.0000 -0.573136248
O   O38       1.0  0.94470  0.58378  0.69032  1.0000 -0.573136248
O   O39       1.0  0.55530  0.08378  0.69032  1.0000 -0.573136248
O   O40       1.0  0.44470  0.91622  0.19032  1.0000 -0.573136248
O   O41       1.0  0.01180  0.30847  0.17735  1.0000 -0.6731936115
O   O42       1.0  0.98820  0.69153  0.67735  1.0000 -0.6731936115
O   O43       1.0  0.51180  0.19153  0.67735  1.0000 -0.6731936115
O   O44       1.0  0.48820  0.80847  0.17735  1.0000 -0.6731936115
O   O45       1.0  0.06600  0.24481  0.10856  1.0000 -0.4308317679
O   O46       1.0  0.93400  0.75519  0.60856  1.0000 -0.4308317679
O   O47       1.0  0.56600  0.25519  0.60856  1.0000 -0.4308317679
O   O48       1.0  0.43400  0.74481  0.10856  1.0000 -0.4308317679
O   O49       1.0  0.37940  0.83027  0.25981  1.0000 -0.6183456259
O   O50       1.0  0.62060  0.16973  0.75981  1.0000 -0.6183456259
O   O51       1.0  0.87940  0.66973  0.75981  1.0000 -0.6183456259
O   O52       1.0  0.12060  0.33027  0.25981  1.0000 -0.6183456259
O   O53       1.0  0.34670  0.79021  0.32651  1.0000 -0.7217946279
O   O54       1.0  0.65330  0.20979  0.82651  1.0000 -0.7217946279
O   O55       1.0  0.84670  0.70979  0.82651  1.0000 -0.7217946279
O   O56       1.0  0.15330  0.29021  0.32651  1.0000 -0.7217946279
O   O57       1.0  0.17460  0.75892  0.34478  1.0000 -0.4049132842
O   O58       1.0  0.82540  0.24108  0.84478  1.0000 -0.4049132842
O   O59       1.0  0.67460  0.74108  0.84478  1.0000 -0.4049132842
O   O60       1.0  0.32540  0.25892  0.34478  1.0000 -0.4049132842
O   O61       1.0  0.02300  0.41057  0.33083  1.0000 -0.7317373035
O   O62       1.0  0.97700  0.58943  0.83083  1.0000 -0.7317373035
O   O63       1.0  0.52300  0.08943  0.83083  1.0000 -0.7317373035
O   O64       1.0  0.47700  0.91057  0.33083  1.0000 -0.7317373035
O   O65       1.0  0.99950  0.47297  0.27189  1.0000 -0.6301551985
O   O66       1.0  0.00050  0.52703  0.77189  1.0000 -0.6301551985
O   O67       1.0  0.49950  0.02703  0.77189  1.0000 -0.6301551985
O   O68       1.0  0.50050  0.97297  0.27189  1.0000 -0.6301551985
O   O69       1.0  0.00580  0.60775  0.27579  1.0000 -0.4372540119
O   O70       1.0  0.99420  0.39225  0.77579  1.0000 -0.4372540119
O   O71       1.0  0.50580  0.89225  0.77579  1.0000 -0.4372540119
O   O72       1.0  0.49420  0.10775  0.27579  1.0000 -0.4372540119
