# DDEC6 charges by PACMAN v1.1 (https://github.com/mtap-research/PACMAN-charge/)
data_2015[Cu][nan]3[ASR]23
_chemical_formula_sum              "Cu6 H6 C24 O18"
_cell_length_a       15.0754
_cell_length_b       15.0754
_cell_length_c       15.0754
_cell_angle_alpha    118.11
_cell_angle_beta     118.11
_cell_angle_gamma    118.11

_symmetry_space_group_name_H-M    "P 1"
_symmetry_Int_Tables_number       1

loop_
  _symmetry_equiv_pos_as_xyz
  'x, y, z'

loop_
  _atom_site_type_symbol
  _atom_site_label
  _atom_site_symmetry_multiplicity
  _atom_site_fract_x
  _atom_site_fract_y
  _atom_site_fract_z
  _atom_site_occupancy
  _atom_site_charge
Cu  Cu1       1.0  0.66960  0.93190  0.35650  1.0000 0.8834398097
Cu  Cu2       1.0  0.93190  0.35650  0.66960  1.0000 0.8834398097
Cu  Cu3       1.0  0.35650  0.66960  0.93190  1.0000 0.8834398097
Cu  Cu4       1.0  0.33040  0.06810  0.64350  1.0000 0.8834398097
Cu  Cu5       1.0  0.06810  0.64350  0.33040  1.0000 0.8834398097
Cu  Cu6       1.0  0.64350  0.33040  0.06810  1.0000 0.8834398097
H   H1        1.0  0.10610  0.66890  0.12700  1.0000 0.144857586
H   H2        1.0  0.66890  0.12700  0.10610  1.0000 0.144857586
H   H3        1.0  0.12700  0.10610  0.66890  1.0000 0.144857586
H   H4        1.0  0.89390  0.33110  0.87300  1.0000 0.144857586
H   H5        1.0  0.33110  0.87300  0.89390  1.0000 0.144857586
H   H6        1.0  0.87300  0.89390  0.33110  1.0000 0.144857586
C   C1        1.0  0.29230  0.71500  0.12270  1.0000 0.5944722002
C   C2        1.0  0.71500  0.12270  0.29230  1.0000 0.5944722002
C   C3        1.0  0.12270  0.29230  0.71500  1.0000 0.5944722002
C   C4        1.0  0.70770  0.28500  0.87730  1.0000 0.5944722002
C   C5        1.0  0.28500  0.87730  0.70770  1.0000 0.5944722002
C   C6        1.0  0.87730  0.70770  0.28500  1.0000 0.5944722002
C   C7        1.0  0.27160  0.81430  0.29010  1.0000 -0.1844062502
C   C8        1.0  0.81430  0.29010  0.27160  1.0000 -0.1844062502
C   C9        1.0  0.29010  0.27160  0.81430  1.0000 -0.1844062502
C   C10       1.0  0.72840  0.18570  0.70990  1.0000 -0.1844062502
C   C11       1.0  0.18570  0.70990  0.72840  1.0000 -0.1844062502
C   C12       1.0  0.70990  0.72840  0.18570  1.0000 -0.1844062502
C   C13       1.0  0.39200  0.86320  0.31280  1.0000 -0.1077008639
C   C14       1.0  0.86320  0.31280  0.39200  1.0000 -0.1077008639
C   C15       1.0  0.31280  0.39200  0.86320  1.0000 -0.1077008639
C   C16       1.0  0.60800  0.13680  0.68720  1.0000 -0.1077008639
C   C17       1.0  0.13680  0.68720  0.60800  1.0000 -0.1077008639
C   C18       1.0  0.68720  0.60800  0.13680  1.0000 -0.1077008639
C   C19       1.0  0.62950  0.05960  0.52690  1.0000 0.2727016167
C   C20       1.0  0.05960  0.52690  0.62950  1.0000 0.2727016167
C   C21       1.0  0.52690  0.62950  0.05960  1.0000 0.2727016167
C   C22       1.0  0.37050  0.94040  0.47310  1.0000 0.2727016167
C   C23       1.0  0.94040  0.47310  0.37050  1.0000 0.2727016167
C   C24       1.0  0.47310  0.37050  0.94040  1.0000 0.2727016167
O   O1        1.0  0.10800  0.58770  0.95130  1.0000 -0.4953776791
O   O2        1.0  0.58770  0.95130  0.10800  1.0000 -0.4953776791
O   O3        1.0  0.95130  0.10800  0.58770  1.0000 -0.4953776791
O   O4        1.0  0.89200  0.41230  0.04870  1.0000 -0.4953776791
O   O5        1.0  0.41230  0.04870  0.89200  1.0000 -0.4953776791
O   O6        1.0  0.04870  0.89200  0.41230  1.0000 -0.4953776791
O   O7        1.0  0.37350  0.71960  0.12090  1.0000 -0.530126134
O   O8        1.0  0.71960  0.12090  0.37350  1.0000 -0.530126134
O   O9        1.0  0.12090  0.37350  0.71960  1.0000 -0.530126134
O   O10       1.0  0.62650  0.28040  0.87910  1.0000 -0.530126134
O   O11       1.0  0.28040  0.87910  0.62650  1.0000 -0.530126134
O   O12       1.0  0.87910  0.62650  0.28040  1.0000 -0.530126134
O   O13       1.0  0.76500  0.12200  0.56900  1.0000 -0.5778602853
O   O14       1.0  0.12200  0.56900  0.76500  1.0000 -0.5778602853
O   O15       1.0  0.56900  0.76500  0.12200  1.0000 -0.5778602853
O   O16       1.0  0.23500  0.87800  0.43100  1.0000 -0.5778602853
O   O17       1.0  0.87800  0.43100  0.23500  1.0000 -0.5778602853
O   O18       1.0  0.43100  0.23500  0.87800  1.0000 -0.5778602853
