# DDEC6 charges by PACMAN v1.1 (https://github.com/mtap-research/PACMAN-charge/)
data_2015[Mn][csq]3[ASR]1
_chemical_formula_sum              "Mn18 H90 C180 O96"
_cell_length_a       28.105
_cell_length_b       28.105
_cell_length_c       14.598
_cell_angle_alpha    90
_cell_angle_beta     90
_cell_angle_gamma    120

_symmetry_space_group_name_H-M    "P 1"
_symmetry_Int_Tables_number       1

loop_
  _symmetry_equiv_pos_as_xyz
  'x, y, z'

loop_
  _atom_site_type_symbol
  _atom_site_label
  _atom_site_symmetry_multiplicity
  _atom_site_fract_x
  _atom_site_fract_y
  _atom_site_fract_z
  _atom_site_occupancy
  _atom_site_charge
Mn  Mn1       1.0  0.31173  0.15587  0.02518  1.0000 1.1245114496
Mn  Mn2       1.0  0.84414  0.15587  0.02518  1.0000 1.1251067808
Mn  Mn3       1.0  0.84414  0.68827  0.02518  1.0000 1.1251067808
Mn  Mn4       1.0  0.15587  0.31173  0.97482  1.0000 1.1251067808
Mn  Mn5       1.0  0.68827  0.84414  0.97482  1.0000 1.1245114496
Mn  Mn6       1.0  0.15587  0.84414  0.97482  1.0000 1.1251067808
Mn  Mn7       1.0  0.45173  0.22587  0.93261  1.0000 1.0598410855
Mn  Mn8       1.0  0.77414  0.22587  0.93261  1.0000 1.0598410855
Mn  Mn9       1.0  0.77414  0.54827  0.93261  1.0000 1.0598410855
Mn  Mn10      1.0  0.22587  0.45173  0.06739  1.0000 1.0598410855
Mn  Mn11      1.0  0.54827  0.77414  0.06739  1.0000 1.0598410855
Mn  Mn12      1.0  0.22587  0.77414  0.06739  1.0000 1.0598410855
Mn  Mn13      1.0  0.42118  0.21059  0.18607  1.0000 1.0817512363
Mn  Mn14      1.0  0.78941  0.21059  0.18607  1.0000 1.0817512363
Mn  Mn15      1.0  0.78941  0.57882  0.18607  1.0000 1.0817512363
Mn  Mn16      1.0  0.21059  0.42118  0.81393  1.0000 1.0817512363
Mn  Mn17      1.0  0.57882  0.78941  0.81393  1.0000 1.0817512363
Mn  Mn18      1.0  0.21059  0.78941  0.81393  1.0000 1.0817512363
H   H1        1.0  0.41300  0.31980  0.74550  1.0000 0.1397324249
H   H2        1.0  0.68020  0.09320  0.74550  1.0000 0.1397324249
H   H3        1.0  0.90680  0.58700  0.74550  1.0000 0.1397324249
H   H4        1.0  0.31980  0.41300  0.25450  1.0000 0.1397324249
H   H5        1.0  0.58700  0.90680  0.25450  1.0000 0.1397324249
H   H6        1.0  0.09320  0.68020  0.25450  1.0000 0.1397324249
H   H7        1.0  0.58700  0.68020  0.25450  1.0000 0.1397324249
H   H8        1.0  0.31980  0.90680  0.25450  1.0000 0.1397324249
H   H9        1.0  0.09320  0.41300  0.25450  1.0000 0.1397324249
H   H10       1.0  0.68020  0.58700  0.74550  1.0000 0.1397324249
H   H11       1.0  0.41300  0.09320  0.74550  1.0000 0.1397324249
H   H12       1.0  0.90680  0.31980  0.74550  1.0000 0.1397324249
H   H13       1.0  0.31280  0.38010  0.69020  1.0000 0.1294473512
H   H14       1.0  0.61990  0.93270  0.69020  1.0000 0.1294473512
H   H15       1.0  0.06730  0.68720  0.69020  1.0000 0.1294473512
H   H16       1.0  0.38010  0.31280  0.30980  1.0000 0.1294473512
H   H17       1.0  0.68720  0.06730  0.30980  1.0000 0.1294473512
H   H18       1.0  0.93270  0.61990  0.30980  1.0000 0.1294473512
H   H19       1.0  0.68720  0.61990  0.30980  1.0000 0.1294473512
H   H20       1.0  0.38010  0.06730  0.30980  1.0000 0.1294473512
H   H21       1.0  0.93270  0.31280  0.30980  1.0000 0.1294473512
H   H22       1.0  0.61990  0.68720  0.69020  1.0000 0.1294473512
H   H23       1.0  0.31280  0.93270  0.69020  1.0000 0.1294473512
H   H24       1.0  0.06730  0.38010  0.69020  1.0000 0.1294473512
H   H25       1.0  0.27380  0.26930  0.88730  1.0000 0.1397324249
H   H26       1.0  0.73070  0.00450  0.88730  1.0000 0.1397324249
H   H27       1.0  0.99550  0.72620  0.88730  1.0000 0.1397324249
H   H28       1.0  0.26930  0.27380  0.11270  1.0000 0.1397324249
H   H29       1.0  0.72620  0.99550  0.11270  1.0000 0.1397324249
H   H30       1.0  0.00450  0.73070  0.11270  1.0000 0.1397324249
H   H31       1.0  0.72620  0.73070  0.11270  1.0000 0.1397324249
H   H32       1.0  0.26930  0.99550  0.11270  1.0000 0.1397324249
H   H33       1.0  0.00450  0.27380  0.11270  1.0000 0.1397324249
H   H34       1.0  0.73070  0.72620  0.88730  1.0000 0.1397324249
H   H35       1.0  0.27380  0.00450  0.88730  1.0000 0.1397324249
H   H36       1.0  0.99550  0.26930  0.88730  1.0000 0.1397324249
H   H37       1.0  0.38680  0.44390  0.63080  1.0000 0.1030812899
H   H38       1.0  0.55610  0.94290  0.63080  1.0000 0.1030812899
H   H39       1.0  0.05710  0.61320  0.63080  1.0000 0.1030812899
H   H40       1.0  0.44390  0.38680  0.36920  1.0000 0.1030812899
H   H41       1.0  0.61320  0.05710  0.36920  1.0000 0.1030812899
H   H42       1.0  0.94290  0.55610  0.36920  1.0000 0.1030812899
H   H43       1.0  0.61320  0.55610  0.36920  1.0000 0.1030812899
H   H44       1.0  0.44390  0.05710  0.36920  1.0000 0.1030812899
H   H45       1.0  0.94290  0.38680  0.36920  1.0000 0.1030812899
H   H46       1.0  0.55610  0.61320  0.63080  1.0000 0.1030812899
H   H47       1.0  0.38680  0.94290  0.63080  1.0000 0.1030812899
H   H48       1.0  0.05710  0.44390  0.63080  1.0000 0.1030812899
H   H49       1.0  0.36920  0.40410  0.54580  1.0000 0.1067117493
H   H50       1.0  0.59590  0.96510  0.54580  1.0000 0.1067117493
H   H51       1.0  0.03490  0.63080  0.54580  1.0000 0.1067117493
H   H52       1.0  0.40410  0.36920  0.45420  1.0000 0.1067117493
H   H53       1.0  0.63080  0.03490  0.45420  1.0000 0.1067117493
H   H54       1.0  0.96510  0.59590  0.45420  1.0000 0.1067117493
H   H55       1.0  0.63080  0.59590  0.45420  1.0000 0.1067117493
H   H56       1.0  0.40410  0.03490  0.45420  1.0000 0.1067117493
H   H57       1.0  0.96510  0.36920  0.45420  1.0000 0.1067117493
H   H58       1.0  0.59590  0.63080  0.54580  1.0000 0.1067117493
H   H59       1.0  0.36920  0.96510  0.54580  1.0000 0.1067117493
H   H60       1.0  0.03490  0.40410  0.54580  1.0000 0.1067117493
H   H61       1.0  0.45720  0.48670  0.71580  1.0000 0.1030812899
H   H62       1.0  0.51330  0.97050  0.71580  1.0000 0.1030812899
H   H63       1.0  0.02950  0.54280  0.71580  1.0000 0.1030812899
H   H64       1.0  0.48670  0.45720  0.28420  1.0000 0.1030812899
H   H65       1.0  0.54280  0.02950  0.28420  1.0000 0.1030812899
H   H66       1.0  0.97050  0.51330  0.28420  1.0000 0.1030812899
H   H67       1.0  0.54280  0.51330  0.28420  1.0000 0.1030812899
H   H68       1.0  0.48670  0.02950  0.28420  1.0000 0.1030812899
H   H69       1.0  0.97050  0.45720  0.28420  1.0000 0.1030812899
H   H70       1.0  0.51330  0.54280  0.71580  1.0000 0.1030812899
H   H71       1.0  0.45720  0.97050  0.71580  1.0000 0.1030812899
H   H72       1.0  0.02950  0.48670  0.71580  1.0000 0.1030812899
H   H73       1.0  0.36460  0.49490  0.77530  1.0000 0.1294473512
H   H74       1.0  0.50510  0.86970  0.77530  1.0000 0.1294473512
H   H75       1.0  0.13030  0.63540  0.77530  1.0000 0.1294473512
H   H76       1.0  0.49490  0.36460  0.22470  1.0000 0.1294473512
H   H77       1.0  0.63540  0.13030  0.22470  1.0000 0.1294473512
H   H78       1.0  0.86970  0.50510  0.22470  1.0000 0.1294473512
H   H79       1.0  0.63540  0.50510  0.22470  1.0000 0.1294473512
H   H80       1.0  0.49490  0.13030  0.22470  1.0000 0.1294473512
H   H81       1.0  0.86970  0.36460  0.22470  1.0000 0.1294473512
H   H82       1.0  0.50510  0.63540  0.77530  1.0000 0.1294473512
H   H83       1.0  0.36460  0.86970  0.77530  1.0000 0.1294473512
H   H84       1.0  0.13030  0.49490  0.77530  1.0000 0.1294473512
H   H85       1.0  0.40270  0.59730  0.98850  1.0000 0.1397324249
H   H86       1.0  0.40270  0.80540  0.98850  1.0000 0.1397324249
H   H87       1.0  0.19460  0.59730  0.98850  1.0000 0.1397324249
H   H88       1.0  0.59730  0.40270  0.01150  1.0000 0.1397324249
H   H89       1.0  0.59730  0.19460  0.01150  1.0000 0.1397324249
H   H90       1.0  0.80540  0.40270  0.01150  1.0000 0.1397324249
C   C1        1.0  0.35980  0.25240  0.87660  1.0000 0.5855659365
C   C2        1.0  0.74760  0.10740  0.87660  1.0000 0.5843300512
C   C3        1.0  0.89260  0.64020  0.87660  1.0000 0.5843300512
C   C4        1.0  0.25240  0.35980  0.12340  1.0000 0.5855659365
C   C5        1.0  0.64020  0.89260  0.12340  1.0000 0.5855659365
C   C6        1.0  0.10740  0.74760  0.12340  1.0000 0.5855659365
C   C7        1.0  0.64020  0.74760  0.12340  1.0000 0.5855659365
C   C8        1.0  0.25240  0.89260  0.12340  1.0000 0.5855659365
C   C9        1.0  0.10740  0.35980  0.12340  1.0000 0.5855659365
C   C10       1.0  0.74760  0.64020  0.87660  1.0000 0.5843300512
C   C11       1.0  0.35980  0.10740  0.87660  1.0000 0.5843300512
C   C12       1.0  0.89260  0.25240  0.87660  1.0000 0.5843300512
C   C13       1.0  0.34500  0.28770  0.82430  1.0000 -0.0190320357
C   C14       1.0  0.71230  0.05730  0.82430  1.0000 -0.0190320357
C   C15       1.0  0.94270  0.65500  0.82430  1.0000 -0.0190320357
C   C16       1.0  0.28770  0.34500  0.17570  1.0000 -0.0190320357
C   C17       1.0  0.65500  0.94270  0.17570  1.0000 -0.0190320357
C   C18       1.0  0.05730  0.71230  0.17570  1.0000 -0.0190320357
C   C19       1.0  0.65500  0.71230  0.17570  1.0000 -0.0190320357
C   C20       1.0  0.28770  0.94270  0.17570  1.0000 -0.0190320357
C   C21       1.0  0.05730  0.34500  0.17570  1.0000 -0.0190320357
C   C22       1.0  0.71230  0.65500  0.82430  1.0000 -0.0190320357
C   C23       1.0  0.34500  0.05730  0.82430  1.0000 -0.0190320357
C   C24       1.0  0.94270  0.28770  0.82430  1.0000 -0.0190320357
C   C25       1.0  0.38100  0.32070  0.75700  1.0000 -0.2011907878
C   C26       1.0  0.67930  0.06030  0.75700  1.0000 -0.2011907878
C   C27       1.0  0.93970  0.61900  0.75700  1.0000 -0.2011907878
C   C28       1.0  0.32070  0.38100  0.24300  1.0000 -0.2011907878
C   C29       1.0  0.61900  0.93970  0.24300  1.0000 -0.2011907878
C   C30       1.0  0.06030  0.67930  0.24300  1.0000 -0.2011907878
C   C31       1.0  0.61900  0.67930  0.24300  1.0000 -0.2011907878
C   C32       1.0  0.32070  0.93970  0.24300  1.0000 -0.2011907878
C   C33       1.0  0.06030  0.38100  0.24300  1.0000 -0.2011907878
C   C34       1.0  0.67930  0.61900  0.75700  1.0000 -0.2011907878
C   C35       1.0  0.38100  0.06030  0.75700  1.0000 -0.2011907878
C   C36       1.0  0.93970  0.32070  0.75700  1.0000 -0.2011907878
C   C37       1.0  0.36890  0.35560  0.70630  1.0000 0.2466091702
C   C38       1.0  0.64440  0.01330  0.70630  1.0000 0.2466091702
C   C39       1.0  0.98670  0.63110  0.70630  1.0000 0.2466091702
C   C40       1.0  0.35560  0.36890  0.29370  1.0000 0.2466091702
C   C41       1.0  0.63110  0.98670  0.29370  1.0000 0.2466091702
C   C42       1.0  0.01330  0.64440  0.29370  1.0000 0.2466091702
C   C43       1.0  0.63110  0.64440  0.29370  1.0000 0.2466091702
C   C44       1.0  0.35560  0.98670  0.29370  1.0000 0.2466091702
C   C45       1.0  0.01330  0.36890  0.29370  1.0000 0.2466091702
C   C46       1.0  0.64440  0.63110  0.70630  1.0000 0.2466091702
C   C47       1.0  0.36890  0.01330  0.70630  1.0000 0.2466091702
C   C48       1.0  0.98670  0.35560  0.70630  1.0000 0.2466091702
C   C49       1.0  0.32140  0.35730  0.72380  1.0000 -0.249038172
C   C50       1.0  0.64270  0.96410  0.72380  1.0000 -0.249038172
C   C51       1.0  0.03590  0.67860  0.72380  1.0000 -0.249038172
C   C52       1.0  0.35730  0.32140  0.27620  1.0000 -0.249038172
C   C53       1.0  0.67860  0.03590  0.27620  1.0000 -0.249038172
C   C54       1.0  0.96410  0.64270  0.27620  1.0000 -0.249038172
C   C55       1.0  0.67860  0.64270  0.27620  1.0000 -0.249038172
C   C56       1.0  0.35730  0.03590  0.27620  1.0000 -0.249038172
C   C57       1.0  0.96410  0.32140  0.27620  1.0000 -0.249038172
C   C58       1.0  0.64270  0.67860  0.72380  1.0000 -0.249038172
C   C59       1.0  0.32140  0.96410  0.72380  1.0000 -0.249038172
C   C60       1.0  0.03590  0.35730  0.72380  1.0000 -0.249038172
C   C61       1.0  0.28670  0.32360  0.79320  1.0000 0.0124670798
C   C62       1.0  0.67640  0.96310  0.79320  1.0000 0.0124670798
C   C63       1.0  0.03690  0.71330  0.79320  1.0000 0.0124670798
C   C64       1.0  0.32360  0.28670  0.20680  1.0000 0.0124670798
C   C65       1.0  0.71330  0.03690  0.20680  1.0000 0.0124670798
C   C66       1.0  0.96310  0.67640  0.20680  1.0000 0.0124670798
C   C67       1.0  0.71330  0.67640  0.20680  1.0000 0.0124670798
C   C68       1.0  0.32360  0.03690  0.20680  1.0000 0.0124670798
C   C69       1.0  0.96310  0.28670  0.20680  1.0000 0.0124670798
C   C70       1.0  0.67640  0.71330  0.79320  1.0000 0.0124670798
C   C71       1.0  0.28670  0.96310  0.79320  1.0000 0.0124670798
C   C72       1.0  0.03690  0.32360  0.79320  1.0000 0.0124670798
C   C73       1.0  0.29780  0.29080  0.84130  1.0000 -0.1077523794
C   C74       1.0  0.70920  0.00700  0.84130  1.0000 -0.1077523794
C   C75       1.0  0.99300  0.70220  0.84130  1.0000 -0.1077523794
C   C76       1.0  0.29080  0.29780  0.15870  1.0000 -0.1077523794
C   C77       1.0  0.70220  0.99300  0.15870  1.0000 -0.1077523794
C   C78       1.0  0.00700  0.70920  0.15870  1.0000 -0.1077523794
C   C79       1.0  0.70220  0.70920  0.15870  1.0000 -0.1077523794
C   C80       1.0  0.29080  0.99300  0.15870  1.0000 -0.1077523794
C   C81       1.0  0.00700  0.29780  0.15870  1.0000 -0.1077523794
C   C82       1.0  0.70920  0.70220  0.84130  1.0000 -0.1077523794
C   C83       1.0  0.29780  0.00700  0.84130  1.0000 -0.1077523794
C   C84       1.0  0.99300  0.29080  0.84130  1.0000 -0.1077523794
C   C85       1.0  0.23510  0.32750  0.81390  1.0000 0.5967843622
C   C86       1.0  0.67250  0.90760  0.81390  1.0000 0.5967843622
C   C87       1.0  0.09240  0.76490  0.81390  1.0000 0.5967843622
C   C88       1.0  0.32750  0.23510  0.18610  1.0000 0.5967843622
C   C89       1.0  0.76490  0.09240  0.18610  1.0000 0.5967843622
C   C90       1.0  0.90760  0.67250  0.18610  1.0000 0.5967843622
C   C91       1.0  0.76490  0.67250  0.18610  1.0000 0.5967843622
C   C92       1.0  0.32750  0.09240  0.18610  1.0000 0.5967843622
C   C93       1.0  0.90760  0.23510  0.18610  1.0000 0.5967843622
C   C94       1.0  0.67250  0.76490  0.81390  1.0000 0.5967843622
C   C95       1.0  0.23510  0.90760  0.81390  1.0000 0.5967843622
C   C96       1.0  0.09240  0.32750  0.81390  1.0000 0.5967843622
C   C97       1.0  0.39790  0.42370  0.59070  1.0000 -0.0822477433
C   C98       1.0  0.57630  0.97420  0.59070  1.0000 -0.0822477433
C   C99       1.0  0.02580  0.60210  0.59070  1.0000 -0.0822477433
C   C100      1.0  0.42370  0.39790  0.40930  1.0000 -0.0822477433
C   C101      1.0  0.60210  0.02580  0.40930  1.0000 -0.0822477433
C   C102      1.0  0.97420  0.57630  0.40930  1.0000 -0.0822477433
C   C103      1.0  0.60210  0.57630  0.40930  1.0000 -0.0822477433
C   C104      1.0  0.42370  0.02580  0.40930  1.0000 -0.0822477433
C   C105      1.0  0.97420  0.39790  0.40930  1.0000 -0.0822477433
C   C106      1.0  0.57630  0.60210  0.59070  1.0000 -0.0822477433
C   C107      1.0  0.39790  0.97420  0.59070  1.0000 -0.0822477433
C   C108      1.0  0.02580  0.42370  0.59070  1.0000 -0.0822477433
C   C109      1.0  0.45200  0.46280  0.54340  1.0000 0.0027816453
C   C110      1.0  0.53720  0.98920  0.54340  1.0000 0.0027816453
C   C111      1.0  0.01080  0.54800  0.54340  1.0000 0.0027816453
C   C112      1.0  0.46280  0.45200  0.45660  1.0000 0.0027816453
C   C113      1.0  0.54800  0.01080  0.45660  1.0000 0.0027816453
C   C114      1.0  0.98920  0.53720  0.45660  1.0000 0.0027816453
C   C115      1.0  0.54800  0.53720  0.45660  1.0000 0.0027816453
C   C116      1.0  0.46280  0.01080  0.45660  1.0000 0.0027816453
C   C117      1.0  0.98920  0.45200  0.45660  1.0000 0.0027816453
C   C118      1.0  0.53720  0.54800  0.54340  1.0000 0.0027816453
C   C119      1.0  0.45200  0.98920  0.54340  1.0000 0.0027816453
C   C120      1.0  0.01080  0.46280  0.54340  1.0000 0.0027816453
C   C121      1.0  0.48931  0.51069  0.58710  1.0000 0.0027816453
C   C122      1.0  0.48931  0.97862  0.58710  1.0000 0.0027816453
C   C123      1.0  0.02138  0.51069  0.58710  1.0000 0.0027816453
C   C124      1.0  0.51069  0.48931  0.41290  1.0000 -0.0005941575
C   C125      1.0  0.51069  0.02138  0.41290  1.0000 -0.0005941575
C   C126      1.0  0.97862  0.48931  0.41290  1.0000 -0.0005941575
C   C127      1.0  0.47885  0.52115  0.68350  1.0000 -0.0822477433
C   C128      1.0  0.47885  0.95770  0.68350  1.0000 -0.0822477433
C   C129      1.0  0.04230  0.52115  0.68350  1.0000 -0.0822477433
C   C130      1.0  0.52115  0.47885  0.31650  1.0000 -0.0822477433
C   C131      1.0  0.52115  0.04230  0.31650  1.0000 -0.0822477433
C   C132      1.0  0.95770  0.47885  0.31650  1.0000 -0.0822477433
C   C133      1.0  0.43697  0.56303  0.76460  1.0000 0.2127053057
C   C134      1.0  0.43697  0.87394  0.76460  1.0000 0.2127053057
C   C135      1.0  0.12606  0.56303  0.76460  1.0000 0.2127053057
C   C136      1.0  0.56303  0.43697  0.23540  1.0000 0.2127053057
C   C137      1.0  0.56303  0.12606  0.23540  1.0000 0.2127053057
C   C138      1.0  0.87394  0.43697  0.23540  1.0000 0.2127053057
C   C139      1.0  0.38890  0.52780  0.80400  1.0000 -0.207948333
C   C140      1.0  0.47220  0.86110  0.80400  1.0000 -0.207948333
C   C141      1.0  0.13890  0.61110  0.80400  1.0000 -0.207948333
C   C142      1.0  0.52780  0.38890  0.19600  1.0000 -0.207948333
C   C143      1.0  0.61110  0.13890  0.19600  1.0000 -0.207948333
C   C144      1.0  0.86110  0.47220  0.19600  1.0000 -0.207948333
C   C145      1.0  0.61110  0.47220  0.19600  1.0000 -0.207948333
C   C146      1.0  0.52780  0.13890  0.19600  1.0000 -0.207948333
C   C147      1.0  0.86110  0.38890  0.19600  1.0000 -0.207948333
C   C148      1.0  0.47220  0.61110  0.80400  1.0000 -0.207948333
C   C149      1.0  0.38890  0.86110  0.80400  1.0000 -0.207948333
C   C150      1.0  0.13890  0.52780  0.80400  1.0000 -0.207948333
C   C151      1.0  0.37640  0.54130  0.88850  1.0000 0.0124670798
C   C152      1.0  0.45870  0.83510  0.88850  1.0000 0.0124670798
C   C153      1.0  0.16490  0.62360  0.88850  1.0000 0.0124670798
C   C154      1.0  0.54130  0.37640  0.11150  1.0000 0.0124670798
C   C155      1.0  0.62360  0.16490  0.11150  1.0000 0.0124670798
C   C156      1.0  0.83510  0.45870  0.11150  1.0000 0.0124670798
C   C157      1.0  0.62360  0.45870  0.11150  1.0000 0.0124670798
C   C158      1.0  0.54130  0.16490  0.11150  1.0000 0.0124670798
C   C159      1.0  0.83510  0.37640  0.11150  1.0000 0.0124670798
C   C160      1.0  0.45870  0.62360  0.88850  1.0000 0.0124670798
C   C161      1.0  0.37640  0.83510  0.88850  1.0000 0.0124670798
C   C162      1.0  0.16490  0.54130  0.88850  1.0000 0.0124670798
C   C163      1.0  0.41116  0.58884  0.93140  1.0000 -0.1345181773
C   C164      1.0  0.41116  0.82232  0.93140  1.0000 -0.1345181773
C   C165      1.0  0.17768  0.58884  0.93140  1.0000 -0.1345181773
C   C166      1.0  0.58884  0.41116  0.06860  1.0000 -0.1345181773
C   C167      1.0  0.58884  0.17768  0.06860  1.0000 -0.1345181773
C   C168      1.0  0.82232  0.41116  0.06860  1.0000 -0.1345181773
C   C169      1.0  0.31970  0.50180  0.93240  1.0000 0.5638306181
C   C170      1.0  0.49820  0.81790  0.93240  1.0000 0.5638306181
C   C171      1.0  0.18210  0.68030  0.93240  1.0000 0.5638306181
C   C172      1.0  0.50180  0.31970  0.06760  1.0000 0.5638306181
C   C173      1.0  0.68030  0.18210  0.06760  1.0000 0.5638306181
C   C174      1.0  0.81790  0.49820  0.06760  1.0000 0.5638306181
C   C175      1.0  0.68030  0.49820  0.06760  1.0000 0.5638306181
C   C176      1.0  0.50180  0.18210  0.06760  1.0000 0.5638306181
C   C177      1.0  0.81790  0.31970  0.06760  1.0000 0.5638306181
C   C178      1.0  0.49820  0.68030  0.93240  1.0000 0.5638306181
C   C179      1.0  0.31970  0.81790  0.93240  1.0000 0.5638306181
C   C180      1.0  0.18210  0.50180  0.93240  1.0000 0.5638306181
O   O1        1.0  0.32100  0.21530  0.92460  1.0000 -0.551145942
O   O2        1.0  0.78470  0.10570  0.92460  1.0000 -0.551145942
O   O3        1.0  0.89430  0.67900  0.92460  1.0000 -0.551145942
O   O4        1.0  0.21530  0.32100  0.07540  1.0000 -0.551145942
O   O5        1.0  0.67900  0.89430  0.07540  1.0000 -0.551145942
O   O6        1.0  0.10570  0.78470  0.07540  1.0000 -0.551145942
O   O7        1.0  0.67900  0.78470  0.07540  1.0000 -0.551145942
O   O8        1.0  0.21530  0.89430  0.07540  1.0000 -0.551145942
O   O9        1.0  0.10570  0.32100  0.07540  1.0000 -0.551145942
O   O10       1.0  0.78470  0.67900  0.92460  1.0000 -0.551145942
O   O11       1.0  0.32100  0.10570  0.92460  1.0000 -0.551145942
O   O12       1.0  0.89430  0.21530  0.92460  1.0000 -0.551145942
O   O13       1.0  0.40615  0.25889  0.87050  1.0000 -0.512309582
O   O14       1.0  0.74111  0.14726  0.87050  1.0000 -0.512309582
O   O15       1.0  0.85274  0.59385  0.87050  1.0000 -0.512309582
O   O16       1.0  0.25889  0.40615  0.12950  1.0000 -0.512309582
O   O17       1.0  0.59385  0.85274  0.12950  1.0000 -0.512309582
O   O18       1.0  0.14726  0.74111  0.12950  1.0000 -0.512309582
O   O19       1.0  0.59385  0.74111  0.12950  1.0000 -0.512309582
O   O20       1.0  0.25889  0.85274  0.12950  1.0000 -0.512309582
O   O21       1.0  0.14726  0.40615  0.12950  1.0000 -0.512309582
O   O22       1.0  0.74111  0.59385  0.87050  1.0000 -0.512309582
O   O23       1.0  0.40615  0.14726  0.87050  1.0000 -0.512309582
O   O24       1.0  0.85274  0.25889  0.87050  1.0000 -0.512309582
O   O25       1.0  0.20614  0.29967  0.87860  1.0000 -0.5168961569
O   O26       1.0  0.70033  0.90647  0.87860  1.0000 -0.5168961569
O   O27       1.0  0.09353  0.79386  0.87860  1.0000 -0.5168961569
O   O28       1.0  0.29967  0.20614  0.12140  1.0000 -0.5168961569
O   O29       1.0  0.79386  0.09353  0.12140  1.0000 -0.5168961569
O   O30       1.0  0.90647  0.70033  0.12140  1.0000 -0.5168961569
O   O31       1.0  0.79386  0.70033  0.12140  1.0000 -0.5168961569
O   O32       1.0  0.29967  0.09353  0.12140  1.0000 -0.5168961569
O   O33       1.0  0.90647  0.20614  0.12140  1.0000 -0.5168961569
O   O34       1.0  0.70033  0.79386  0.87860  1.0000 -0.5168961569
O   O35       1.0  0.20614  0.90647  0.87860  1.0000 -0.5168961569
O   O36       1.0  0.09353  0.29967  0.87860  1.0000 -0.5168961569
O   O37       1.0  0.22570  0.35760  0.76200  1.0000 -0.5313381016
O   O38       1.0  0.64240  0.86810  0.76200  1.0000 -0.5313381016
O   O39       1.0  0.13190  0.77430  0.76200  1.0000 -0.5313381016
O   O40       1.0  0.35760  0.22570  0.23800  1.0000 -0.5313381016
O   O41       1.0  0.77430  0.13190  0.23800  1.0000 -0.5313381016
O   O42       1.0  0.86810  0.64240  0.23800  1.0000 -0.5313381016
O   O43       1.0  0.77430  0.64240  0.23800  1.0000 -0.5313381016
O   O44       1.0  0.35760  0.13190  0.23800  1.0000 -0.5313381016
O   O45       1.0  0.86810  0.22570  0.23800  1.0000 -0.5313381016
O   O46       1.0  0.64240  0.77430  0.76200  1.0000 -0.5313381016
O   O47       1.0  0.22570  0.86810  0.76200  1.0000 -0.5313381016
O   O48       1.0  0.13190  0.35760  0.76200  1.0000 -0.5313381016
O   O49       1.0  0.40762  0.38633  0.64220  1.0000 -0.1707566341
O   O50       1.0  0.61367  0.02129  0.64220  1.0000 -0.1707566341
O   O51       1.0  0.97871  0.59238  0.64220  1.0000 -0.1707566341
O   O52       1.0  0.38633  0.40762  0.35780  1.0000 -0.1707566341
O   O53       1.0  0.59238  0.97871  0.35780  1.0000 -0.1707566341
O   O54       1.0  0.02129  0.61367  0.35780  1.0000 -0.1707566341
O   O55       1.0  0.59238  0.61367  0.35780  1.0000 -0.1707566341
O   O56       1.0  0.38633  0.97871  0.35780  1.0000 -0.1707566341
O   O57       1.0  0.02129  0.40762  0.35780  1.0000 -0.1707566341
O   O58       1.0  0.61367  0.59238  0.64220  1.0000 -0.1707566341
O   O59       1.0  0.40762  0.02129  0.64220  1.0000 -0.1707566341
O   O60       1.0  0.97871  0.38633  0.64220  1.0000 -0.1707566341
O   O61       1.0  0.44945  0.55055  0.67760  1.0000 -0.1931620012
O   O62       1.0  0.44945  0.89890  0.67760  1.0000 -0.2011907878
O   O63       1.0  0.10110  0.55055  0.67760  1.0000 -0.1931620012
O   O64       1.0  0.55055  0.44945  0.32240  1.0000 -0.1931620012
O   O65       1.0  0.55055  0.10110  0.32240  1.0000 -0.1931620012
O   O66       1.0  0.89890  0.44945  0.32240  1.0000 -0.1931620012
O   O67       1.0  0.29080  0.45980  0.88170  1.0000 -0.5168961569
O   O68       1.0  0.54020  0.83100  0.88170  1.0000 -0.5168961569
O   O69       1.0  0.16900  0.70920  0.88170  1.0000 -0.5168961569
O   O70       1.0  0.45980  0.29080  0.11830  1.0000 -0.5168961569
O   O71       1.0  0.70920  0.16900  0.11830  1.0000 -0.5168961569
O   O72       1.0  0.83100  0.54020  0.11830  1.0000 -0.5168961569
O   O73       1.0  0.70920  0.54020  0.11830  1.0000 -0.5168961569
O   O74       1.0  0.45980  0.16900  0.11830  1.0000 -0.5168961569
O   O75       1.0  0.83100  0.29080  0.11830  1.0000 -0.5168961569
O   O76       1.0  0.54020  0.70920  0.88170  1.0000 -0.5168961569
O   O77       1.0  0.29080  0.83100  0.88170  1.0000 -0.5168961569
O   O78       1.0  0.16900  0.45980  0.88170  1.0000 -0.5168961569
O   O79       1.0  0.30714  0.50780  0.00360  1.0000 -0.390270249
O   O80       1.0  0.49220  0.79934  0.00360  1.0000 -0.390270249
O   O81       1.0  0.20066  0.69286  0.00360  1.0000 -0.390270249
O   O82       1.0  0.50780  0.30714  0.99640  1.0000 -0.390270249
O   O83       1.0  0.69286  0.20066  0.99640  1.0000 -0.390270249
O   O84       1.0  0.79934  0.49220  0.99640  1.0000 -0.390270249
O   O85       1.0  0.69286  0.49220  0.99640  1.0000 -0.390270249
O   O86       1.0  0.50780  0.20066  0.99640  1.0000 -0.390270249
O   O87       1.0  0.79934  0.30714  0.99640  1.0000 -0.390270249
O   O88       1.0  0.49220  0.69286  0.00360  1.0000 -0.390270249
O   O89       1.0  0.30714  0.79934  0.00360  1.0000 -0.390270249
O   O90       1.0  0.20066  0.50780  0.00360  1.0000 -0.390270249
O   O91       1.0  0.39823  0.19911  0.04790  1.0000 -0.8382446597
O   O92       1.0  0.80088  0.19911  0.04790  1.0000 -0.8382446597
O   O93       1.0  0.80088  0.60177  0.04790  1.0000 -0.8342037509
O   O94       1.0  0.19912  0.39823  0.95210  1.0000 -0.8382446597
O   O95       1.0  0.60177  0.80089  0.95210  1.0000 -0.8382446597
O   O96       1.0  0.19912  0.80089  0.95210  1.0000 -0.8382446597
