# DDEC6 charges by PACMAN v1.1 (https://github.com/mtap-research/PACMAN-charge/)
data_2015[Zn][dia]3[ASR]6
_chemical_formula_sum              "Zn4 H72 C100 N16 O20"
_cell_length_a       16.381
_cell_length_b       14.17
_cell_length_c       22.1067
_cell_angle_alpha    90
_cell_angle_beta     121.656
_cell_angle_gamma    90

_symmetry_space_group_name_H-M    "P 1"
_symmetry_Int_Tables_number       1

loop_
  _symmetry_equiv_pos_as_xyz
  'x, y, z'

loop_
  _atom_site_type_symbol
  _atom_site_label
  _atom_site_symmetry_multiplicity
  _atom_site_fract_x
  _atom_site_fract_y
  _atom_site_fract_z
  _atom_site_occupancy
  _atom_site_charge
Zn  Zn1       1.0  0.90944  0.06837  0.17839  1.0000 0.7397154002
Zn  Zn2       1.0  0.90944  0.43163  0.67839  1.0000 0.7397154002
Zn  Zn3       1.0  0.09056  0.56837  0.32161  1.0000 0.7397154002
Zn  Zn4       1.0  0.09056  0.93163  0.82161  1.0000 0.7397154002
H   H1        1.0  0.07780  0.74700  0.43280  1.0000 0.2981182961
H   H2        1.0  0.07780  0.75300  0.93280  1.0000 0.2981182961
H   H3        1.0  0.07920  0.66330  0.50950  1.0000 0.292337639
H   H4        1.0  0.07920  0.83670  0.00950  1.0000 0.292337639
H   H5        1.0  0.13600  0.29420  0.39800  1.0000 0.1100068129
H   H6        1.0  0.13600  0.20580  0.89800  1.0000 0.1100068129
H   H7        1.0  0.29760  0.33480  0.46970  1.0000 0.1100068129
H   H8        1.0  0.29760  0.16520  0.96970  1.0000 0.1100068129
H   H9        1.0  0.35710  0.18540  0.34490  1.0000 0.1100068129
H   H10       1.0  0.35710  0.31460  0.84490  1.0000 0.1100068129
H   H11       1.0  0.19690  0.14210  0.27380  1.0000 0.1186077307
H   H12       1.0  0.19690  0.35790  0.77380  1.0000 0.1186077307
H   H13       1.0  0.42970  0.40750  0.50050  1.0000 0.1100068129
H   H14       1.0  0.42970  0.09250  0.00050  1.0000 0.1100068129
H   H15       1.0  0.49670  0.17110  0.43760  1.0000 0.1100068129
H   H16       1.0  0.49670  0.32890  0.93760  1.0000 0.1100068129
H   H17       1.0  0.59480  0.44380  0.56720  1.0000 0.1186077307
H   H18       1.0  0.59480  0.05620  0.06720  1.0000 0.1186077307
H   H19       1.0  0.65990  0.20860  0.50720  1.0000 0.1186077307
H   H20       1.0  0.65990  0.29140  0.00720  1.0000 0.1186077307
H   H21       1.0  0.80830  0.95090  0.23610  1.0000 0.1186077307
H   H22       1.0  0.80830  0.54910  0.73610  1.0000 0.1186077307
H   H23       1.0  0.84250  0.84020  0.32360  1.0000 0.1485677357
H   H24       1.0  0.84250  0.65980  0.82360  1.0000 0.1485677357
H   H25       1.0  0.11790  0.84540  0.37180  1.0000 0.1485677357
H   H26       1.0  0.11790  0.65460  0.87180  1.0000 0.155332747
H   H27       1.0  0.07330  0.95920  0.28560  1.0000 0.1018674365
H   H28       1.0  0.07330  0.54080  0.78560  1.0000 0.1018674365
H   H29       1.0  0.07840  0.50010  0.67880  1.0000 0.1100068129
H   H30       1.0  0.07840  0.99990  0.17880  1.0000 0.1100068129
H   H31       1.0  0.12310  0.58700  0.61290  1.0000 0.1438555597
H   H32       1.0  0.12310  0.91300  0.11290  1.0000 0.1438555597
H   H33       1.0  0.84270  0.60230  0.45770  1.0000 0.1485677357
H   H34       1.0  0.84270  0.89770  0.95770  1.0000 0.1485677357
H   H35       1.0  0.80620  0.51680  0.52780  1.0000 0.1100068129
H   H36       1.0  0.80620  0.98320  0.02780  1.0000 0.1100068129
H   H37       1.0  0.92220  0.24700  0.06720  1.0000 0.2981182961
H   H38       1.0  0.92220  0.25300  0.56720  1.0000 0.2981182961
H   H39       1.0  0.92080  0.16330  0.99050  1.0000 0.292337639
H   H40       1.0  0.92080  0.33670  0.49050  1.0000 0.292337639
H   H41       1.0  0.86400  0.79420  0.10200  1.0000 0.1100068129
H   H42       1.0  0.86400  0.70580  0.60200  1.0000 0.1100068129
H   H43       1.0  0.70240  0.83480  0.03030  1.0000 0.1100068129
H   H44       1.0  0.70240  0.66520  0.53030  1.0000 0.1100068129
H   H45       1.0  0.64290  0.68540  0.15510  1.0000 0.1100068129
H   H46       1.0  0.64290  0.81460  0.65510  1.0000 0.1100068129
H   H47       1.0  0.80310  0.64210  0.22620  1.0000 0.1186077307
H   H48       1.0  0.80310  0.85790  0.72620  1.0000 0.1186077307
H   H49       1.0  0.57030  0.90750  0.99950  1.0000 0.1100068129
H   H50       1.0  0.57030  0.59250  0.49950  1.0000 0.1100068129
H   H51       1.0  0.50330  0.67110  0.06240  1.0000 0.1100068129
H   H52       1.0  0.50330  0.82890  0.56240  1.0000 0.1100068129
H   H53       1.0  0.40520  0.94380  0.93280  1.0000 0.1186077307
H   H54       1.0  0.40520  0.55620  0.43280  1.0000 0.1186077307
H   H55       1.0  0.34010  0.70860  0.99280  1.0000 0.1186077307
H   H56       1.0  0.34010  0.79140  0.49280  1.0000 0.1186077307
H   H57       1.0  0.19170  0.45090  0.26390  1.0000 0.1186077307
H   H58       1.0  0.19170  0.04910  0.76390  1.0000 0.1186077307
H   H59       1.0  0.15750  0.34020  0.17640  1.0000 0.1485677357
H   H60       1.0  0.15750  0.15980  0.67640  1.0000 0.1485677357
H   H61       1.0  0.88210  0.34540  0.12820  1.0000 0.155332747
H   H62       1.0  0.88210  0.15460  0.62820  1.0000 0.155332747
H   H63       1.0  0.92670  0.45920  0.21440  1.0000 0.1018674365
H   H64       1.0  0.92670  0.04080  0.71440  1.0000 0.1018674365
H   H65       1.0  0.92160  0.00010  0.82120  1.0000 0.1100068129
H   H66       1.0  0.92160  0.49990  0.32120  1.0000 0.1100068129
H   H67       1.0  0.87690  0.08700  0.88710  1.0000 0.1438555597
H   H68       1.0  0.87690  0.41300  0.38710  1.0000 0.1438555597
H   H69       1.0  0.15730  0.10230  0.04230  1.0000 0.1485677357
H   H70       1.0  0.15730  0.39770  0.54230  1.0000 0.1485677357
H   H71       1.0  0.19380  0.01680  0.97220  1.0000 0.1100068129
H   H72       1.0  0.19380  0.48320  0.47220  1.0000 0.1100068129
C   C1        1.0  0.04790  0.18170  0.28570  1.0000 0.5393016963
C   C2        1.0  0.04790  0.31830  0.78570  1.0000 0.5393016963
C   C3        1.0  0.15210  0.21130  0.33070  1.0000 -0.0266670947
C   C4        1.0  0.15210  0.28870  0.83070  1.0000 -0.0266670947
C   C5        1.0  0.18140  0.26980  0.38770  1.0000 -0.1001314502
C   C6        1.0  0.18140  0.23020  0.88770  1.0000 -0.1001314502
C   C7        1.0  0.27790  0.29370  0.43050  1.0000 -0.1512875792
C   C8        1.0  0.27790  0.20630  0.93050  1.0000 -0.1512875792
C   C9        1.0  0.34510  0.25890  0.41720  1.0000 0.0775531444
C   C10       1.0  0.34510  0.24110  0.91720  1.0000 0.0775531444
C   C11       1.0  0.31270  0.20580  0.35750  1.0000 -0.1512875792
C   C12       1.0  0.31270  0.29420  0.85750  1.0000 -0.1512875792
C   C13       1.0  0.21690  0.18060  0.31440  1.0000 -0.1086828969
C   C14       1.0  0.21690  0.31940  0.81440  1.0000 -0.1086828969
C   C15       1.0  0.44800  0.28350  0.46230  1.0000 0.0722066356
C   C16       1.0  0.44800  0.21650  0.96230  1.0000 0.0775531444
C   C17       1.0  0.47560  0.36590  0.50110  1.0000 -0.1512875792
C   C18       1.0  0.47560  0.13410  0.00110  1.0000 -0.1552486391
C   C19       1.0  0.51560  0.22750  0.46490  1.0000 -0.1512875792
C   C20       1.0  0.51560  0.27250  0.96490  1.0000 -0.1512875792
C   C21       1.0  0.57510  0.38590  0.54190  1.0000 -0.1001314502
C   C22       1.0  0.57510  0.11410  0.04190  1.0000 -0.1001314502
C   C23       1.0  0.64200  0.32900  0.54680  1.0000 -0.0174580281
C   C24       1.0  0.64200  0.17100  0.04680  1.0000 -0.0174580281
C   C25       1.0  0.61360  0.24940  0.50680  1.0000 -0.1086828969
C   C26       1.0  0.61360  0.25060  0.00680  1.0000 -0.1086828969
C   C27       1.0  0.74690  0.35360  0.59000  1.0000 0.5553820162
C   C28       1.0  0.74690  0.14640  0.09000  1.0000 0.5553820162
C   C29       1.0  0.87270  0.93030  0.26540  1.0000 0.1018674365
C   C30       1.0  0.87270  0.56970  0.76540  1.0000 0.1018674365
C   C31       1.0  0.89170  0.86220  0.31650  1.0000 -0.234315046
C   C32       1.0  0.89170  0.63780  0.81650  1.0000 -0.234315046
C   C33       1.0  0.98380  0.82770  0.35640  1.0000 0.292337639
C   C34       1.0  0.98380  0.67230  0.85640  1.0000 0.292337639
C   C35       1.0  0.05320  0.86620  0.34480  1.0000 -0.2240743386
C   C36       1.0  0.05320  0.63380  0.84480  1.0000 -0.2240743386
C   C37       1.0  0.02600  0.93440  0.29370  1.0000 0.0775531444
C   C38       1.0  0.02600  0.56560  0.79370  1.0000 0.0775531444
C   C39       1.0  0.95970  0.71700  0.43090  1.0000 0.5967895268
C   C40       1.0  0.95970  0.78300  0.93090  1.0000 0.5967895268
C   C41       1.0  0.02970  0.52170  0.63310  1.0000 0.0722066356
C   C42       1.0  0.02970  0.97830  0.13310  1.0000 0.0722066356
C   C43       1.0  0.05710  0.57470  0.59460  1.0000 -0.2582663418
C   C44       1.0  0.05710  0.92530  0.09460  1.0000 -0.2582663418
C   C45       1.0  0.98740  0.61040  0.52850  1.0000 0.292337639
C   C46       1.0  0.98740  0.88960  0.02850  1.0000 0.292337639
C   C47       1.0  0.89260  0.58370  0.50380  1.0000 -0.2462350102
C   C48       1.0  0.89260  0.91630  0.00380  1.0000 -0.2462350102
C   C49       1.0  0.87160  0.53130  0.54540  1.0000 0.0541377568
C   C50       1.0  0.87160  0.96870  0.04540  1.0000 0.0541377568
C   C51       1.0  0.95210  0.68170  0.21430  1.0000 0.5393016963
C   C52       1.0  0.95210  0.81830  0.71430  1.0000 0.5393016963
C   C53       1.0  0.84790  0.71130  0.16930  1.0000 -0.0266670947
C   C54       1.0  0.84790  0.78870  0.66930  1.0000 -0.0266670947
C   C55       1.0  0.81860  0.76980  0.11230  1.0000 -0.1001314502
C   C56       1.0  0.81860  0.73020  0.61230  1.0000 -0.1001314502
C   C57       1.0  0.72210  0.79370  0.06950  1.0000 -0.1512875792
C   C58       1.0  0.72210  0.70630  0.56950  1.0000 -0.1512875792
C   C59       1.0  0.65490  0.75890  0.08280  1.0000 0.0775531444
C   C60       1.0  0.65490  0.74110  0.58280  1.0000 0.0775531444
C   C61       1.0  0.68730  0.70580  0.14250  1.0000 -0.1512875792
C   C62       1.0  0.68730  0.79420  0.64250  1.0000 -0.1512875792
C   C63       1.0  0.78310  0.68060  0.18560  1.0000 -0.1086828969
C   C64       1.0  0.78310  0.81940  0.68560  1.0000 -0.1086828969
C   C65       1.0  0.55200  0.78350  0.03770  1.0000 0.0775531444
C   C66       1.0  0.55200  0.71650  0.53770  1.0000 0.0775531444
C   C67       1.0  0.52440  0.86590  0.99890  1.0000 -0.1552486391
C   C68       1.0  0.52440  0.63410  0.49890  1.0000 -0.1552486391
C   C69       1.0  0.48440  0.72750  0.03510  1.0000 -0.1512875792
C   C70       1.0  0.48440  0.77250  0.53510  1.0000 -0.1512875792
C   C71       1.0  0.42490  0.88590  0.95810  1.0000 -0.1001314502
C   C72       1.0  0.42490  0.61410  0.45810  1.0000 -0.1001314502
C   C73       1.0  0.35800  0.82900  0.95320  1.0000 -0.0174580281
C   C74       1.0  0.35800  0.67100  0.45320  1.0000 -0.0174580281
C   C75       1.0  0.38640  0.74940  0.99320  1.0000 -0.1086828969
C   C76       1.0  0.38640  0.75060  0.49320  1.0000 -0.1086828969
C   C77       1.0  0.25310  0.85360  0.91000  1.0000 0.5553820162
C   C78       1.0  0.25310  0.64640  0.41000  1.0000 0.5553820162
C   C79       1.0  0.12730  0.43030  0.23460  1.0000 0.1018674365
C   C80       1.0  0.12730  0.06970  0.73460  1.0000 0.1018674365
C   C81       1.0  0.10830  0.36220  0.18350  1.0000 -0.234315046
C   C82       1.0  0.10830  0.13780  0.68350  1.0000 -0.234315046
C   C83       1.0  0.01620  0.32770  0.14360  1.0000 0.292337639
C   C84       1.0  0.01620  0.17230  0.64360  1.0000 0.292337639
C   C85       1.0  0.94680  0.36620  0.15520  1.0000 -0.2240743386
C   C86       1.0  0.94680  0.13380  0.65520  1.0000 -0.2240743386
C   C87       1.0  0.97400  0.43440  0.20630  1.0000 0.0775531444
C   C88       1.0  0.97400  0.06560  0.70630  1.0000 0.0775531444
C   C89       1.0  0.04030  0.21700  0.06910  1.0000 0.5967895268
C   C90       1.0  0.04030  0.28300  0.56910  1.0000 0.5967895268
C   C91       1.0  0.97030  0.02170  0.86690  1.0000 0.0722066356
C   C92       1.0  0.97030  0.47830  0.36690  1.0000 0.0722066356
C   C93       1.0  0.94290  0.07470  0.90540  1.0000 -0.2582663418
C   C94       1.0  0.94290  0.42530  0.40540  1.0000 -0.2582663418
C   C95       1.0  0.01260  0.11040  0.97150  1.0000 0.292337639
C   C96       1.0  0.01260  0.38960  0.47150  1.0000 0.292337639
C   C97       1.0  0.10740  0.08370  0.99620  1.0000 -0.2462350102
C   C98       1.0  0.10740  0.41630  0.49620  1.0000 -0.2462350102
C   C99       1.0  0.12840  0.03130  0.95460  1.0000 0.0553220911
C   C100      1.0  0.12840  0.46870  0.45460  1.0000 0.0541377568
N   N1        1.0  0.93710  0.96790  0.25490  1.0000 -0.2422942193
N   N2        1.0  0.93710  0.53210  0.75490  1.0000 -0.2422942193
N   N3        1.0  0.93850  0.49870  0.61020  1.0000 -0.2582663418
N   N4        1.0  0.93850  0.00130  0.11020  1.0000 -0.2582663418
N   N5        1.0  0.01660  0.76180  0.41010  1.0000 -0.3979417653
N   N6        1.0  0.01660  0.73820  0.91010  1.0000 -0.3979417653
N   N7        1.0  0.01710  0.66290  0.49250  1.0000 -0.3908667983
N   N8        1.0  0.01710  0.83710  0.99250  1.0000 -0.3908667983
N   N9        1.0  0.06290  0.46790  0.24510  1.0000 -0.2422942193
N   N10       1.0  0.06290  0.03210  0.74510  1.0000 -0.2422942193
N   N11       1.0  0.06150  0.99870  0.88980  1.0000 -0.2582663418
N   N12       1.0  0.06150  0.50130  0.38980  1.0000 -0.2582663418
N   N13       1.0  0.98340  0.26180  0.08990  1.0000 -0.3979417653
N   N14       1.0  0.98340  0.23820  0.58990  1.0000 -0.3979417653
N   N15       1.0  0.98290  0.16290  0.00750  1.0000 -0.3908667983
N   N16       1.0  0.98290  0.33710  0.50750  1.0000 -0.3908667983
O   O1        1.0  0.02670  0.13850  0.22710  1.0000 -0.5812380435
O   O2        1.0  0.02670  0.36150  0.72710  1.0000 -0.5812380435
O   O3        1.0  0.99270  0.19860  0.30530  1.0000 -0.5207742275
O   O4        1.0  0.99270  0.30140  0.80530  1.0000 -0.5207742275
O   O5        1.0  0.80720  0.30950  0.58230  1.0000 -0.5741926403
O   O6        1.0  0.80720  0.19050  0.08230  1.0000 -0.5741926403
O   O7        1.0  0.77070  0.42200  0.63400  1.0000 -0.5401092442
O   O8        1.0  0.77070  0.07800  0.13400  1.0000 -0.5401092442
O   O9        1.0  0.87490  0.72450  0.40290  1.0000 -0.4686802001
O   O10       1.0  0.87490  0.77550  0.90290  1.0000 -0.4686802001
O   O11       1.0  0.97330  0.63850  0.27290  1.0000 -0.5812380435
O   O12       1.0  0.97330  0.86150  0.77290  1.0000 -0.5812380435
O   O13       1.0  0.00730  0.69860  0.19470  1.0000 -0.5207742275
O   O14       1.0  0.00730  0.80140  0.69470  1.0000 -0.5207742275
O   O15       1.0  0.19280  0.80950  0.91770  1.0000 -0.5741926403
O   O16       1.0  0.19280  0.69050  0.41770  1.0000 -0.5741926403
O   O17       1.0  0.22930  0.92200  0.86600  1.0000 -0.5401092442
O   O18       1.0  0.22930  0.57800  0.36600  1.0000 -0.5401092442
O   O19       1.0  0.12510  0.22450  0.09710  1.0000 -0.4686802001
O   O20       1.0  0.12510  0.27550  0.59710  1.0000 -0.4686802001
