# DDEC6 charges by PACMAN v1.1 (https://github.com/mtap-research/PACMAN-charge/)
data_2015[La][nan]3[ASR]12
_chemical_formula_sum              "La8 C40 O48"
_cell_length_a       6.724
_cell_length_b       14.096
_cell_length_c       23.984
_cell_angle_alpha    90
_cell_angle_beta     90
_cell_angle_gamma    90

_symmetry_space_group_name_H-M    "P 1"
_symmetry_Int_Tables_number       1

loop_
  _symmetry_equiv_pos_as_xyz
  'x, y, z'

loop_
  _atom_site_type_symbol
  _atom_site_label
  _atom_site_symmetry_multiplicity
  _atom_site_fract_x
  _atom_site_fract_y
  _atom_site_fract_z
  _atom_site_occupancy
  _atom_site_charge
La  La1       1.0  0.11769  0.79411  0.36601  1.0000 1.8314952043
La  La2       1.0  0.61769  0.70589  0.13399  1.0000 1.8314952043
La  La3       1.0  0.38231  0.79411  0.63399  1.0000 1.8314952043
La  La4       1.0  0.88231  0.70589  0.86601  1.0000 1.8314952043
La  La5       1.0  0.88231  0.20589  0.63399  1.0000 1.8314952043
La  La6       1.0  0.38231  0.29411  0.86601  1.0000 1.8314952043
La  La7       1.0  0.61769  0.20589  0.36601  1.0000 1.8314952043
La  La8       1.0  0.11769  0.29411  0.13399  1.0000 1.8314952043
C   C1        1.0  0.97550  0.60890  0.26750  1.0000 0.1802275417
C   C2        1.0  0.47550  0.89110  0.23250  1.0000 0.1802275417
C   C3        1.0  0.52450  0.60890  0.73250  1.0000 0.1802275417
C   C4        1.0  0.02450  0.89110  0.76750  1.0000 0.1802275417
C   C5        1.0  0.02450  0.39110  0.73250  1.0000 0.1802275417
C   C6        1.0  0.52450  0.10890  0.76750  1.0000 0.1802275417
C   C7        1.0  0.47550  0.39110  0.26750  1.0000 0.1802275417
C   C8        1.0  0.97550  0.10890  0.23250  1.0000 0.1802275417
C   C9        1.0  0.94340  0.56640  0.21240  1.0000 0.1599820119
C   C10       1.0  0.44340  0.93360  0.28760  1.0000 0.1599820119
C   C11       1.0  0.55660  0.56640  0.78760  1.0000 0.1599820119
C   C12       1.0  0.05660  0.93360  0.71240  1.0000 0.1599820119
C   C13       1.0  0.05660  0.43360  0.78760  1.0000 0.1599820119
C   C14       1.0  0.55660  0.06640  0.71240  1.0000 0.1599820119
C   C15       1.0  0.44340  0.43360  0.21240  1.0000 0.1599820119
C   C16       1.0  0.94340  0.06640  0.28760  1.0000 0.1599820119
C   C17       1.0  0.98480  0.47310  0.23380  1.0000 0.1599820119
C   C18       1.0  0.48480  0.02690  0.26620  1.0000 0.1599820119
C   C19       1.0  0.51520  0.47310  0.76620  1.0000 0.1599820119
C   C20       1.0  0.01520  0.02690  0.73380  1.0000 0.1599820119
C   C21       1.0  0.01520  0.52690  0.76620  1.0000 0.1599820119
C   C22       1.0  0.51520  0.97310  0.73380  1.0000 0.1599820119
C   C23       1.0  0.48480  0.52690  0.23380  1.0000 0.1599820119
C   C24       1.0  0.98480  0.97310  0.26620  1.0000 0.1599820119
C   C25       1.0  0.01060  0.51290  0.29050  1.0000 0.1436104005
C   C26       1.0  0.51060  0.98710  0.20950  1.0000 0.1436104005
C   C27       1.0  0.48940  0.51290  0.70950  1.0000 0.1436104005
C   C28       1.0  0.98940  0.98710  0.79050  1.0000 0.1436104005
C   C29       1.0  0.98940  0.48710  0.70950  1.0000 0.1436104005
C   C30       1.0  0.48940  0.01290  0.79050  1.0000 0.1436104005
C   C31       1.0  0.51060  0.48710  0.29050  1.0000 0.1436104005
C   C32       1.0  0.01060  0.01290  0.20950  1.0000 0.1436104005
C   C33       1.0  0.14040  0.79650  0.50860  1.0000 0.5640890015
C   C34       1.0  0.64040  0.70350  0.99140  1.0000 0.5640890015
C   C35       1.0  0.35960  0.79650  0.49140  1.0000 0.5640890015
C   C36       1.0  0.85960  0.70350  0.00860  1.0000 0.5640890015
C   C37       1.0  0.85960  0.20350  0.49140  1.0000 0.5640890015
C   C38       1.0  0.35960  0.29650  0.00860  1.0000 0.5640890015
C   C39       1.0  0.64040  0.20350  0.50860  1.0000 0.5640890015
C   C40       1.0  0.14040  0.29650  0.99140  1.0000 0.5640890015
O   O1        1.0  0.97520  0.69140  0.28660  1.0000 -0.4891012522
O   O2        1.0  0.47520  0.80860  0.21340  1.0000 -0.4891012522
O   O3        1.0  0.52480  0.69140  0.71340  1.0000 -0.4891012522
O   O4        1.0  0.02480  0.80860  0.78660  1.0000 -0.4891012522
O   O5        1.0  0.02480  0.30860  0.71340  1.0000 -0.4891012522
O   O6        1.0  0.52480  0.19140  0.78660  1.0000 -0.4891012522
O   O7        1.0  0.47520  0.30860  0.28660  1.0000 -0.4891012522
O   O8        1.0  0.97520  0.19140  0.21340  1.0000 -0.4891012522
O   O9        1.0  0.89520  0.59650  0.16470  1.0000 -0.4829762454
O   O10       1.0  0.39520  0.90350  0.33530  1.0000 -0.4829762454
O   O11       1.0  0.60480  0.59650  0.83530  1.0000 -0.4829762454
O   O12       1.0  0.10480  0.90350  0.66470  1.0000 -0.4829762454
O   O13       1.0  0.10480  0.40350  0.83530  1.0000 -0.4829762454
O   O14       1.0  0.60480  0.09650  0.66470  1.0000 -0.4829762454
O   O15       1.0  0.39520  0.40350  0.16470  1.0000 -0.4829762454
O   O16       1.0  0.89520  0.09650  0.33530  1.0000 -0.4829762454
O   O17       1.0  0.99410  0.39060  0.21420  1.0000 -0.4829762454
O   O18       1.0  0.49410  0.10940  0.28580  1.0000 -0.4829762454
O   O19       1.0  0.50590  0.39060  0.78580  1.0000 -0.4829762454
O   O20       1.0  0.00590  0.10940  0.71420  1.0000 -0.4829762454
O   O21       1.0  0.00590  0.60940  0.78580  1.0000 -0.4829762454
O   O22       1.0  0.50590  0.89060  0.71420  1.0000 -0.4829762454
O   O23       1.0  0.49410  0.60940  0.21420  1.0000 -0.4829762454
O   O24       1.0  0.99410  0.89060  0.28580  1.0000 -0.4829762454
O   O25       1.0  0.04490  0.47940  0.33740  1.0000 -0.3144928279
O   O26       1.0  0.54490  0.02060  0.16260  1.0000 -0.3144928279
O   O27       1.0  0.45510  0.47940  0.66260  1.0000 -0.3144928279
O   O28       1.0  0.95510  0.02060  0.83740  1.0000 -0.3144928279
O   O29       1.0  0.95510  0.52060  0.66260  1.0000 -0.3144928279
O   O30       1.0  0.45510  0.97940  0.83740  1.0000 -0.3162553522
O   O31       1.0  0.54490  0.52060  0.33740  1.0000 -0.3144928279
O   O32       1.0  0.04490  0.97940  0.16260  1.0000 -0.3162553522
O   O33       1.0  0.01240  0.79410  0.47080  1.0000 -0.6343264344
O   O34       1.0  0.51240  0.70590  0.02920  1.0000 -0.6343264344
O   O35       1.0  0.48760  0.79410  0.52920  1.0000 -0.6343264344
O   O36       1.0  0.98760  0.70590  0.97080  1.0000 -0.6358186367
O   O37       1.0  0.98760  0.20590  0.52920  1.0000 -0.6358186367
O   O38       1.0  0.48760  0.29410  0.97080  1.0000 -0.6358186367
O   O39       1.0  0.51240  0.20590  0.47080  1.0000 -0.6358186367
O   O40       1.0  0.01240  0.29410  0.02920  1.0000 -0.6343264344
O   O41       1.0  0.10570  0.80060  0.56025  1.0000 -0.6343264344
O   O42       1.0  0.60570  0.69940  0.93975  1.0000 -0.6343264344
O   O43       1.0  0.39430  0.80060  0.43975  1.0000 -0.6343264344
O   O44       1.0  0.89430  0.69940  0.06025  1.0000 -0.6343264344
O   O45       1.0  0.89430  0.19940  0.43975  1.0000 -0.6343264344
O   O46       1.0  0.39430  0.30060  0.06025  1.0000 -0.6343264344
O   O47       1.0  0.60570  0.19940  0.56025  1.0000 -0.6343264344
O   O48       1.0  0.10570  0.30060  0.93975  1.0000 -0.6343264344
