# DDEC6 charges by PACMAN v1.1 (https://github.com/mtap-research/PACMAN-charge/)
data_2015[Cd][bcu]3[ASR]3
_chemical_formula_sum              "Cd4 H64 C96 N8 O16"
_cell_length_a       9.7904
_cell_length_b       17.366
_cell_length_c       15.2569
_cell_angle_alpha    90
_cell_angle_beta     95.4829
_cell_angle_gamma    90

_symmetry_space_group_name_H-M    "P 1"
_symmetry_Int_Tables_number       1

loop_
  _symmetry_equiv_pos_as_xyz
  'x, y, z'

loop_
  _atom_site_type_symbol
  _atom_site_label
  _atom_site_symmetry_multiplicity
  _atom_site_fract_x
  _atom_site_fract_y
  _atom_site_fract_z
  _atom_site_occupancy
  _atom_site_charge
Cd  Cd1       1.0  0.13550  0.41915  0.48071  1.0000 0.8541408018
Cd  Cd2       1.0  0.86450  0.91915  0.01929  1.0000 0.8541408018
Cd  Cd3       1.0  0.86450  0.58085  0.51929  1.0000 0.8541408018
Cd  Cd4       1.0  0.13550  0.08085  0.98071  1.0000 0.8541408018
H   H1        1.0  0.08080  0.63610  0.72480  1.0000 0.1286635235
H   H2        1.0  0.91920  0.13610  0.77520  1.0000 0.1286635235
H   H3        1.0  0.91920  0.36390  0.27520  1.0000 0.1286635235
H   H4        1.0  0.08080  0.86390  0.22480  1.0000 0.1286635235
H   H5        1.0  0.41530  0.68810  0.88750  1.0000 0.1107686364
H   H6        1.0  0.58470  0.18810  0.61250  1.0000 0.1107686364
H   H7        1.0  0.58470  0.31190  0.11250  1.0000 0.1107686364
H   H8        1.0  0.41530  0.81190  0.38750  1.0000 0.1107686364
H   H9        1.0  0.54180  0.60020  0.81520  1.0000 0.1107686364
H   H10       1.0  0.45820  0.10020  0.68480  1.0000 0.1107686364
H   H11       1.0  0.45820  0.39980  0.18480  1.0000 0.1107686364
H   H12       1.0  0.54180  0.89980  0.31520  1.0000 0.1107686364
H   H13       1.0  0.43620  0.52530  0.70280  1.0000 0.1107686364
H   H14       1.0  0.56380  0.02530  0.79720  1.0000 0.1107686364
H   H15       1.0  0.56380  0.47470  0.29720  1.0000 0.1107686364
H   H16       1.0  0.43620  0.97470  0.20280  1.0000 0.1107686364
H   H17       1.0  0.92420  0.86060  0.82810  1.0000 0.1107686364
H   H18       1.0  0.07580  0.36060  0.67190  1.0000 0.1107686364
H   H19       1.0  0.07580  0.13940  0.17190  1.0000 0.1107686364
H   H20       1.0  0.92420  0.63940  0.32810  1.0000 0.1107686364
H   H21       1.0  0.04240  0.77210  0.75410  1.0000 0.140957287
H   H22       1.0  0.95760  0.27210  0.74590  1.0000 0.140957287
H   H23       1.0  0.95760  0.22790  0.24590  1.0000 0.140957287
H   H24       1.0  0.04240  0.72790  0.25410  1.0000 0.140957287
H   H25       1.0  0.23680  0.70780  0.98450  1.0000 0.1286635235
H   H26       1.0  0.76320  0.20780  0.51550  1.0000 0.1286635235
H   H27       1.0  0.76320  0.29220  0.01550  1.0000 0.1286635235
H   H28       1.0  0.23680  0.79220  0.48450  1.0000 0.1286635235
H   H29       1.0  0.10870  0.79530  0.05260  1.0000 0.1107686364
H   H30       1.0  0.89130  0.29530  0.44740  1.0000 0.1107686364
H   H31       1.0  0.89130  0.20470  0.94740  1.0000 0.1107686364
H   H32       1.0  0.10870  0.70470  0.55260  1.0000 0.1107686364
H   H33       1.0  0.52750  0.25420  0.43280  1.0000 0.1107686364
H   H34       1.0  0.47250  0.75420  0.06720  1.0000 0.1107686364
H   H35       1.0  0.47250  0.74580  0.56720  1.0000 0.1107686364
H   H36       1.0  0.52750  0.24580  0.93280  1.0000 0.1107686364
H   H37       1.0  0.65440  0.17270  0.35330  1.0000 0.1046770573
H   H38       1.0  0.34560  0.67270  0.14670  1.0000 0.1046770573
H   H39       1.0  0.34560  0.82730  0.64670  1.0000 0.1046770573
H   H40       1.0  0.65440  0.32730  0.85330  1.0000 0.1046770573
H   H41       1.0  0.35740  0.17430  0.15550  1.0000 0.1220128205
H   H42       1.0  0.64260  0.67430  0.34450  1.0000 0.1220128205
H   H43       1.0  0.64260  0.82570  0.84450  1.0000 0.1220128205
H   H44       1.0  0.35740  0.32570  0.65550  1.0000 0.1220128205
H   H45       1.0  0.23050  0.25630  0.23450  1.0000 0.1107686364
H   H46       1.0  0.76950  0.75630  0.26550  1.0000 0.1107686364
H   H47       1.0  0.76950  0.74370  0.76550  1.0000 0.1107686364
H   H48       1.0  0.23050  0.24370  0.73450  1.0000 0.1107686364
H   H49       1.0  0.84770  0.98860  0.20960  1.0000 0.1107686364
H   H50       1.0  0.15230  0.48860  0.29040  1.0000 0.1107686364
H   H51       1.0  0.15230  0.01140  0.79040  1.0000 0.1107686364
H   H52       1.0  0.84770  0.51140  0.70960  1.0000 0.1107686364
H   H53       1.0  0.73020  0.06940  0.29370  1.0000 0.1220128205
H   H54       1.0  0.26980  0.56940  0.20630  1.0000 0.1220128205
H   H55       1.0  0.26980  0.93060  0.70630  1.0000 0.1220128205
H   H56       1.0  0.73020  0.43060  0.79370  1.0000 0.1220128205
H   H57       1.0  0.50580  0.13500  0.07380  1.0000 0.140957287
H   H58       1.0  0.49420  0.63500  0.42620  1.0000 0.140957287
H   H59       1.0  0.49420  0.86500  0.92620  1.0000 0.140957287
H   H60       1.0  0.50580  0.36500  0.57380  1.0000 0.140957287
H   H61       1.0  0.62940  0.05290  0.99720  1.0000 0.1107686364
H   H62       1.0  0.37060  0.55290  0.50280  1.0000 0.1107686364
H   H63       1.0  0.37060  0.94710  0.00280  1.0000 0.1107686364
H   H64       1.0  0.62940  0.44710  0.49720  1.0000 0.1107686364
C   C1        1.0  0.17840  0.52216  0.63088  1.0000 0.5453294352
C   C2        1.0  0.82160  0.02216  0.86912  1.0000 0.5453294352
C   C3        1.0  0.82160  0.47784  0.36912  1.0000 0.5453294352
C   C4        1.0  0.17840  0.97784  0.13088  1.0000 0.5453294352
C   C5        1.0  0.24670  0.57212  0.70350  1.0000 -0.0156873507
C   C6        1.0  0.75330  0.07212  0.79650  1.0000 -0.0156873507
C   C7        1.0  0.75330  0.42788  0.29650  1.0000 -0.0156873507
C   C8        1.0  0.24670  0.92788  0.20350  1.0000 -0.0156873507
C   C9        1.0  0.17250  0.62782  0.74430  1.0000 -0.1606058679
C   C10       1.0  0.82750  0.12782  0.75570  1.0000 -0.1606058679
C   C11       1.0  0.82750  0.37218  0.25570  1.0000 -0.1606058679
C   C12       1.0  0.17250  0.87218  0.24430  1.0000 -0.1606058679
C   C13       1.0  0.23430  0.67140  0.81410  1.0000 0.0602947962
C   C14       1.0  0.76570  0.17140  0.68590  1.0000 0.0602947962
C   C15       1.0  0.76570  0.32860  0.18590  1.0000 0.0602947962
C   C16       1.0  0.23430  0.82860  0.31410  1.0000 0.0602947962
C   C17       1.0  0.37310  0.65970  0.84080  1.0000 -0.1373054176
C   C18       1.0  0.62690  0.15970  0.65920  1.0000 -0.1373054176
C   C19       1.0  0.62690  0.34030  0.15920  1.0000 -0.1373054176
C   C20       1.0  0.37310  0.84030  0.34080  1.0000 -0.1373054176
C   C21       1.0  0.44860  0.60630  0.79820  1.0000 -0.0843403466
C   C22       1.0  0.55140  0.10630  0.70180  1.0000 -0.0843403466
C   C23       1.0  0.55140  0.39370  0.20180  1.0000 -0.0843403466
C   C24       1.0  0.44860  0.89370  0.29820  1.0000 -0.0843403466
C   C25       1.0  0.38570  0.56190  0.73040  1.0000 -0.1097202676
C   C26       1.0  0.61430  0.06190  0.76960  1.0000 -0.1097202676
C   C27       1.0  0.61430  0.43810  0.26960  1.0000 -0.1097202676
C   C28       1.0  0.38570  0.93810  0.23040  1.0000 -0.1097202676
C   C29       1.0  0.98670  0.82870  0.86030  1.0000 0.0809887354
C   C30       1.0  0.01330  0.32870  0.63970  1.0000 0.0809887354
C   C31       1.0  0.01330  0.17130  0.13970  1.0000 0.0809887354
C   C32       1.0  0.98670  0.67130  0.36030  1.0000 0.0809887354
C   C33       1.0  0.05860  0.77590  0.81500  1.0000 -0.2010469973
C   C34       1.0  0.94140  0.27590  0.68500  1.0000 -0.2010469973
C   C35       1.0  0.94140  0.22410  0.18500  1.0000 -0.2010469973
C   C36       1.0  0.05860  0.72410  0.31500  1.0000 -0.2010469973
C   C37       1.0  0.15430  0.72880  0.86020  1.0000 0.1220128205
C   C38       1.0  0.84570  0.22880  0.63980  1.0000 0.1220128205
C   C39       1.0  0.84570  0.27120  0.13980  1.0000 0.1220128205
C   C40       1.0  0.15430  0.77120  0.36020  1.0000 0.1220128205
C   C41       1.0  0.17250  0.73780  0.95110  1.0000 -0.2010469973
C   C42       1.0  0.82750  0.23780  0.54890  1.0000 -0.2010469973
C   C43       1.0  0.82750  0.26220  0.04890  1.0000 -0.2010469973
C   C44       1.0  0.17250  0.76220  0.45110  1.0000 -0.2010469973
C   C45       1.0  0.09550  0.79080  0.99170  1.0000 0.069566714
C   C46       1.0  0.90450  0.29080  0.50830  1.0000 0.069566714
C   C47       1.0  0.90450  0.20920  0.00830  1.0000 0.069566714
C   C48       1.0  0.09550  0.70920  0.49170  1.0000 0.069566714
C   C49       1.0  0.27640  0.31330  0.39460  1.0000 0.540390654
C   C50       1.0  0.72360  0.81330  0.10540  1.0000 0.540390654
C   C51       1.0  0.72360  0.68670  0.60540  1.0000 0.540390654
C   C52       1.0  0.27640  0.18670  0.89460  1.0000 0.540390654
C   C53       1.0  0.36260  0.26200  0.34290  1.0000 -0.0148452982
C   C54       1.0  0.63740  0.76200  0.15710  1.0000 -0.0148452982
C   C55       1.0  0.63740  0.73800  0.65710  1.0000 -0.0148452982
C   C56       1.0  0.36260  0.23800  0.84290  1.0000 -0.0148452982
C   C57       1.0  0.49200  0.23770  0.37730  1.0000 -0.1097202676
C   C58       1.0  0.50800  0.73770  0.12270  1.0000 -0.1097202676
C   C59       1.0  0.50800  0.76230  0.62270  1.0000 -0.1097202676
C   C60       1.0  0.49200  0.26230  0.87730  1.0000 -0.1097202676
C   C61       1.0  0.56840  0.18900  0.32910  1.0000 -0.1606058679
C   C62       1.0  0.43160  0.68900  0.17090  1.0000 -0.1606058679
C   C63       1.0  0.43160  0.81100  0.67090  1.0000 -0.1606058679
C   C64       1.0  0.56840  0.31100  0.82910  1.0000 -0.1606058679
C   C65       1.0  0.51970  0.16417  0.24600  1.0000 0.0602947962
C   C66       1.0  0.48030  0.66417  0.25400  1.0000 0.0602947962
C   C67       1.0  0.48030  0.83583  0.75400  1.0000 0.0602947962
C   C68       1.0  0.51970  0.33583  0.74600  1.0000 0.0602947962
C   C69       1.0  0.39210  0.19000  0.21160  1.0000 -0.1263901141
C   C70       1.0  0.60790  0.69000  0.28840  1.0000 -0.1263901141
C   C71       1.0  0.60790  0.81000  0.78840  1.0000 -0.1263901141
C   C72       1.0  0.39210  0.31000  0.71160  1.0000 -0.1263901141
C   C73       1.0  0.31530  0.23890  0.25940  1.0000 -0.1097202676
C   C74       1.0  0.68470  0.73890  0.24060  1.0000 -0.1097202676
C   C75       1.0  0.68470  0.76110  0.74060  1.0000 -0.1097202676
C   C76       1.0  0.31530  0.26110  0.75940  1.0000 -0.1097202676
C   C77       1.0  0.77790  0.01870  0.18180  1.0000 0.0809887354
C   C78       1.0  0.22210  0.51870  0.31820  1.0000 0.0809887354
C   C79       1.0  0.22210  0.98130  0.81820  1.0000 0.0809887354
C   C80       1.0  0.77790  0.48130  0.68180  1.0000 0.0809887354
C   C81       1.0  0.70720  0.06710  0.23320  1.0000 -0.2078899905
C   C82       1.0  0.29280  0.56710  0.26680  1.0000 -0.2078899905
C   C83       1.0  0.29280  0.93290  0.76680  1.0000 -0.2078899905
C   C84       1.0  0.70720  0.43290  0.73320  1.0000 -0.2078899905
C   C85       1.0  0.60130  0.11231  0.19410  1.0000 0.1107686364
C   C86       1.0  0.39870  0.61231  0.30590  1.0000 0.1107686364
C   C87       1.0  0.39870  0.88769  0.80590  1.0000 0.1107686364
C   C88       1.0  0.60130  0.38769  0.69410  1.0000 0.1107686364
C   C89       1.0  0.57500  0.10570  0.10350  1.0000 -0.1834364101
C   C90       1.0  0.42500  0.60570  0.39650  1.0000 -0.1834364101
C   C91       1.0  0.42500  0.89430  0.89650  1.0000 -0.1834364101
C   C92       1.0  0.57500  0.39430  0.60350  1.0000 -0.1834364101
C   C93       1.0  0.65030  0.05630  0.05780  1.0000 0.069566714
C   C94       1.0  0.34970  0.55630  0.44220  1.0000 0.069566714
C   C95       1.0  0.34970  0.94370  0.94220  1.0000 0.069566714
C   C96       1.0  0.65030  0.44370  0.55780  1.0000 0.069566714
N   N1        1.0  0.00190  0.83652  0.94711  1.0000 -0.2345685229
N   N2        1.0  0.99810  0.33652  0.55289  1.0000 -0.2345685229
N   N3        1.0  0.99810  0.16348  0.05289  1.0000 -0.2345685229
N   N4        1.0  0.00190  0.66348  0.44711  1.0000 -0.2345685229
N   N5        1.0  0.75220  0.01260  0.09490  1.0000 -0.23726269
N   N6        1.0  0.24780  0.51260  0.40510  1.0000 -0.23726269
N   N7        1.0  0.24780  0.98740  0.90510  1.0000 -0.23726269
N   N8        1.0  0.75220  0.48740  0.59490  1.0000 -0.23726269
O   O1        1.0  0.24610  0.46548  0.60773  1.0000 -0.5312221661
O   O2        1.0  0.75390  0.96548  0.89227  1.0000 -0.5312221661
O   O3        1.0  0.75390  0.53452  0.39227  1.0000 -0.5312221661
O   O4        1.0  0.24610  0.03452  0.10773  1.0000 -0.5312221661
O   O5        1.0  0.32170  0.33315  0.47086  1.0000 -0.5512633487
O   O6        1.0  0.67830  0.83315  0.02914  1.0000 -0.5512633487
O   O7        1.0  0.67830  0.66685  0.52914  1.0000 -0.5512633487
O   O8        1.0  0.32170  0.16685  0.97086  1.0000 -0.5512633487
O   O9        1.0  0.16130  0.33452  0.35984  1.0000 -0.5512633487
O   O10       1.0  0.83870  0.83452  0.14016  1.0000 -0.5512633487
O   O11       1.0  0.83870  0.66548  0.64016  1.0000 -0.5512633487
O   O12       1.0  0.16130  0.16548  0.85984  1.0000 -0.5512633487
O   O13       1.0  0.06320  0.53812  0.59785  1.0000 -0.5512633487
O   O14       1.0  0.93680  0.03812  0.90215  1.0000 -0.5512633487
O   O15       1.0  0.93680  0.46188  0.40215  1.0000 -0.5512633487
O   O16       1.0  0.06320  0.96188  0.09785  1.0000 -0.5512633487
