# DDEC6 charges by PACMAN v1.1 (https://github.com/mtap-research/PACMAN-charge/)
data_2015[Cu][nan]3[ASR]9
_chemical_formula_sum              "Cu32 H128 C112 N96"
_cell_length_a       24.148
_cell_length_b       15.173
_cell_length_c       15.497
_cell_angle_alpha    90
_cell_angle_beta     118.979
_cell_angle_gamma    90

_symmetry_space_group_name_H-M    "P 1"
_symmetry_Int_Tables_number       1

loop_
  _symmetry_equiv_pos_as_xyz
  'x, y, z'

loop_
  _atom_site_type_symbol
  _atom_site_label
  _atom_site_symmetry_multiplicity
  _atom_site_fract_x
  _atom_site_fract_y
  _atom_site_fract_z
  _atom_site_occupancy
  _atom_site_charge
Cu  Cu1       1.0  0.50000  0.20601  0.75000  1.0000 0.2987874438
Cu  Cu2       1.0  0.50000  0.79399  0.25000  1.0000 0.2987874438
Cu  Cu3       1.0  0.00000  0.70601  0.75000  1.0000 0.2987874438
Cu  Cu4       1.0  1.00000  0.29399  0.25000  1.0000 0.2987874438
Cu  Cu5       1.0  0.23603  0.13997  0.45607  1.0000 0.276433098
Cu  Cu6       1.0  0.76397  0.86003  0.54393  1.0000 0.276433098
Cu  Cu7       1.0  0.76397  0.13997  0.04393  1.0000 0.276433098
Cu  Cu8       1.0  0.23603  0.86003  0.95607  1.0000 0.276433098
Cu  Cu9       1.0  0.73603  0.63997  0.45607  1.0000 0.276433098
Cu  Cu10      1.0  0.26397  0.36003  0.54393  1.0000 0.276433098
Cu  Cu11      1.0  0.26397  0.63997  0.04393  1.0000 0.276433098
Cu  Cu12      1.0  0.73603  0.36003  0.95607  1.0000 0.276433098
Cu  Cu13      1.0  0.31597  0.23230  0.32791  1.0000 0.2749688093
Cu  Cu14      1.0  0.68403  0.76770  0.67209  1.0000 0.2749688093
Cu  Cu15      1.0  0.68403  0.23230  0.17209  1.0000 0.2749688093
Cu  Cu16      1.0  0.31597  0.76770  0.82791  1.0000 0.2749688093
Cu  Cu17      1.0  0.81597  0.73230  0.32791  1.0000 0.2749688093
Cu  Cu18      1.0  0.18403  0.26770  0.67209  1.0000 0.2749688093
Cu  Cu19      1.0  0.18403  0.73230  0.17209  1.0000 0.2749688093
Cu  Cu20      1.0  0.81597  0.26770  0.82791  1.0000 0.2749688093
Cu  Cu21      1.0  0.56919  0.38721  0.51427  1.0000 0.2900818836
Cu  Cu22      1.0  0.43081  0.61279  0.48573  1.0000 0.2900818836
Cu  Cu23      1.0  0.43081  0.38721  0.98573  1.0000 0.2900818836
Cu  Cu24      1.0  0.56919  0.61279  0.01427  1.0000 0.2900818836
Cu  Cu25      1.0  0.06919  0.88721  0.51427  1.0000 0.2900818836
Cu  Cu26      1.0  0.93081  0.11279  0.48573  1.0000 0.2900818836
Cu  Cu27      1.0  0.93081  0.88721  0.98573  1.0000 0.2900818836
Cu  Cu28      1.0  0.06919  0.11279  0.01427  1.0000 0.2900818836
Cu  Cu29      1.0  0.50000  0.43215  0.25000  1.0000 0.3177763436
Cu  Cu30      1.0  0.50000  0.56785  0.75000  1.0000 0.3177763436
Cu  Cu31      1.0  1.00000  0.93215  0.25000  1.0000 0.3177763436
Cu  Cu32      1.0  0.00000  0.06785  0.75000  1.0000 0.3177763436
H   H1        1.0  0.30457  0.13155  0.67993  1.0000 0.1488129703
H   H2        1.0  0.69543  0.86845  0.32007  1.0000 0.1488129703
H   H3        1.0  0.69543  0.13155  0.82007  1.0000 0.1488129703
H   H4        1.0  0.30457  0.86845  0.17993  1.0000 0.1488129703
H   H5        1.0  0.80457  0.63155  0.67993  1.0000 0.1488129703
H   H6        1.0  0.19543  0.36845  0.32007  1.0000 0.1488129703
H   H7        1.0  0.19543  0.63155  0.82007  1.0000 0.1488129703
H   H8        1.0  0.80457  0.36845  0.17993  1.0000 0.1488129703
H   H9        1.0  0.37820  0.17859  0.77018  1.0000 0.1488129703
H   H10       1.0  0.62180  0.82141  0.22982  1.0000 0.1488129703
H   H11       1.0  0.62180  0.17859  0.72982  1.0000 0.1488129703
H   H12       1.0  0.37820  0.82141  0.27018  1.0000 0.1488129703
H   H13       1.0  0.87820  0.67859  0.77018  1.0000 0.1488129703
H   H14       1.0  0.12180  0.32141  0.22982  1.0000 0.1488129703
H   H15       1.0  0.12180  0.67859  0.72982  1.0000 0.1488129703
H   H16       1.0  0.87820  0.32141  0.27018  1.0000 0.1488129703
H   H17       1.0  0.37674  0.06916  0.72600  1.0000 0.1488129703
H   H18       1.0  0.62326  0.93084  0.27400  1.0000 0.1488129703
H   H19       1.0  0.62326  0.06916  0.77400  1.0000 0.1488129703
H   H20       1.0  0.37674  0.93084  0.22600  1.0000 0.1488129703
H   H21       1.0  0.87674  0.56916  0.72600  1.0000 0.1488129703
H   H22       1.0  0.12326  0.43084  0.27400  1.0000 0.1488129703
H   H23       1.0  0.12326  0.56916  0.77400  1.0000 0.1488129703
H   H24       1.0  0.87674  0.43084  0.22600  1.0000 0.1488129703
H   H25       1.0  0.50389  0.23880  0.56729  1.0000 0.1122911459
H   H26       1.0  0.49611  0.76120  0.43271  1.0000 0.1122911459
H   H27       1.0  0.49611  0.23880  0.93271  1.0000 0.1122911459
H   H28       1.0  0.50389  0.76120  0.06729  1.0000 0.1122911459
H   H29       1.0  0.00389  0.73880  0.56729  1.0000 0.1122911459
H   H30       1.0  0.99611  0.26120  0.43271  1.0000 0.1122911459
H   H31       1.0  0.99611  0.73880  0.93271  1.0000 0.1122911459
H   H32       1.0  0.00389  0.26120  0.06729  1.0000 0.1122911459
H   H33       1.0  0.47208  0.33980  0.57637  1.0000 0.1295827281
H   H34       1.0  0.52792  0.66020  0.42363  1.0000 0.1295827281
H   H35       1.0  0.52792  0.33980  0.92363  1.0000 0.1295827281
H   H36       1.0  0.47208  0.66020  0.07637  1.0000 0.1295827281
H   H37       1.0  0.97208  0.83980  0.57637  1.0000 0.1295827281
H   H38       1.0  0.02792  0.16020  0.42363  1.0000 0.1295827281
H   H39       1.0  0.02792  0.83980  0.92363  1.0000 0.1295827281
H   H40       1.0  0.97208  0.16020  0.07637  1.0000 0.1295827281
H   H41       1.0  0.31439  0.35516  0.14799  1.0000 0.1394176379
H   H42       1.0  0.68561  0.64484  0.85201  1.0000 0.1394176379
H   H43       1.0  0.68561  0.35516  0.35201  1.0000 0.1394176379
H   H44       1.0  0.31439  0.64484  0.64799  1.0000 0.1394176379
H   H45       1.0  0.81439  0.85516  0.14799  1.0000 0.1394176379
H   H46       1.0  0.18561  0.14484  0.85201  1.0000 0.1394176379
H   H47       1.0  0.18561  0.85516  0.35201  1.0000 0.1394176379
H   H48       1.0  0.81439  0.14484  0.64799  1.0000 0.1394176379
H   H49       1.0  0.34807  0.25341  0.13812  1.0000 0.1394176379
H   H50       1.0  0.65193  0.74659  0.86188  1.0000 0.1394176379
H   H51       1.0  0.65193  0.25341  0.36188  1.0000 0.1394176379
H   H52       1.0  0.34807  0.74659  0.63812  1.0000 0.1394176379
H   H53       1.0  0.84807  0.75341  0.13812  1.0000 0.1394176379
H   H54       1.0  0.15193  0.24659  0.86188  1.0000 0.1394176379
H   H55       1.0  0.15193  0.75341  0.36188  1.0000 0.1394176379
H   H56       1.0  0.84807  0.24659  0.63812  1.0000 0.1394176379
H   H57       1.0  0.38103  0.35628  0.12712  1.0000 0.1394176379
H   H58       1.0  0.61897  0.64372  0.87288  1.0000 0.1394176379
H   H59       1.0  0.61897  0.35628  0.37288  1.0000 0.1394176379
H   H60       1.0  0.38103  0.64372  0.62712  1.0000 0.1394176379
H   H61       1.0  0.88103  0.85628  0.12712  1.0000 0.1394176379
H   H62       1.0  0.11897  0.14372  0.87288  1.0000 0.1394176379
H   H63       1.0  0.11897  0.85628  0.37288  1.0000 0.1394176379
H   H64       1.0  0.88103  0.14372  0.62712  1.0000 0.1394176379
H   H65       1.0  0.66973  0.51116  0.65274  1.0000 0.1488129703
H   H66       1.0  0.33027  0.48884  0.34726  1.0000 0.1488129703
H   H67       1.0  0.33027  0.51116  0.84726  1.0000 0.1488129703
H   H68       1.0  0.66973  0.48884  0.15274  1.0000 0.1488129703
H   H69       1.0  0.16973  0.01116  0.65274  1.0000 0.1488129703
H   H70       1.0  0.83027  0.98884  0.34726  1.0000 0.1488129703
H   H71       1.0  0.83027  0.01116  0.84726  1.0000 0.1488129703
H   H72       1.0  0.16973  0.98884  0.15274  1.0000 0.1488129703
H   H73       1.0  0.70326  0.61097  0.63641  1.0000 0.1208566891
H   H74       1.0  0.29674  0.38903  0.36359  1.0000 0.1208566891
H   H75       1.0  0.29674  0.61097  0.86359  1.0000 0.1208566891
H   H76       1.0  0.70326  0.38903  0.13641  1.0000 0.1208566891
H   H77       1.0  0.20326  0.11097  0.63641  1.0000 0.1208566891
H   H78       1.0  0.79674  0.88903  0.36359  1.0000 0.1208566891
H   H79       1.0  0.79674  0.11097  0.86359  1.0000 0.1208566891
H   H80       1.0  0.20326  0.88903  0.13641  1.0000 0.1208566891
H   H81       1.0  0.73850  0.50694  0.63758  1.0000 0.1488129703
H   H82       1.0  0.26150  0.49306  0.36242  1.0000 0.1488129703
H   H83       1.0  0.26150  0.50694  0.86242  1.0000 0.1488129703
H   H84       1.0  0.73850  0.49306  0.13758  1.0000 0.1488129703
H   H85       1.0  0.23850  0.00694  0.63758  1.0000 0.1488129703
H   H86       1.0  0.76150  0.99306  0.36242  1.0000 0.1488129703
H   H87       1.0  0.76150  0.00694  0.86242  1.0000 0.1488129703
H   H88       1.0  0.23850  0.99306  0.13758  1.0000 0.1488129703
H   H89       1.0  0.57086  0.53486  0.19574  1.0000 0.1208566891
H   H90       1.0  0.42914  0.46514  0.80426  1.0000 0.1208566891
H   H91       1.0  0.42914  0.53486  0.30426  1.0000 0.1208566891
H   H92       1.0  0.57086  0.46514  0.69574  1.0000 0.1208566891
H   H93       1.0  0.07086  0.03486  0.19574  1.0000 0.1208566891
H   H94       1.0  0.92914  0.96514  0.80426  1.0000 0.1208566891
H   H95       1.0  0.92914  0.03486  0.30426  1.0000 0.1208566891
H   H96       1.0  0.07086  0.96514  0.69574  1.0000 0.1208566891
H   H97       1.0  0.55462  0.63909  0.22603  1.0000 0.1048673232
H   H98       1.0  0.44538  0.36091  0.77397  1.0000 0.1048673232
H   H99       1.0  0.44538  0.63909  0.27397  1.0000 0.1048673232
H   H100      1.0  0.55462  0.36091  0.72603  1.0000 0.1048673232
H   H101      1.0  0.05462  0.13909  0.22603  1.0000 0.1048673232
H   H102      1.0  0.94538  0.86091  0.77397  1.0000 0.1048673232
H   H103      1.0  0.94538  0.13909  0.27397  1.0000 0.1048673232
H   H104      1.0  0.05462  0.86091  0.72603  1.0000 0.1048673232
H   H105      1.0  0.72201  0.66324  0.05206  1.0000 0.1488129703
H   H106      1.0  0.27799  0.33676  0.94794  1.0000 0.1488129703
H   H107      1.0  0.27799  0.66324  0.44794  1.0000 0.1488129703
H   H108      1.0  0.72201  0.33676  0.55206  1.0000 0.1488129703
H   H109      1.0  0.22201  0.16324  0.05206  1.0000 0.1488129703
H   H110      1.0  0.77799  0.83676  0.94794  1.0000 0.1488129703
H   H111      1.0  0.77799  0.16324  0.44794  1.0000 0.1488129703
H   H112      1.0  0.22201  0.83676  0.55206  1.0000 0.1488129703
H   H113      1.0  0.73907  0.77077  0.10616  1.0000 0.1394176379
H   H114      1.0  0.26093  0.22923  0.89384  1.0000 0.1394176379
H   H115      1.0  0.26093  0.77077  0.39384  1.0000 0.1394176379
H   H116      1.0  0.73907  0.22923  0.60616  1.0000 0.1394176379
H   H117      1.0  0.23907  0.27077  0.10616  1.0000 0.1394176379
H   H118      1.0  0.76093  0.72923  0.89384  1.0000 0.1394176379
H   H119      1.0  0.76093  0.27077  0.39384  1.0000 0.1394176379
H   H120      1.0  0.23907  0.72923  0.60616  1.0000 0.1394176379
H   H121      1.0  0.65934  0.74104  0.01627  1.0000 0.1394176379
H   H122      1.0  0.34066  0.25896  0.98373  1.0000 0.1394176379
H   H123      1.0  0.34066  0.74104  0.48373  1.0000 0.1394176379
H   H124      1.0  0.65934  0.25896  0.51627  1.0000 0.1394176379
H   H125      1.0  0.15934  0.24104  0.01627  1.0000 0.1394176379
H   H126      1.0  0.84066  0.75896  0.98373  1.0000 0.1394176379
H   H127      1.0  0.84066  0.24104  0.48373  1.0000 0.1394176379
H   H128      1.0  0.15934  0.75896  0.51627  1.0000 0.1394176379
C   C1        1.0  0.35558  0.13562  0.70452  1.0000 -0.4521061033
C   C2        1.0  0.64442  0.86438  0.29548  1.0000 -0.4521061033
C   C3        1.0  0.64442  0.13562  0.79548  1.0000 -0.4521061033
C   C4        1.0  0.35558  0.86438  0.20452  1.0000 -0.4521061033
C   C5        1.0  0.85558  0.63562  0.70452  1.0000 -0.4521061033
C   C6        1.0  0.14442  0.36438  0.29548  1.0000 -0.4521061033
C   C7        1.0  0.14442  0.63562  0.79548  1.0000 -0.4521061033
C   C8        1.0  0.85558  0.36438  0.20452  1.0000 -0.4521061033
C   C9        1.0  0.36549  0.17201  0.62407  1.0000 0.3828808431
C   C10       1.0  0.63451  0.82799  0.37593  1.0000 0.3828808431
C   C11       1.0  0.63451  0.17201  0.87593  1.0000 0.3828808431
C   C12       1.0  0.36549  0.82799  0.12407  1.0000 0.3828808431
C   C13       1.0  0.86549  0.67201  0.62407  1.0000 0.3828808431
C   C14       1.0  0.13451  0.32799  0.37593  1.0000 0.3828808431
C   C15       1.0  0.13451  0.67201  0.87593  1.0000 0.3828808431
C   C16       1.0  0.86549  0.32799  0.12407  1.0000 0.3828808431
C   C17       1.0  0.40998  0.23226  0.54621  1.0000 0.3513428037
C   C18       1.0  0.59002  0.76774  0.45379  1.0000 0.3513428037
C   C19       1.0  0.59002  0.23226  0.95379  1.0000 0.3513428037
C   C20       1.0  0.40998  0.76774  0.04621  1.0000 0.3513428037
C   C21       1.0  0.90998  0.73226  0.54621  1.0000 0.3513428037
C   C22       1.0  0.09002  0.26774  0.45379  1.0000 0.3513428037
C   C23       1.0  0.09002  0.73226  0.95379  1.0000 0.3513428037
C   C24       1.0  0.90998  0.26774  0.04621  1.0000 0.3513428037
C   C25       1.0  0.45956  0.27809  0.53231  1.0000 -0.3201321896
C   C26       1.0  0.54044  0.72191  0.46769  1.0000 -0.3201321896
C   C27       1.0  0.54044  0.27809  0.96769  1.0000 -0.3201321896
C   C28       1.0  0.45956  0.72191  0.03231  1.0000 -0.3201321896
C   C29       1.0  0.95956  0.77809  0.53231  1.0000 -0.3201321896
C   C30       1.0  0.04044  0.22191  0.46769  1.0000 -0.3201321896
C   C31       1.0  0.04044  0.77809  0.96769  1.0000 -0.3201321896
C   C32       1.0  0.95956  0.22191  0.03231  1.0000 -0.3201321896
C   C33       1.0  0.44544  0.30159  0.43029  1.0000 0.3513428037
C   C34       1.0  0.55456  0.69841  0.56971  1.0000 0.3513428037
C   C35       1.0  0.55456  0.30159  0.06971  1.0000 0.3513428037
C   C36       1.0  0.44544  0.69841  0.93029  1.0000 0.3513428037
C   C37       1.0  0.94544  0.80159  0.43029  1.0000 0.3513428037
C   C38       1.0  0.05456  0.19841  0.56971  1.0000 0.3513428037
C   C39       1.0  0.05456  0.80159  0.06971  1.0000 0.3513428037
C   C40       1.0  0.94544  0.19841  0.93029  1.0000 0.3513428037
C   C41       1.0  0.40382  0.32278  0.27374  1.0000 0.3884516422
C   C42       1.0  0.59618  0.67722  0.72626  1.0000 0.3884516422
C   C43       1.0  0.59618  0.32278  0.22626  1.0000 0.3884516422
C   C44       1.0  0.40382  0.67722  0.77374  1.0000 0.3884516422
C   C45       1.0  0.90382  0.82278  0.27374  1.0000 0.3884516422
C   C46       1.0  0.09618  0.17722  0.72626  1.0000 0.3884516422
C   C47       1.0  0.09618  0.82278  0.22626  1.0000 0.3884516422
C   C48       1.0  0.90382  0.17722  0.77374  1.0000 0.3884516422
C   C49       1.0  0.35948  0.32178  0.16602  1.0000 -0.457635441
C   C50       1.0  0.64052  0.67822  0.83398  1.0000 -0.457635441
C   C51       1.0  0.64052  0.32178  0.33398  1.0000 -0.457635441
C   C52       1.0  0.35948  0.67822  0.66602  1.0000 -0.457635441
C   C53       1.0  0.85948  0.82178  0.16602  1.0000 -0.457635441
C   C54       1.0  0.14052  0.17822  0.83398  1.0000 -0.457635441
C   C55       1.0  0.14052  0.82178  0.33398  1.0000 -0.457635441
C   C56       1.0  0.85948  0.17822  0.66602  1.0000 -0.457635441
C   C57       1.0  0.69292  0.54099  0.61388  1.0000 -0.4521061033
C   C58       1.0  0.30708  0.45901  0.38612  1.0000 -0.4521061033
C   C59       1.0  0.30708  0.54099  0.88612  1.0000 -0.457635441
C   C60       1.0  0.69292  0.45901  0.11388  1.0000 -0.4521061033
C   C61       1.0  0.19292  0.04099  0.61388  1.0000 -0.4521061033
C   C62       1.0  0.80708  0.95901  0.38612  1.0000 -0.4521061033
C   C63       1.0  0.80708  0.04099  0.88612  1.0000 -0.457635441
C   C64       1.0  0.19292  0.95901  0.11388  1.0000 -0.4521061033
C   C65       1.0  0.65082  0.53501  0.50520  1.0000 0.3694126092
C   C66       1.0  0.34918  0.46499  0.49480  1.0000 0.3694126092
C   C67       1.0  0.34918  0.53501  0.99480  1.0000 0.3694126092
C   C68       1.0  0.65082  0.46499  0.00520  1.0000 0.3694126092
C   C69       1.0  0.15082  0.03501  0.50520  1.0000 0.3694126092
C   C70       1.0  0.84918  0.96499  0.49480  1.0000 0.3694126092
C   C71       1.0  0.84918  0.03501  0.99480  1.0000 0.3694126092
C   C72       1.0  0.15082  0.96499  0.00520  1.0000 0.3694126092
C   C73       1.0  0.60988  0.55674  0.34893  1.0000 0.3331810784
C   C74       1.0  0.39012  0.44326  0.65107  1.0000 0.3331810784
C   C75       1.0  0.39012  0.55674  0.15107  1.0000 0.3331810784
C   C76       1.0  0.60988  0.44326  0.84893  1.0000 0.3331810784
C   C77       1.0  0.10988  0.05674  0.34893  1.0000 0.3331810784
C   C78       1.0  0.89012  0.94326  0.65107  1.0000 0.3331810784
C   C79       1.0  0.89012  0.05674  0.15107  1.0000 0.3331810784
C   C80       1.0  0.10988  0.94326  0.84893  1.0000 0.3331810784
C   C81       1.0  0.59343  0.58978  0.24859  1.0000 -0.3129330735
C   C82       1.0  0.40657  0.41022  0.75141  1.0000 -0.3129330735
C   C83       1.0  0.40657  0.58978  0.25141  1.0000 -0.3129330735
C   C84       1.0  0.59343  0.41022  0.74859  1.0000 -0.3129330735
C   C85       1.0  0.09343  0.08978  0.24859  1.0000 -0.3129330735
C   C86       1.0  0.90657  0.91022  0.75141  1.0000 -0.3129330735
C   C87       1.0  0.90657  0.08978  0.25141  1.0000 -0.3129330735
C   C88       1.0  0.09343  0.91022  0.74859  1.0000 -0.3129330735
C   C89       1.0  0.64457  0.62982  0.23433  1.0000 0.3331810784
C   C90       1.0  0.35543  0.37018  0.76567  1.0000 0.3331810784
C   C91       1.0  0.35543  0.62982  0.26567  1.0000 0.3331810784
C   C92       1.0  0.64457  0.37018  0.73433  1.0000 0.3331810784
C   C93       1.0  0.14457  0.12982  0.23433  1.0000 0.3331810784
C   C94       1.0  0.85543  0.87018  0.76567  1.0000 0.3331810784
C   C95       1.0  0.85543  0.12982  0.26567  1.0000 0.3331810784
C   C96       1.0  0.14457  0.87018  0.73433  1.0000 0.3331810784
C   C97       1.0  0.69113  0.68671  0.15894  1.0000 0.3694126092
C   C98       1.0  0.30887  0.31329  0.84106  1.0000 0.3694126092
C   C99       1.0  0.30887  0.68671  0.34106  1.0000 0.3694126092
C   C100      1.0  0.69113  0.31329  0.65894  1.0000 0.3694126092
C   C101      1.0  0.19113  0.18671  0.15894  1.0000 0.3694126092
C   C102      1.0  0.80887  0.81329  0.84106  1.0000 0.3694126092
C   C103      1.0  0.80887  0.18671  0.34106  1.0000 0.3694126092
C   C104      1.0  0.19113  0.81329  0.65894  1.0000 0.3694126092
C   C105      1.0  0.70378  0.71748  0.07921  1.0000 -0.457635441
C   C106      1.0  0.29622  0.28252  0.92079  1.0000 -0.457635441
C   C107      1.0  0.29622  0.71748  0.42079  1.0000 -0.457635441
C   C108      1.0  0.70378  0.28252  0.57921  1.0000 -0.457635441
C   C109      1.0  0.20378  0.21748  0.07921  1.0000 -0.457635441
C   C110      1.0  0.79622  0.78252  0.92079  1.0000 -0.457635441
C   C111      1.0  0.79622  0.21748  0.42079  1.0000 -0.457635441
C   C112      1.0  0.20378  0.78252  0.57921  1.0000 -0.457635441
N   N1        1.0  0.42228  0.20467  0.63833  1.0000 -0.4288786642
N   N2        1.0  0.57772  0.79533  0.36167  1.0000 -0.4288786642
N   N3        1.0  0.57772  0.20467  0.86167  1.0000 -0.4288786642
N   N4        1.0  0.42228  0.79533  0.13833  1.0000 -0.4288786642
N   N5        1.0  0.92228  0.70467  0.63833  1.0000 -0.4288786642
N   N6        1.0  0.07772  0.29533  0.36167  1.0000 -0.4288786642
N   N7        1.0  0.07772  0.70467  0.86167  1.0000 -0.4288786642
N   N8        1.0  0.92228  0.29533  0.13833  1.0000 -0.4288786642
N   N9        1.0  0.32093  0.17798  0.52858  1.0000 -0.270631143
N   N10       1.0  0.67907  0.82202  0.47142  1.0000 -0.270631143
N   N11       1.0  0.67907  0.17798  0.97142  1.0000 -0.270631143
N   N12       1.0  0.32093  0.82202  0.02858  1.0000 -0.270631143
N   N13       1.0  0.82093  0.67798  0.52858  1.0000 -0.270631143
N   N14       1.0  0.17907  0.32202  0.47142  1.0000 -0.270631143
N   N15       1.0  0.17907  0.67798  0.97142  1.0000 -0.270631143
N   N16       1.0  0.82093  0.32202  0.02858  1.0000 -0.270631143
N   N17       1.0  0.35003  0.21730  0.47813  1.0000 -0.242248715
N   N18       1.0  0.64997  0.78270  0.52187  1.0000 -0.242248715
N   N19       1.0  0.64997  0.21730  0.02187  1.0000 -0.242248715
N   N20       1.0  0.35003  0.78270  0.97813  1.0000 -0.242248715
N   N21       1.0  0.85003  0.71730  0.47813  1.0000 -0.242248715
N   N22       1.0  0.14997  0.28270  0.52187  1.0000 -0.242248715
N   N23       1.0  0.14997  0.71730  0.02187  1.0000 -0.242248715
N   N24       1.0  0.85003  0.28270  0.97813  1.0000 -0.242248715
N   N25       1.0  0.39190  0.28408  0.34345  1.0000 -0.4144557261
N   N26       1.0  0.60810  0.71592  0.65655  1.0000 -0.4157902833
N   N27       1.0  0.60810  0.28408  0.15655  1.0000 -0.4144557261
N   N28       1.0  0.39190  0.71592  0.84345  1.0000 -0.4144557261
N   N29       1.0  0.89190  0.78408  0.34345  1.0000 -0.4157902833
N   N30       1.0  0.10810  0.21592  0.65655  1.0000 -0.4157902833
N   N31       1.0  0.10810  0.78408  0.15655  1.0000 -0.4144557261
N   N32       1.0  0.89190  0.21592  0.84345  1.0000 -0.4144557261
N   N33       1.0  0.48812  0.34737  0.41650  1.0000 -0.257968668
N   N34       1.0  0.51188  0.65263  0.58350  1.0000 -0.257968668
N   N35       1.0  0.51188  0.34737  0.08350  1.0000 -0.257968668
N   N36       1.0  0.48812  0.65263  0.91650  1.0000 -0.257968668
N   N37       1.0  0.98812  0.84737  0.41650  1.0000 -0.257968668
N   N38       1.0  0.01188  0.15263  0.58350  1.0000 -0.257968668
N   N39       1.0  0.01188  0.84737  0.08350  1.0000 -0.257968668
N   N40       1.0  0.98812  0.15263  0.91650  1.0000 -0.257968668
N   N41       1.0  0.46103  0.36162  0.31478  1.0000 -0.257968668
N   N42       1.0  0.53897  0.63838  0.68522  1.0000 -0.257968668
N   N43       1.0  0.53897  0.36162  0.18522  1.0000 -0.257968668
N   N44       1.0  0.46103  0.63838  0.81478  1.0000 -0.257968668
N   N45       1.0  0.96103  0.86162  0.31478  1.0000 -0.257968668
N   N46       1.0  0.03897  0.13838  0.68522  1.0000 -0.257968668
N   N47       1.0  0.03897  0.86162  0.18522  1.0000 -0.257968668
N   N48       1.0  0.96103  0.13838  0.81478  1.0000 -0.257968668
N   N49       1.0  0.57033  0.50138  0.35990  1.0000 -0.270631143
N   N50       1.0  0.42967  0.49862  0.64010  1.0000 -0.270631143
N   N51       1.0  0.42967  0.50138  0.14010  1.0000 -0.270631143
N   N52       1.0  0.57033  0.49862  0.85990  1.0000 -0.270631143
N   N53       1.0  0.07033  0.00138  0.35990  1.0000 -0.270631143
N   N54       1.0  0.92967  0.99862  0.64010  1.0000 -0.270631143
N   N55       1.0  0.92967  0.00138  0.14010  1.0000 -0.270631143
N   N56       1.0  0.07033  0.99862  0.85990  1.0000 -0.270631143
N   N57       1.0  0.59702  0.48720  0.46177  1.0000 -0.257968668
N   N58       1.0  0.40298  0.51280  0.53823  1.0000 -0.257968668
N   N59       1.0  0.40298  0.48720  0.03823  1.0000 -0.257968668
N   N60       1.0  0.59702  0.51280  0.96177  1.0000 -0.257968668
N   N61       1.0  0.09702  0.98720  0.46177  1.0000 -0.257968668
N   N62       1.0  0.90298  0.01280  0.53823  1.0000 -0.257968668
N   N63       1.0  0.90298  0.98720  0.03823  1.0000 -0.257968668
N   N64       1.0  0.09702  0.01280  0.96177  1.0000 -0.257968668
N   N65       1.0  0.66108  0.57969  0.43733  1.0000 -0.4144557261
N   N66       1.0  0.33892  0.42031  0.56267  1.0000 -0.4144557261
N   N67       1.0  0.33892  0.57969  0.06267  1.0000 -0.4144557261
N   N68       1.0  0.66108  0.42031  0.93733  1.0000 -0.4144557261
N   N69       1.0  0.16108  0.07969  0.43733  1.0000 -0.4144557261
N   N70       1.0  0.83892  0.92031  0.56267  1.0000 -0.4144557261
N   N71       1.0  0.83892  0.07969  0.06267  1.0000 -0.4144557261
N   N72       1.0  0.16108  0.92031  0.93733  1.0000 -0.4144557261
N   N73       1.0  0.63509  0.64928  0.14156  1.0000 -0.4288786642
N   N74       1.0  0.36491  0.35072  0.85844  1.0000 -0.4288786642
N   N75       1.0  0.36491  0.64928  0.35844  1.0000 -0.4288786642
N   N76       1.0  0.63509  0.35072  0.64156  1.0000 -0.4288786642
N   N77       1.0  0.13509  0.14928  0.14156  1.0000 -0.4288786642
N   N78       1.0  0.86491  0.85072  0.85844  1.0000 -0.4288786642
N   N79       1.0  0.86491  0.14928  0.35844  1.0000 -0.4288786642
N   N80       1.0  0.13509  0.85072  0.64156  1.0000 -0.4288786642
N   N81       1.0  0.73271  0.69036  0.25658  1.0000 -0.257968668
N   N82       1.0  0.26729  0.30964  0.74342  1.0000 -0.257968668
N   N83       1.0  0.26729  0.69036  0.24342  1.0000 -0.257968668
N   N84       1.0  0.73271  0.30964  0.75658  1.0000 -0.257968668
N   N85       1.0  0.23271  0.19036  0.25658  1.0000 -0.257968668
N   N86       1.0  0.76729  0.80964  0.74342  1.0000 -0.257968668
N   N87       1.0  0.76729  0.19036  0.24342  1.0000 -0.257968668
N   N88       1.0  0.23271  0.80964  0.75658  1.0000 -0.257968668
N   N89       1.0  0.70224  0.65403  0.30562  1.0000 -0.2509061407
N   N90       1.0  0.29776  0.34597  0.69438  1.0000 -0.2509061407
N   N91       1.0  0.29776  0.65403  0.19438  1.0000 -0.2509061407
N   N92       1.0  0.70224  0.34597  0.80562  1.0000 -0.2509061407
N   N93       1.0  0.20224  0.15403  0.30562  1.0000 -0.2509061407
N   N94       1.0  0.79776  0.84597  0.69438  1.0000 -0.2509061407
N   N95       1.0  0.79776  0.15403  0.19438  1.0000 -0.2509061407
N   N96       1.0  0.20224  0.84597  0.80562  1.0000 -0.2509061407
