# DDEC6 charges by PACMAN v1.1 (https://github.com/mtap-research/PACMAN-charge/)
data_2015[Co][nan]3[ASR]11
_chemical_formula_sum              "Co8 H160 C212 N16 O56"
_cell_length_a       23.7778
_cell_length_b       23.7778
_cell_length_c       23.714
_cell_angle_alpha    84.2798
_cell_angle_beta     95.7202
_cell_angle_gamma    153.928

_symmetry_space_group_name_H-M    "P 1"
_symmetry_Int_Tables_number       1

loop_
  _symmetry_equiv_pos_as_xyz
  'x, y, z'

loop_
  _atom_site_type_symbol
  _atom_site_label
  _atom_site_symmetry_multiplicity
  _atom_site_fract_x
  _atom_site_fract_y
  _atom_site_fract_z
  _atom_site_occupancy
  _atom_site_charge
Co  Co1       1.0  0.66041  0.67749  0.93089  1.0000 0.7890356875
Co  Co2       1.0  0.67749  0.66041  0.56911  1.0000 0.7890356875
Co  Co3       1.0  0.33959  0.32251  0.06911  1.0000 0.7890356875
Co  Co4       1.0  0.32251  0.33959  0.43089  1.0000 0.7890356875
Co  Co5       1.0  0.13346  0.56326  0.92531  1.0000 0.7890356875
Co  Co6       1.0  0.56326  0.13346  0.57469  1.0000 0.7890356875
Co  Co7       1.0  0.86654  0.43674  0.07469  1.0000 0.7890356875
Co  Co8       1.0  0.43674  0.86654  0.42531  1.0000 0.7890356875
H   H1        1.0  0.88700  0.67140  0.13360  1.0000 0.129674687
H   H2        1.0  0.67140  0.88700  0.36640  1.0000 0.129674687
H   H3        1.0  0.11300  0.32860  0.86640  1.0000 0.129674687
H   H4        1.0  0.32860  0.11300  0.63360  1.0000 0.129674687
H   H5        1.0  0.03060  0.91540  0.97970  1.0000 0.1098232856
H   H6        1.0  0.91540  0.03060  0.52030  1.0000 0.1098232856
H   H7        1.0  0.96940  0.08460  0.02030  1.0000 0.1098232856
H   H8        1.0  0.08460  0.96940  0.47970  1.0000 0.1098232856
H   H9        1.0  0.17200  0.98200  0.03300  1.0000 0.121250033
H   H10       1.0  0.98200  0.17200  0.46700  1.0000 0.121250033
H   H11       1.0  0.82800  0.01800  0.96700  1.0000 0.121250033
H   H12       1.0  0.01800  0.82800  0.53300  1.0000 0.121250033
H   H13       1.0  0.74520  0.60260  0.07880  1.0000 0.121250033
H   H14       1.0  0.60260  0.74520  0.42120  1.0000 0.121250033
H   H15       1.0  0.25480  0.39740  0.92120  1.0000 0.121250033
H   H16       1.0  0.39740  0.25480  0.57880  1.0000 0.121250033
H   H17       1.0  0.15810  0.84110  0.05080  1.0000 0.121250033
H   H18       1.0  0.84110  0.15810  0.44920  1.0000 0.121250033
H   H19       1.0  0.84190  0.15890  0.94920  1.0000 0.121250033
H   H20       1.0  0.15890  0.84190  0.55080  1.0000 0.121250033
H   H21       1.0  0.35000  0.10300  0.15580  1.0000 0.129674687
H   H22       1.0  0.10300  0.35000  0.34420  1.0000 0.129674687
H   H23       1.0  0.65000  0.89700  0.84420  1.0000 0.129674687
H   H24       1.0  0.89700  0.65000  0.65580  1.0000 0.129674687
H   H25       1.0  0.54010  0.23670  0.12650  1.0000 0.1098232856
H   H26       1.0  0.23670  0.54010  0.37350  1.0000 0.1098232856
H   H27       1.0  0.45990  0.76330  0.87350  1.0000 0.1098232856
H   H28       1.0  0.76330  0.45990  0.62650  1.0000 0.1098232856
H   H29       1.0  0.34550  0.97630  0.01760  1.0000 0.121250033
H   H30       1.0  0.97630  0.34550  0.48240  1.0000 0.121250033
H   H31       1.0  0.65450  0.02370  0.98240  1.0000 0.121250033
H   H32       1.0  0.02370  0.65450  0.51760  1.0000 0.121250033
H   H33       1.0  0.05650  0.65330  0.79730  1.0000 0.121250033
H   H34       1.0  0.65330  0.05650  0.70270  1.0000 0.121250033
H   H35       1.0  0.94350  0.34670  0.20270  1.0000 0.121250033
H   H36       1.0  0.34670  0.94350  0.29730  1.0000 0.121250033
H   H37       1.0  0.76390  0.34270  0.89360  1.0000 0.129674687
H   H38       1.0  0.34270  0.76390  0.60640  1.0000 0.129674687
H   H39       1.0  0.23610  0.65730  0.10640  1.0000 0.129674687
H   H40       1.0  0.65730  0.23610  0.39360  1.0000 0.129674687
H   H41       1.0  0.93160  0.61140  0.74860  1.0000 0.129674687
H   H42       1.0  0.61140  0.93160  0.75140  1.0000 0.129674687
H   H43       1.0  0.06840  0.38860  0.25140  1.0000 0.129674687
H   H44       1.0  0.38860  0.06840  0.24860  1.0000 0.129674687
H   H45       1.0  0.63680  0.30000  0.84590  1.0000 0.1412653404
H   H46       1.0  0.30000  0.63680  0.65410  1.0000 0.1412653404
H   H47       1.0  0.36320  0.70000  0.15410  1.0000 0.1412653404
H   H48       1.0  0.70000  0.36320  0.34590  1.0000 0.1412653404
H   H49       1.0  0.47140  0.37360  0.75970  1.0000 0.121250033
H   H50       1.0  0.37360  0.47140  0.74030  1.0000 0.121250033
H   H51       1.0  0.52860  0.62640  0.24030  1.0000 0.121250033
H   H52       1.0  0.62640  0.52860  0.25970  1.0000 0.121250033
H   H53       1.0  0.78160  0.53960  0.85410  1.0000 0.129674687
H   H54       1.0  0.53960  0.78160  0.64590  1.0000 0.129674687
H   H55       1.0  0.21840  0.46040  0.14590  1.0000 0.129674687
H   H56       1.0  0.46040  0.21840  0.35410  1.0000 0.129674687
H   H57       1.0  0.53080  0.34380  0.72490  1.0000 0.129674687
H   H58       1.0  0.34380  0.53080  0.77510  1.0000 0.129674687
H   H59       1.0  0.46920  0.65620  0.27510  1.0000 0.129674687
H   H60       1.0  0.65620  0.46920  0.22490  1.0000 0.129674687
H   H61       1.0  0.73080  0.57980  0.88530  1.0000 0.121250033
H   H62       1.0  0.57980  0.73080  0.61470  1.0000 0.121250033
H   H63       1.0  0.26920  0.42020  0.11470  1.0000 0.121250033
H   H64       1.0  0.42020  0.26920  0.38530  1.0000 0.121250033
H   H65       1.0  0.59200  0.69700  0.82650  1.0000 0.1098232856
H   H66       1.0  0.69700  0.59200  0.67350  1.0000 0.1098232856
H   H67       1.0  0.40800  0.30300  0.17350  1.0000 0.1098232856
H   H68       1.0  0.30300  0.40800  0.32650  1.0000 0.1098232856
H   H69       1.0  0.68160  0.84040  0.76060  1.0000 0.1412653404
H   H70       1.0  0.84040  0.68160  0.73940  1.0000 0.1412653404
H   H71       1.0  0.31840  0.15960  0.23940  1.0000 0.1412653404
H   H72       1.0  0.15960  0.31840  0.26060  1.0000 0.1412653404
H   H73       1.0  0.91280  0.95800  0.90560  1.0000 0.1098232856
H   H74       1.0  0.95800  0.91280  0.59440  1.0000 0.1098232856
H   H75       1.0  0.08720  0.04200  0.09440  1.0000 0.1098232856
H   H76       1.0  0.04200  0.08720  0.40560  1.0000 0.1098232856
H   H77       1.0  0.01650  0.11010  0.83990  1.0000 0.1580048309
H   H78       1.0  0.11010  0.01650  0.66010  1.0000 0.1580048309
H   H79       1.0  0.98350  0.88990  0.16010  1.0000 0.1580048309
H   H80       1.0  0.88990  0.98350  0.33990  1.0000 0.1580048309
H   H81       1.0  0.80610  0.98930  0.69140  1.0000 0.1098232856
H   H82       1.0  0.98930  0.80610  0.80860  1.0000 0.1098232856
H   H83       1.0  0.19390  0.01070  0.30860  1.0000 0.1098232856
H   H84       1.0  0.01070  0.19390  0.19140  1.0000 0.1098232856
H   H85       1.0  0.79810  0.03250  0.72970  1.0000 0.1098232856
H   H86       1.0  0.03250  0.79810  0.77030  1.0000 0.1098232856
H   H87       1.0  0.20190  0.96750  0.27030  1.0000 0.1098232856
H   H88       1.0  0.96750  0.20190  0.22970  1.0000 0.1098232856
H   H89       1.0  0.21160  0.23120  0.54860  1.0000 0.1098232856
H   H90       1.0  0.23120  0.21160  0.95140  1.0000 0.1098232856
H   H91       1.0  0.78840  0.76880  0.45140  1.0000 0.1098232856
H   H92       1.0  0.76880  0.78840  0.04860  1.0000 0.1098232856
H   H93       1.0  0.32360  0.46620  0.45850  1.0000 0.1098232856
H   H94       1.0  0.46620  0.32360  0.04150  1.0000 0.1098232856
H   H95       1.0  0.67640  0.53380  0.54150  1.0000 0.1098232856
H   H96       1.0  0.53380  0.67640  0.95850  1.0000 0.1098232856
H   H97       1.0  0.24240  0.44960  0.51980  1.0000 0.1580048309
H   H98       1.0  0.44960  0.24240  0.98020  1.0000 0.1580048309
H   H99       1.0  0.75760  0.55040  0.48020  1.0000 0.1580048309
H   H100      1.0  0.55040  0.75760  0.01980  1.0000 0.1580048309
H   H101      1.0  0.12430  0.20390  0.61390  1.0000 0.1412653404
H   H102      1.0  0.20390  0.12430  0.88610  1.0000 0.1412653404
H   H103      1.0  0.87570  0.79610  0.38610  1.0000 0.1412653404
H   H104      1.0  0.79610  0.87570  0.11390  1.0000 0.1412653404
H   H105      1.0  0.97370  0.12830  0.63270  1.0000 0.1098232856
H   H106      1.0  0.12830  0.97370  0.86730  1.0000 0.1098232856
H   H107      1.0  0.02630  0.87170  0.36730  1.0000 0.1098232856
H   H108      1.0  0.87170  0.02630  0.13270  1.0000 0.1098232856
H   H109      1.0  0.08120  0.22860  0.67950  1.0000 0.1098232856
H   H110      1.0  0.22860  0.08120  0.82050  1.0000 0.1098232856
H   H111      1.0  0.91880  0.77140  0.32050  1.0000 0.1098232856
H   H112      1.0  0.77140  0.91880  0.17950  1.0000 0.1098232856
H   H113      1.0  0.09440  0.36440  0.68730  1.0000 0.1098232856
H   H114      1.0  0.36440  0.09440  0.81270  1.0000 0.1098232856
H   H115      1.0  0.90560  0.63560  0.31270  1.0000 0.1098232856
H   H116      1.0  0.63560  0.90560  0.18730  1.0000 0.1098232856
H   H117      1.0  0.08650  0.31130  0.73990  1.0000 0.1098232856
H   H118      1.0  0.31130  0.08650  0.76010  1.0000 0.1098232856
H   H119      1.0  0.91350  0.68870  0.26010  1.0000 0.1098232856
H   H120      1.0  0.68870  0.91350  0.23990  1.0000 0.1098232856
H   H121      1.0  0.94740  0.23280  0.60750  1.0000 0.1098232856
H   H122      1.0  0.23280  0.94740  0.89250  1.0000 0.1098232856
H   H123      1.0  0.05260  0.76720  0.39250  1.0000 0.1098232856
H   H124      1.0  0.76720  0.05260  0.10750  1.0000 0.1098232856
H   H125      1.0  0.83950  0.14570  0.65050  1.0000 0.0997726246
H   H126      1.0  0.14570  0.83950  0.84950  1.0000 0.0997726246
H   H127      1.0  0.16050  0.85430  0.34950  1.0000 0.0997726246
H   H128      1.0  0.85430  0.16050  0.15050  1.0000 0.0997726246
H   H129      1.0  0.24670  0.59670  0.83540  1.0000 0.1098232856
H   H130      1.0  0.59670  0.24670  0.66460  1.0000 0.1098232856
H   H131      1.0  0.75330  0.40330  0.16460  1.0000 0.1098232856
H   H132      1.0  0.40330  0.75330  0.33540  1.0000 0.1098232856
H   H133      1.0  0.89670  0.31550  0.86380  1.0000 0.1098232856
H   H134      1.0  0.31550  0.89670  0.63620  1.0000 0.1098232856
H   H135      1.0  0.10330  0.68450  0.13620  1.0000 0.1098232856
H   H136      1.0  0.68450  0.10330  0.36380  1.0000 0.1098232856
H   H137      1.0  0.18990  0.48750  0.76770  1.0000 0.129674687
H   H138      1.0  0.48750  0.18990  0.73230  1.0000 0.129674687
H   H139      1.0  0.81010  0.51250  0.23230  1.0000 0.129674687
H   H140      1.0  0.51250  0.81010  0.26770  1.0000 0.129674687
H   H141      1.0  0.82380  0.19340  0.79750  1.0000 0.1580048309
H   H142      1.0  0.19340  0.82380  0.70250  1.0000 0.1580048309
H   H143      1.0  0.17620  0.80660  0.20250  1.0000 0.1580048309
H   H144      1.0  0.80660  0.17620  0.29750  1.0000 0.1580048309
H   H145      1.0  0.49970  0.79910  0.46920  1.0000 0.1098232856
H   H146      1.0  0.79910  0.49970  0.03080  1.0000 0.1098232856
H   H147      1.0  0.50030  0.20090  0.53080  1.0000 0.1098232856
H   H148      1.0  0.20090  0.50030  0.96920  1.0000 0.1098232856
H   H149      1.0  0.63200  0.86720  0.53330  1.0000 0.1580048309
H   H150      1.0  0.86720  0.63200  0.96670  1.0000 0.1580048309
H   H151      1.0  0.36800  0.13280  0.46670  1.0000 0.1580048309
H   H152      1.0  0.13280  0.36800  0.03330  1.0000 0.1580048309
H   H153      1.0  0.78180  0.14540  0.57590  1.0000 0.1412653404
H   H154      1.0  0.14540  0.78180  0.92410  1.0000 0.1412653404
H   H155      1.0  0.21820  0.85460  0.42410  1.0000 0.1412653404
H   H156      1.0  0.85460  0.21820  0.07590  1.0000 0.1412653404
H   H157      1.0  0.64540  0.06940  0.51090  1.0000 0.121250033
H   H158      1.0  0.06940  0.64540  0.98910  1.0000 0.121250033
H   H159      1.0  0.35460  0.93060  0.48910  1.0000 0.121250033
H   H160      1.0  0.93060  0.35460  0.01090  1.0000 0.121250033
C   C1        1.0  0.78884  0.71956  0.99238  1.0000 0.5379490352
C   C2        1.0  0.71956  0.78884  0.50762  1.0000 0.5379490352
C   C3        1.0  0.21116  0.28044  0.00762  1.0000 0.5379490352
C   C4        1.0  0.28044  0.21116  0.49238  1.0000 0.5379490352
C   C5        1.0  0.87431  0.75369  0.02559  1.0000 -0.0303119424
C   C6        1.0  0.75369  0.87431  0.47441  1.0000 -0.0303119424
C   C7        1.0  0.12569  0.24631  0.97441  1.0000 -0.0303119424
C   C8        1.0  0.24631  0.12569  0.52559  1.0000 -0.0303119424
C   C9        1.0  0.91579  0.72081  0.10282  1.0000 -0.2196661268
C   C10       1.0  0.72081  0.91579  0.39718  1.0000 -0.2196661268
C   C11       1.0  0.08421  0.27919  0.89718  1.0000 -0.2196661268
C   C12       1.0  0.27919  0.08421  0.60282  1.0000 -0.2196661268
C   C13       1.0  0.04202  0.83458  0.08893  1.0000 0.2343358792
C   C14       1.0  0.83458  0.04202  0.41107  1.0000 0.2343358792
C   C15       1.0  0.95798  0.16542  0.91107  1.0000 0.2343358792
C   C16       1.0  0.16542  0.95798  0.58893  1.0000 0.2343358792
C   C17       1.0  0.00193  0.86667  0.01098  1.0000 -0.0905737238
C   C18       1.0  0.86667  0.00193  0.48902  1.0000 -0.0905737238
C   C19       1.0  0.99807  0.13333  0.98902  1.0000 -0.0905737238
C   C20       1.0  0.13333  0.99807  0.51098  1.0000 -0.0905737238
C   C21       1.0  0.08655  0.90705  0.04283  1.0000 -0.2196661268
C   C22       1.0  0.90705  0.08655  0.45717  1.0000 -0.2196661268
C   C23       1.0  0.91345  0.09295  0.95717  1.0000 -0.2196661268
C   C24       1.0  0.09295  0.91345  0.54283  1.0000 -0.2196661268
C   C25       1.0  0.83148  0.68032  0.07023  1.0000 -0.097221017
C   C26       1.0  0.68032  0.83148  0.42977  1.0000 -0.097221017
C   C27       1.0  0.16852  0.31968  0.92977  1.0000 -0.097221017
C   C28       1.0  0.31968  0.16852  0.57023  1.0000 -0.097221017
C   C29       1.0  0.46293  0.12027  0.06969  1.0000 -0.0224905198
C   C30       1.0  0.12027  0.46293  0.43031  1.0000 -0.0224905198
C   C31       1.0  0.53707  0.87973  0.93031  1.0000 -0.0224905198
C   C32       1.0  0.87973  0.53707  0.56969  1.0000 -0.0224905198
C   C33       1.0  0.23889  0.96191  0.10500  1.0000 0.2148805953
C   C34       1.0  0.96191  0.23889  0.39500  1.0000 0.2148805953
C   C35       1.0  0.76111  0.03809  0.89500  1.0000 0.2148805953
C   C36       1.0  0.03809  0.76111  0.60500  1.0000 0.2148805953
C   C37       1.0  0.23617  0.92263  0.06530  1.0000 -0.201942248
C   C38       1.0  0.92263  0.23617  0.43470  1.0000 -0.201942248
C   C39       1.0  0.76383  0.07737  0.93470  1.0000 -0.201942248
C   C40       1.0  0.07737  0.76383  0.56530  1.0000 -0.201942248
C   C41       1.0  0.34920  0.07700  0.12834  1.0000 -0.2095017859
C   C42       1.0  0.07700  0.34920  0.37166  1.0000 -0.2095017859
C   C43       1.0  0.65080  0.92300  0.87166  1.0000 -0.2095017859
C   C44       1.0  0.92300  0.65080  0.62834  1.0000 -0.2095017859
C   C45       1.0  0.46279  0.15681  0.11039  1.0000 -0.097221017
C   C46       1.0  0.15681  0.46279  0.38961  1.0000 -0.097221017
C   C47       1.0  0.53721  0.84319  0.88961  1.0000 -0.097221017
C   C48       1.0  0.84319  0.53721  0.61039  1.0000 -0.097221017
C   C49       1.0  0.34764  0.00216  0.04632  1.0000 -0.0905737238
C   C50       1.0  0.00216  0.34764  0.45368  1.0000 -0.0905737238
C   C51       1.0  0.65236  0.99784  0.95368  1.0000 -0.0905737238
C   C52       1.0  0.99784  0.65236  0.54632  1.0000 -0.0905737238
C   C53       1.0  0.58633  0.20687  0.05113  1.0000 0.5675867743
C   C54       1.0  0.20687  0.58633  0.44887  1.0000 0.5675867743
C   C55       1.0  0.41367  0.79313  0.94887  1.0000 0.5675867743
C   C56       1.0  0.79313  0.41367  0.55113  1.0000 0.5675867743
C   C57       1.0  0.00028  0.52492  0.87988  1.0000 0.5307039416
C   C58       1.0  0.52492  0.00028  0.62012  1.0000 0.5307039416
C   C59       1.0  0.99972  0.47508  0.12012  1.0000 0.5307039416
C   C60       1.0  0.47508  0.99972  0.37988  1.0000 0.5307039416
C   C61       1.0  0.92094  0.50006  0.84996  1.0000 -0.0303119424
C   C62       1.0  0.50006  0.92094  0.65004  1.0000 -0.0303119424
C   C63       1.0  0.07906  0.49994  0.15004  1.0000 -0.0303119424
C   C64       1.0  0.49994  0.07906  0.34996  1.0000 -0.0303119424
C   C65       1.0  0.97157  0.58123  0.80698  1.0000 -0.097221017
C   C66       1.0  0.58123  0.97157  0.69302  1.0000 -0.097221017
C   C67       1.0  0.02843  0.41877  0.19302  1.0000 -0.097221017
C   C68       1.0  0.41877  0.02843  0.30698  1.0000 -0.097221017
C   C69       1.0  0.79828  0.39732  0.86419  1.0000 -0.0673085579
C   C70       1.0  0.39732  0.79828  0.63581  1.0000 -0.0673085579
C   C71       1.0  0.20172  0.60268  0.13581  1.0000 -0.0673085579
C   C72       1.0  0.60268  0.20172  0.36419  1.0000 -0.0673085579
C   C73       1.0  0.77246  0.45074  0.79298  1.0000 0.2241477764
C   C74       1.0  0.45074  0.77246  0.70702  1.0000 0.2241477764
C   C75       1.0  0.22754  0.54926  0.20702  1.0000 0.2241477764
C   C76       1.0  0.54926  0.22754  0.29298  1.0000 0.2241477764
C   C77       1.0  0.89728  0.55672  0.77788  1.0000 -0.2095017859
C   C78       1.0  0.55672  0.89728  0.72212  1.0000 -0.2095017859
C   C79       1.0  0.10272  0.44328  0.22212  1.0000 -0.2095017859
C   C80       1.0  0.44328  0.10272  0.27788  1.0000 -0.2095017859
C   C81       1.0  0.72115  0.37085  0.83565  1.0000 -0.201942248
C   C82       1.0  0.37085  0.72115  0.66435  1.0000 -0.201942248
C   C83       1.0  0.27885  0.62915  0.16435  1.0000 -0.201942248
C   C84       1.0  0.62915  0.27885  0.33565  1.0000 -0.201942248
C   C85       1.0  0.53606  0.40974  0.77820  1.0000 -0.0905737238
C   C86       1.0  0.40974  0.53606  0.72180  1.0000 -0.0905737238
C   C87       1.0  0.46394  0.59026  0.22180  1.0000 -0.0905737238
C   C88       1.0  0.59026  0.46394  0.27820  1.0000 -0.0905737238
C   C89       1.0  0.59614  0.48186  0.82581  1.0000 -0.0303119424
C   C90       1.0  0.48186  0.59614  0.67419  1.0000 -0.0303119424
C   C91       1.0  0.40386  0.51814  0.17419  1.0000 -0.0303119424
C   C92       1.0  0.51814  0.40386  0.32581  1.0000 -0.0303119424
C   C93       1.0  0.72105  0.50855  0.83420  1.0000 -0.2360004716
C   C94       1.0  0.50855  0.72105  0.66580  1.0000 -0.2360004716
C   C95       1.0  0.27895  0.49145  0.16580  1.0000 -0.2360004716
C   C96       1.0  0.49145  0.27895  0.33420  1.0000 -0.2360004716
C   C97       1.0  0.66392  0.44108  0.78616  1.0000 0.2380988098
C   C98       1.0  0.44108  0.66392  0.71384  1.0000 0.2380988098
C   C99       1.0  0.33608  0.55892  0.21384  1.0000 0.2380988098
C   C100      1.0  0.55892  0.33608  0.28616  1.0000 0.2380988098
C   C101      1.0  0.56447  0.50893  0.84753  1.0000 0.5569159485
C   C102      1.0  0.50893  0.56447  0.65247  1.0000 0.5569159485
C   C103      1.0  0.43553  0.49107  0.15247  1.0000 0.5569159485
C   C104      1.0  0.49107  0.43553  0.34753  1.0000 0.5569159485
C   C105      1.0  0.57028  0.39032  0.75759  1.0000 -0.2314866942
C   C106      1.0  0.39032  0.57028  0.74241  1.0000 -0.2314866942
C   C107      1.0  0.42972  0.60968  0.24241  1.0000 -0.2314866942
C   C108      1.0  0.60968  0.42972  0.25759  1.0000 -0.2314866942
C   C109      1.0  0.68906  0.53094  0.85334  1.0000 -0.0905737238
C   C110      1.0  0.53094  0.68906  0.64666  1.0000 -0.0905737238
C   C111      1.0  0.31094  0.46906  0.14666  1.0000 -0.0905737238
C   C112      1.0  0.46906  0.31094  0.35334  1.0000 -0.0905737238
C   C113      1.0  0.85965  0.99375  0.79296  1.0000 0.2901087648
C   C114      1.0  0.99375  0.85965  0.70704  1.0000 0.2901087648
C   C115      1.0  0.14035  0.00625  0.20704  1.0000 0.2901087648
C   C116      1.0  0.00625  0.14035  0.29296  1.0000 0.2901087648
C   C117      1.0  0.67937  0.78223  0.82964  1.0000 0.0864810649
C   C118      1.0  0.78223  0.67937  0.67036  1.0000 0.0864810649
C   C119      1.0  0.32063  0.21777  0.17036  1.0000 0.0864810649
C   C120      1.0  0.21777  0.32063  0.32964  1.0000 0.0864810649
C   C121      1.0  0.73237  0.86803  0.78971  1.0000 -0.2810591438
C   C122      1.0  0.86803  0.73237  0.71029  1.0000 -0.2810591438
C   C123      1.0  0.26763  0.13197  0.21029  1.0000 -0.2810591438
C   C124      1.0  0.13197  0.26763  0.28971  1.0000 -0.2810591438
C   C125      1.0  0.86526  0.93294  0.87519  1.0000 0.0997726246
C   C126      1.0  0.93294  0.86526  0.62481  1.0000 0.0997726246
C   C127      1.0  0.13474  0.06706  0.12481  1.0000 0.0997726246
C   C128      1.0  0.06706  0.13474  0.37519  1.0000 0.0997726246
C   C129      1.0  0.92841  0.02619  0.83658  1.0000 -0.2607121829
C   C130      1.0  0.02619  0.92841  0.66342  1.0000 -0.2607121829
C   C131      1.0  0.07159  0.97381  0.16342  1.0000 -0.2607121829
C   C132      1.0  0.97381  0.07159  0.33658  1.0000 -0.2607121829
C   C133      1.0  0.85595  0.05865  0.71372  1.0000 -0.0905737238
C   C134      1.0  0.05865  0.85595  0.78628  1.0000 -0.0905737238
C   C135      1.0  0.14405  0.94135  0.28628  1.0000 -0.0905737238
C   C136      1.0  0.94135  0.14405  0.21372  1.0000 -0.0905737238
C   C137      1.0  0.21538  0.27382  0.54235  1.0000 0.1098232856
C   C138      1.0  0.27382  0.21538  0.95765  1.0000 0.1098232856
C   C139      1.0  0.78462  0.72618  0.45765  1.0000 0.1098232856
C   C140      1.0  0.72618  0.78462  0.04235  1.0000 0.1098232856
C   C141      1.0  0.28095  0.41105  0.48978  1.0000 0.0740217067
C   C142      1.0  0.41105  0.28095  0.01022  1.0000 0.0740217067
C   C143      1.0  0.71905  0.58895  0.51022  1.0000 0.0740217067
C   C144      1.0  0.58895  0.71905  0.98978  1.0000 0.0740217067
C   C145      1.0  0.23316  0.40224  0.52635  1.0000 -0.2607121829
C   C146      1.0  0.40224  0.23316  0.97365  1.0000 -0.2607121829
C   C147      1.0  0.76684  0.59776  0.47365  1.0000 -0.2607121829
C   C148      1.0  0.59776  0.76684  0.02635  1.0000 -0.2607121829
C   C149      1.0  0.16311  0.25689  0.58224  1.0000 -0.2708846533
C   C150      1.0  0.25689  0.16311  0.91776  1.0000 -0.2708846533
C   C151      1.0  0.83689  0.74311  0.41776  1.0000 -0.2708846533
C   C152      1.0  0.74311  0.83689  0.08224  1.0000 -0.2708846533
C   C153      1.0  0.16993  0.32167  0.57393  1.0000 0.2901087648
C   C154      1.0  0.32167  0.16993  0.92607  1.0000 0.2901087648
C   C155      1.0  0.83007  0.67833  0.42607  1.0000 0.2901087648
C   C156      1.0  0.67833  0.83007  0.07393  1.0000 0.2901087648
C   C157      1.0  0.03077  0.20523  0.65029  1.0000 -0.0905737238
C   C158      1.0  0.20523  0.03077  0.84971  1.0000 -0.0905737238
C   C159      1.0  0.96923  0.79477  0.34971  1.0000 -0.097221017
C   C160      1.0  0.79477  0.96923  0.15029  1.0000 -0.0905737238
C   C161      1.0  0.03642  0.28978  0.71165  1.0000 -0.0905737238
C   C162      1.0  0.28978  0.03642  0.78835  1.0000 -0.0905737238
C   C163      1.0  0.96358  0.71022  0.28835  1.0000 -0.0905737238
C   C164      1.0  0.71022  0.96358  0.21165  1.0000 -0.0905737238
C   C165      1.0  0.95241  0.17799  0.67711  1.0000 0.0823010973
C   C166      1.0  0.17799  0.95241  0.82289  1.0000 0.0823010973
C   C167      1.0  0.04759  0.82201  0.32289  1.0000 0.0823010973
C   C168      1.0  0.82201  0.04759  0.17711  1.0000 0.0823010973
C   C169      1.0  0.88453  0.15747  0.63220  1.0000 -0.0905737238
C   C170      1.0  0.15747  0.88453  0.86780  1.0000 -0.0905737238
C   C171      1.0  0.11547  0.84253  0.36780  1.0000 -0.0905737238
C   C172      1.0  0.84253  0.11547  0.13220  1.0000 -0.0905737238
C   C173      1.0  0.16001  0.51359  0.82796  1.0000 0.0997726246
C   C174      1.0  0.51359  0.16001  0.67204  1.0000 0.0997726246
C   C175      1.0  0.83999  0.48641  0.17204  1.0000 0.0997726246
C   C176      1.0  0.48641  0.83999  0.32796  1.0000 0.0997726246
C   C177      1.0  0.99944  0.32596  0.77492  1.0000 0.2976795233
C   C178      1.0  0.32596  0.99944  0.72508  1.0000 0.2976795233
C   C179      1.0  0.00056  0.67404  0.22508  1.0000 0.2976795233
C   C180      1.0  0.67404  0.00056  0.27492  1.0000 0.2976795233
C   C181      1.0  0.95695  0.35045  0.84454  1.0000 0.0997726246
C   C182      1.0  0.35045  0.95695  0.65546  1.0000 0.0997726246
C   C183      1.0  0.04305  0.64955  0.15546  1.0000 0.0997726246
C   C184      1.0  0.64955  0.04305  0.34454  1.0000 0.0997726246
C   C185      1.0  0.12717  0.44883  0.78682  1.0000 -0.2942990117
C   C186      1.0  0.44883  0.12717  0.71318  1.0000 -0.2942990117
C   C187      1.0  0.87283  0.55117  0.21318  1.0000 -0.2942990117
C   C188      1.0  0.55117  0.87283  0.28682  1.0000 -0.2942990117
C   C189      1.0  0.91127  0.27553  0.80448  1.0000 -0.2607121829
C   C190      1.0  0.27553  0.91127  0.69552  1.0000 -0.2607121829
C   C191      1.0  0.08873  0.72447  0.19552  1.0000 -0.2607121829
C   C192      1.0  0.72447  0.08873  0.30448  1.0000 -0.2607121829
C   C193      1.0  0.55617  0.86923  0.49115  1.0000 0.0864810649
C   C194      1.0  0.86923  0.55617  0.00885  1.0000 0.0864810649
C   C195      1.0  0.44383  0.13077  0.50885  1.0000 0.0864810649
C   C196      1.0  0.13077  0.44383  0.99115  1.0000 0.0864810649
C   C197      1.0  0.72064  0.01276  0.56223  1.0000 0.2730283833
C   C198      1.0  0.01276  0.72064  0.93777  1.0000 0.2730283833
C   C199      1.0  0.27936  0.98724  0.43777  1.0000 0.2730283833
C   C200      1.0  0.98724  0.27936  0.06223  1.0000 0.2730283833
C   C201      1.0  0.63605  0.91015  0.52961  1.0000 -0.2607121829
C   C202      1.0  0.91015  0.63605  0.97039  1.0000 -0.2607121829
C   C203      1.0  0.36395  0.08985  0.47039  1.0000 -0.2607121829
C   C204      1.0  0.08985  0.36395  0.02961  1.0000 -0.2607121829
C   C205      1.0  0.72463  0.07397  0.55498  1.0000 -0.2810591438
C   C206      1.0  0.07397  0.72463  0.94502  1.0000 -0.2810591438
C   C207      1.0  0.27537  0.92603  0.44502  1.0000 -0.2810591438
C   C208      1.0  0.92603  0.27537  0.05498  1.0000 -0.2810591438
C   C209      1.0  0.64146  0.02654  0.51570  1.0000 0.0997726246
C   C210      1.0  0.02654  0.64146  0.98430  1.0000 0.0997726246
C   C211      1.0  0.35854  0.97346  0.48430  1.0000 0.0997726246
C   C212      1.0  0.97346  0.35854  0.01570  1.0000 0.0997726246
N   N1        1.0  0.27117  0.34583  0.49525  1.0000 -0.2607121829
N   N2        1.0  0.34583  0.27117  0.00475  1.0000 -0.2607121829
N   N3        1.0  0.72883  0.65417  0.50475  1.0000 -0.2607121829
N   N4        1.0  0.65417  0.72883  0.99525  1.0000 -0.2607121829
N   N5        1.0  0.55586  0.92534  0.48395  1.0000 -0.2607121829
N   N6        1.0  0.92534  0.55586  0.01605  1.0000 -0.2607121829
N   N7        1.0  0.44414  0.07466  0.51605  1.0000 -0.2607121829
N   N8        1.0  0.07466  0.44414  0.98395  1.0000 -0.2607121829
N   N9        1.0  0.74314  0.81166  0.87209  1.0000 -0.2486892098
N   N10       1.0  0.81166  0.74314  0.62791  1.0000 -0.2486892098
N   N11       1.0  0.25686  0.18834  0.12791  1.0000 -0.2486892098
N   N12       1.0  0.18834  0.25686  0.37209  1.0000 -0.2486892098
N   N13       1.0  0.07729  0.46611  0.85772  1.0000 -0.2607121829
N   N14       1.0  0.46611  0.07729  0.64228  1.0000 -0.2607121829
N   N15       1.0  0.92271  0.53389  0.14228  1.0000 -0.2607121829
N   N16       1.0  0.53389  0.92271  0.35772  1.0000 -0.2607121829
O   O1        1.0  0.95378  0.45008  0.91831  1.0000 -0.5417777874
O   O2        1.0  0.45008  0.95378  0.58169  1.0000 -0.5417777874
O   O3        1.0  0.04622  0.54992  0.08169  1.0000 -0.5417777874
O   O4        1.0  0.54992  0.04622  0.41831  1.0000 -0.5417777874
O   O5        1.0  0.11582  0.62326  0.86585  1.0000 -0.5322418862
O   O6        1.0  0.62326  0.11582  0.63415  1.0000 -0.5322418862
O   O7        1.0  0.88418  0.37674  0.13415  1.0000 -0.5322418862
O   O8        1.0  0.37674  0.88418  0.36585  1.0000 -0.5322418862
O   O9        1.0  0.65186  0.60712  0.87707  1.0000 -0.5482933947
O   O10       1.0  0.60712  0.65186  0.62293  1.0000 -0.5482933947
O   O11       1.0  0.34814  0.39288  0.12293  1.0000 -0.5482933947
O   O12       1.0  0.39288  0.34814  0.37707  1.0000 -0.5482933947
O   O13       1.0  0.45956  0.43734  0.83579  1.0000 -0.5567757987
O   O14       1.0  0.43734  0.45956  0.66421  1.0000 -0.5567757987
O   O15       1.0  0.54044  0.56266  0.16421  1.0000 -0.5567757987
O   O16       1.0  0.56266  0.54044  0.33579  1.0000 -0.5567757987
O   O17       1.0  0.83868  0.80068  0.95697  1.0000 -0.5417777874
O   O18       1.0  0.80068  0.83868  0.54303  1.0000 -0.5417777874
O   O19       1.0  0.16132  0.19932  0.04303  1.0000 -0.5417777874
O   O20       1.0  0.19932  0.16132  0.45697  1.0000 -0.5417777874
O   O21       1.0  0.66992  0.61256  0.00030  1.0000 -0.5322418862
O   O22       1.0  0.61256  0.66992  0.49970  1.0000 -0.5322418862
O   O23       1.0  0.33008  0.38744  0.99970  1.0000 -0.5322418862
O   O24       1.0  0.38744  0.33008  0.50030  1.0000 -0.5322418862
O   O25       1.0  0.68355  0.29991  0.08136  1.0000 -0.5684499645
O   O26       1.0  0.29991  0.68355  0.41864  1.0000 -0.5684499645
O   O27       1.0  0.31645  0.70009  0.91864  1.0000 -0.5684499645
O   O28       1.0  0.70009  0.31645  0.58136  1.0000 -0.5684499645
O   O29       1.0  0.58271  0.17909  0.00707  1.0000 -0.5482933947
O   O30       1.0  0.17909  0.58271  0.49293  1.0000 -0.5482933947
O   O31       1.0  0.41729  0.82091  0.99293  1.0000 -0.5482933947
O   O32       1.0  0.82091  0.41729  0.50707  1.0000 -0.5482933947
O   O33       1.0  0.12353  0.87589  0.12674  1.0000 -0.2314866942
O   O34       1.0  0.87589  0.12353  0.37326  1.0000 -0.2314866942
O   O35       1.0  0.87647  0.12411  0.87326  1.0000 -0.2314866942
O   O36       1.0  0.12411  0.87647  0.62674  1.0000 -0.2314866942
O   O37       1.0  0.69696  0.42344  0.76075  1.0000 -0.2314866942
O   O38       1.0  0.42344  0.69696  0.73925  1.0000 -0.2360004716
O   O39       1.0  0.30304  0.57656  0.23925  1.0000 -0.2314866942
O   O40       1.0  0.57656  0.30304  0.26075  1.0000 -0.2314866942
O   O41       1.0  0.92596  0.08880  0.75778  1.0000 -0.1600690025
O   O42       1.0  0.08880  0.92596  0.74222  1.0000 -0.1600690025
O   O43       1.0  0.07404  0.91120  0.24222  1.0000 -0.1600690025
O   O44       1.0  0.91120  0.07404  0.25778  1.0000 -0.1600690025
O   O45       1.0  0.79555  0.04797  0.59928  1.0000 -0.1600690025
O   O46       1.0  0.04797  0.79555  0.90072  1.0000 -0.1600690025
O   O47       1.0  0.20445  0.95203  0.40072  1.0000 -0.1600690025
O   O48       1.0  0.95203  0.20445  0.09928  1.0000 -0.1600690025
O   O49       1.0  0.11506  0.30732  0.60811  1.0000 -0.1600690025
O   O50       1.0  0.30732  0.11506  0.89189  1.0000 -0.1600690025
O   O51       1.0  0.88494  0.69268  0.39189  1.0000 -0.1600690025
O   O52       1.0  0.69268  0.88494  0.10811  1.0000 -0.1600690025
O   O53       1.0  0.95200  0.24940  0.73817  1.0000 -0.1600690025
O   O54       1.0  0.24940  0.95200  0.76183  1.0000 -0.1600690025
O   O55       1.0  0.04800  0.75060  0.26183  1.0000 -0.1600690025
O   O56       1.0  0.75060  0.04800  0.23817  1.0000 -0.1600690025
