# DDEC6 charges by PACMAN v1.1 (https://github.com/mtap-research/PACMAN-charge/)
data_2015[Mn][tfz]3[ASR]1
_chemical_formula_sum              "Mn8 H132 C150 N24 Cl2 O24"
_cell_length_a       12.355
_cell_length_b       33.452
_cell_length_c       12.952
_cell_angle_alpha    90
_cell_angle_beta     97.63
_cell_angle_gamma    90

_symmetry_space_group_name_H-M    "P 1"
_symmetry_Int_Tables_number       1

loop_
  _symmetry_equiv_pos_as_xyz
  'x, y, z'

loop_
  _atom_site_type_symbol
  _atom_site_label
  _atom_site_symmetry_multiplicity
  _atom_site_fract_x
  _atom_site_fract_y
  _atom_site_fract_z
  _atom_site_occupancy
  _atom_site_charge
Mn  Mn1       1.0  0.80175  0.06808  0.39296  1.0000 0.7695154438
Mn  Mn2       1.0  0.19825  0.93192  0.60704  1.0000 0.7695154438
Mn  Mn3       1.0  0.19825  0.56808  0.60704  1.0000 0.7695154438
Mn  Mn4       1.0  0.80175  0.43192  0.39296  1.0000 0.7695154438
Mn  Mn5       1.0  0.00000  0.00000  0.50000  1.0000 1.0635653625
Mn  Mn6       1.0  0.00000  0.50000  0.50000  1.0000 1.0651073347
Mn  Mn7       1.0  0.29465  0.75000  0.27360  1.0000 0.4426151703
Mn  Mn8       1.0  0.70535  0.25000  0.72640  1.0000 0.4426151703
H   H1        1.0  0.68400  0.17072  0.22246  1.0000 0.1076512046
H   H2        1.0  0.31600  0.82928  0.77754  1.0000 0.1076512046
H   H3        1.0  0.31600  0.67072  0.77754  1.0000 0.1076512046
H   H4        1.0  0.68400  0.32928  0.22246  1.0000 0.1076512046
H   H5        1.0  0.77836  0.14925  0.32729  1.0000 0.1216152425
H   H6        1.0  0.22164  0.85075  0.67271  1.0000 0.1216152425
H   H7        1.0  0.22164  0.64925  0.67271  1.0000 0.1216152425
H   H8        1.0  0.77836  0.35075  0.32729  1.0000 0.1216152425
H   H9        1.0  0.33545  0.04194  0.32558  1.0000 0.1026849393
H   H10       1.0  0.66455  0.95806  0.67442  1.0000 0.1026849393
H   H11       1.0  0.66455  0.54194  0.67442  1.0000 0.1026849393
H   H12       1.0  0.33545  0.45806  0.32558  1.0000 0.1026849393
H   H13       1.0  0.11367  0.15746  0.41887  1.0000 0.1076512046
H   H14       1.0  0.88633  0.84254  0.58113  1.0000 0.1076512046
H   H15       1.0  0.88633  0.65746  0.58113  1.0000 0.1076512046
H   H16       1.0  0.11367  0.34254  0.41887  1.0000 0.1076512046
H   H17       1.0  0.94231  0.01686  0.10321  1.0000 0.1298247392
H   H18       1.0  0.05769  0.98314  0.89679  1.0000 0.1298247392
H   H19       1.0  0.05769  0.51686  0.89679  1.0000 0.1298247392
H   H20       1.0  0.94231  0.48314  0.10321  1.0000 0.1298247392
H   H21       1.0  0.82245  0.99685  0.14782  1.0000 0.1383221979
H   H22       1.0  0.17755  0.00315  0.85218  1.0000 0.1383221979
H   H23       1.0  0.17755  0.49685  0.85218  1.0000 0.1383221979
H   H24       1.0  0.82245  0.50315  0.14782  1.0000 0.1383221979
H   H25       1.0  0.92910  0.01717  0.23953  1.0000 0.1500523641
H   H26       1.0  0.07090  0.98283  0.76047  1.0000 0.1500523641
H   H27       1.0  0.07090  0.51717  0.76047  1.0000 0.1500523641
H   H28       1.0  0.92910  0.48283  0.23953  1.0000 0.1500523641
H   H29       1.0  0.74249  0.18176  0.05658  1.0000 0.1298247392
H   H30       1.0  0.25751  0.81824  0.94342  1.0000 0.1298247392
H   H31       1.0  0.25751  0.68176  0.94342  1.0000 0.1298247392
H   H32       1.0  0.74249  0.31824  0.05658  1.0000 0.1298247392
H   H33       1.0  0.61343  0.15676  0.02982  1.0000 0.1216152425
H   H34       1.0  0.38657  0.84324  0.97018  1.0000 0.1216152425
H   H35       1.0  0.38657  0.65676  0.97018  1.0000 0.1216152425
H   H36       1.0  0.61343  0.34324  0.02982  1.0000 0.1216152425
H   H37       1.0  0.71387  0.15092  0.94422  1.0000 0.1500523641
H   H38       1.0  0.28613  0.84908  0.05578  1.0000 0.1500523641
H   H39       1.0  0.28613  0.65092  0.05578  1.0000 0.1500523641
H   H40       1.0  0.71387  0.34908  0.94422  1.0000 0.1500523641
H   H41       1.0  0.30838  0.16731  0.40069  1.0000 0.0907540343
H   H42       1.0  0.69162  0.83269  0.59931  1.0000 0.0907540343
H   H43       1.0  0.69162  0.66731  0.59931  1.0000 0.0907540343
H   H44       1.0  0.30838  0.33269  0.40069  1.0000 0.0907540343
H   H45       1.0  0.52402  0.01963  0.42772  1.0000 0.1298247392
H   H46       1.0  0.47598  0.98037  0.57228  1.0000 0.1298247392
H   H47       1.0  0.47598  0.51963  0.57228  1.0000 0.1298247392
H   H48       1.0  0.52402  0.48037  0.42772  1.0000 0.1298247392
H   H49       1.0  0.46296  0.05156  0.51459  1.0000 0.1298247392
H   H50       1.0  0.53704  0.94844  0.48541  1.0000 0.1298247392
H   H51       1.0  0.53704  0.55156  0.48541  1.0000 0.1298247392
H   H52       1.0  0.46296  0.44844  0.51459  1.0000 0.1298247392
H   H53       1.0  0.60945  0.04447  0.52908  1.0000 0.1500523641
H   H54       1.0  0.39055  0.95553  0.47092  1.0000 0.1500523641
H   H55       1.0  0.39055  0.54447  0.47092  1.0000 0.1500523641
H   H56       1.0  0.60945  0.45553  0.52908  1.0000 0.1500523641
H   H57       1.0  0.34917  0.75000  0.07978  1.0000 0.1076512046
H   H58       1.0  0.65083  0.25000  0.92022  1.0000 0.1076512046
H   H59       1.0  0.48577  0.75000  0.04264  1.0000 0.1026849393
H   H60       1.0  0.51423  0.25000  0.95736  1.0000 0.1026849393
H   H61       1.0  0.67547  0.07304  0.70003  1.0000 0.0907540343
H   H62       1.0  0.32453  0.92696  0.29997  1.0000 0.0907540343
H   H63       1.0  0.32453  0.57304  0.29997  1.0000 0.0907540343
H   H64       1.0  0.67547  0.42696  0.70003  1.0000 0.0907540343
H   H65       1.0  0.73479  0.84353  0.32954  1.0000 0.1026849393
H   H66       1.0  0.26521  0.15647  0.67046  1.0000 0.1026849393
H   H67       1.0  0.26521  0.34353  0.67046  1.0000 0.1026849393
H   H68       1.0  0.73479  0.65647  0.32954  1.0000 0.1026849393
H   H69       1.0  0.49744  0.19802  0.24551  1.0000 0.1216152425
H   H70       1.0  0.50256  0.80198  0.75449  1.0000 0.1216152425
H   H71       1.0  0.50256  0.69802  0.75449  1.0000 0.1216152425
H   H72       1.0  0.49744  0.30198  0.24551  1.0000 0.1216152425
H   H73       1.0  0.37365  0.16986  0.22739  1.0000 0.1500523641
H   H74       1.0  0.62635  0.83014  0.77261  1.0000 0.1500523641
H   H75       1.0  0.62635  0.66986  0.77261  1.0000 0.1500523641
H   H76       1.0  0.37365  0.33014  0.22739  1.0000 0.1500523641
H   H77       1.0  0.47442  0.16185  0.14302  1.0000 0.1216152425
H   H78       1.0  0.52558  0.83815  0.85698  1.0000 0.1216152425
H   H79       1.0  0.52558  0.66185  0.85698  1.0000 0.1216152425
H   H80       1.0  0.47442  0.33815  0.14302  1.0000 0.1216152425
H   H81       1.0  0.01556  0.04892  0.79300  1.0000 0.1076512046
H   H82       1.0  0.98444  0.95108  0.20700  1.0000 0.1076512046
H   H83       1.0  0.98444  0.54892  0.20700  1.0000 0.1076512046
H   H84       1.0  0.01556  0.45108  0.79300  1.0000 0.1076512046
H   H85       1.0  0.36909  0.87250  0.39147  1.0000 0.1500523641
H   H86       1.0  0.63091  0.12750  0.60853  1.0000 0.1500523641
H   H87       1.0  0.63091  0.37250  0.60853  1.0000 0.1500523641
H   H88       1.0  0.36909  0.62750  0.39147  1.0000 0.1500523641
H   H89       1.0  0.41666  0.82901  0.46288  1.0000 0.1383221979
H   H90       1.0  0.58334  0.17099  0.53712  1.0000 0.1383221979
H   H91       1.0  0.58334  0.32901  0.53712  1.0000 0.1383221979
H   H92       1.0  0.41666  0.67099  0.46288  1.0000 0.1383221979
H   H93       1.0  0.28932  0.82758  0.37890  1.0000 0.1383221979
H   H94       1.0  0.71068  0.17242  0.62110  1.0000 0.1383221979
H   H95       1.0  0.71068  0.32758  0.62110  1.0000 0.1383221979
H   H96       1.0  0.28932  0.67242  0.37890  1.0000 0.1383221979
H   H97       1.0  0.69134  0.79343  0.12607  1.0000 0.1383221979
H   H98       1.0  0.30866  0.20657  0.87393  1.0000 0.1383221979
H   H99       1.0  0.30866  0.29343  0.87393  1.0000 0.1383221979
H   H100      1.0  0.69134  0.70657  0.12607  1.0000 0.1383221979
H   H101      1.0  0.65886  0.84446  0.09493  1.0000 0.1500523641
H   H102      1.0  0.34114  0.15554  0.90507  1.0000 0.1500523641
H   H103      1.0  0.34114  0.34446  0.90507  1.0000 0.1500523641
H   H104      1.0  0.65886  0.65554  0.09493  1.0000 0.1500523641
H   H105      1.0  0.58773  0.80520  0.02061  1.0000 0.1076512046
H   H106      1.0  0.41227  0.19480  0.97939  1.0000 0.1076512046
H   H107      1.0  0.41227  0.30520  0.97939  1.0000 0.1076512046
H   H108      1.0  0.58773  0.69480  0.02061  1.0000 0.1076512046
H   H109      1.0  0.84712  0.90362  0.38220  1.0000 0.1076512046
H   H110      1.0  0.15288  0.09638  0.61780  1.0000 0.1076512046
H   H111      1.0  0.15288  0.40362  0.61780  1.0000 0.1076512046
H   H112      1.0  0.84712  0.59638  0.38220  1.0000 0.1076512046
H   H113      1.0  0.14215  0.03213  0.34631  1.0000 0.1076512046
H   H114      1.0  0.85785  0.96787  0.65369  1.0000 0.1076512046
H   H115      1.0  0.85785  0.53213  0.65369  1.0000 0.1076512046
H   H116      1.0  0.14215  0.46787  0.34631  1.0000 0.1076512046
H   H117      1.0  0.99499  0.06314  0.97680  1.0000 0.1026849393
H   H118      1.0  0.00501  0.93686  0.02320  1.0000 0.1026849393
H   H119      1.0  0.00501  0.56314  0.02320  1.0000 0.1026849393
H   H120      1.0  0.99499  0.43686  0.97680  1.0000 0.1026849393
H   H121      1.0  0.65076  0.08506  0.88560  1.0000 0.0907540343
H   H122      1.0  0.34924  0.91494  0.11440  1.0000 0.0907540343
H   H123      1.0  0.34924  0.58506  0.11440  1.0000 0.0907540343
H   H124      1.0  0.65076  0.41494  0.88560  1.0000 0.0907540343
H   H125      1.0  0.57067  0.97982  0.28660  1.0000 0.1076512046
H   H126      1.0  0.42933  0.02018  0.71340  1.0000 0.1076512046
H   H127      1.0  0.42933  0.47982  0.71340  1.0000 0.1076512046
H   H128      1.0  0.57067  0.52018  0.28660  1.0000 0.1076512046
H   H129      1.0  0.45690  0.91994  0.23687  1.0000 0.0907540343
H   H130      1.0  0.54310  0.08006  0.76313  1.0000 0.0907540343
H   H131      1.0  0.54310  0.41994  0.76313  1.0000 0.0907540343
H   H132      1.0  0.45690  0.58006  0.23687  1.0000 0.0907540343
C   C1        1.0  0.83156  0.06112  0.14902  1.0000 0.2256411205
C   C2        1.0  0.16844  0.93888  0.85098  1.0000 0.2256411205
C   C3        1.0  0.16844  0.56112  0.85098  1.0000 0.2256411205
C   C4        1.0  0.83156  0.43888  0.14902  1.0000 0.2256411205
C   C5        1.0  0.71036  0.14313  0.26451  1.0000 -0.0297595791
C   C6        1.0  0.28964  0.85687  0.73549  1.0000 -0.0297595791
C   C7        1.0  0.28964  0.64313  0.73549  1.0000 -0.0297595791
C   C8        1.0  0.71036  0.35687  0.26451  1.0000 -0.0297595791
C   C9        1.0  0.78022  0.98108  0.38108  1.0000 0.5731316696
C   C10       1.0  0.21978  0.01892  0.61892  1.0000 0.5731316696
C   C11       1.0  0.21978  0.48108  0.61892  1.0000 0.5731316696
C   C12       1.0  0.78022  0.51892  0.38108  1.0000 0.5731316696
C   C13       1.0  0.99883  0.08619  0.40423  1.0000 0.5560020099
C   C14       1.0  0.00117  0.91381  0.59577  1.0000 0.5560020099
C   C15       1.0  0.00117  0.58619  0.59577  1.0000 0.5560020099
C   C16       1.0  0.99883  0.41381  0.40423  1.0000 0.5560020099
C   C17       1.0  0.28819  0.06742  0.34804  1.0000 -0.1419842501
C   C18       1.0  0.71181  0.93258  0.65196  1.0000 -0.1419842501
C   C19       1.0  0.71181  0.56742  0.65196  1.0000 -0.1419842501
C   C20       1.0  0.28819  0.43258  0.34804  1.0000 -0.1419842501
C   C21       1.0  0.54468  0.08260  0.40310  1.0000 0.2256411205
C   C22       1.0  0.45532  0.91740  0.59690  1.0000 0.2256411205
C   C23       1.0  0.45532  0.58260  0.59690  1.0000 0.2256411205
C   C24       1.0  0.54468  0.41740  0.40310  1.0000 0.2256411205
C   C25       1.0  0.51021  0.13597  0.29716  1.0000 0.1500523641
C   C26       1.0  0.48979  0.86403  0.70284  1.0000 0.1500523641
C   C27       1.0  0.48979  0.63597  0.70284  1.0000 0.1500523641
C   C28       1.0  0.51021  0.36403  0.29716  1.0000 0.1500523641
C   C29       1.0  0.84688  0.06030  0.73305  1.0000 -0.0422457864
C   C30       1.0  0.15312  0.93970  0.26695  1.0000 -0.0422457864
C   C31       1.0  0.15312  0.56030  0.26695  1.0000 -0.0422457864
C   C32       1.0  0.84688  0.43970  0.73305  1.0000 -0.0422457864
C   C33       1.0  0.45880  0.10853  0.35648  1.0000 -0.1793750038
C   C34       1.0  0.54120  0.89147  0.64352  1.0000 -0.1793750038
C   C35       1.0  0.54120  0.60853  0.64352  1.0000 -0.1793750038
C   C36       1.0  0.45880  0.39147  0.35648  1.0000 -0.1793750038
C   C37       1.0  0.80227  0.08396  0.05547  1.0000 -0.1635372972
C   C38       1.0  0.19773  0.91604  0.94453  1.0000 -0.1635372972
C   C39       1.0  0.19773  0.58396  0.94453  1.0000 -0.1635372972
C   C40       1.0  0.80227  0.41604  0.05547  1.0000 -0.1635372972
C   C41       1.0  0.34009  0.10505  0.36403  1.0000 0.1076512046
C   C42       1.0  0.65991  0.89495  0.63597  1.0000 0.1076512046
C   C43       1.0  0.65991  0.60505  0.63597  1.0000 0.1076512046
C   C44       1.0  0.34009  0.39495  0.36403  1.0000 0.1076512046
C   C45       1.0  0.71564  0.94570  0.33945  1.0000 -0.0578840298
C   C46       1.0  0.28436  0.05430  0.66055  1.0000 -0.0578840298
C   C47       1.0  0.28436  0.44570  0.66055  1.0000 -0.0578840298
C   C48       1.0  0.71564  0.55430  0.33945  1.0000 -0.0578840298
C   C49       1.0  0.74893  0.11806  0.08659  1.0000 0.1383221979
C   C50       1.0  0.25107  0.88194  0.91341  1.0000 0.1383221979
C   C51       1.0  0.25107  0.61806  0.91341  1.0000 0.1383221979
C   C52       1.0  0.74893  0.38194  0.08659  1.0000 0.1383221979
C   C53       1.0  0.11321  0.09367  0.38753  1.0000 -0.0578840298
C   C54       1.0  0.88679  0.90633  0.61247  1.0000 -0.0578840298
C   C55       1.0  0.88679  0.59367  0.61247  1.0000 -0.0578840298
C   C56       1.0  0.11321  0.40633  0.38753  1.0000 -0.0578840298
C   C57       1.0  0.85991  0.05014  0.62211  1.0000 0.5782806764
C   C58       1.0  0.14009  0.94986  0.37789  1.0000 0.5782806764
C   C59       1.0  0.14009  0.55014  0.37789  1.0000 0.5782806764
C   C60       1.0  0.85991  0.44986  0.62211  1.0000 0.5782806764
C   C61       1.0  0.82017  0.07507  0.94686  1.0000 0.1076512046
C   C62       1.0  0.17983  0.92493  0.05314  1.0000 0.1076512046
C   C63       1.0  0.17983  0.57507  0.05314  1.0000 0.1076512046
C   C64       1.0  0.82017  0.42493  0.94686  1.0000 0.1076512046
C   C65       1.0  0.16242  0.13194  0.39835  1.0000 -0.0885802654
C   C66       1.0  0.83758  0.86806  0.60165  1.0000 -0.0885802654
C   C67       1.0  0.83758  0.63194  0.60165  1.0000 -0.0885802654
C   C68       1.0  0.16242  0.36806  0.39835  1.0000 -0.0885802654
C   C69       1.0  0.88450  0.02100  0.16050  1.0000 -0.4170373713
C   C70       1.0  0.11550  0.97900  0.83950  1.0000 -0.4170373713
C   C71       1.0  0.11550  0.52100  0.83950  1.0000 -0.4170373713
C   C72       1.0  0.88450  0.47900  0.16050  1.0000 -0.4170373713
C   C73       1.0  0.70233  0.15365  0.02670  1.0000 -0.4170373713
C   C74       1.0  0.29767  0.84635  0.97330  1.0000 -0.4170373713
C   C75       1.0  0.29767  0.65365  0.97330  1.0000 -0.4170373713
C   C76       1.0  0.70233  0.34635  0.02670  1.0000 -0.4170373713
C   C77       1.0  0.52008  0.84113  0.25229  1.0000 -0.1793750038
C   C78       1.0  0.47992  0.15887  0.74771  1.0000 -0.1793750038
C   C79       1.0  0.47992  0.34113  0.74771  1.0000 -0.1793750038
C   C80       1.0  0.52008  0.65887  0.25229  1.0000 -0.1793750038
C   C81       1.0  0.27287  0.13740  0.38729  1.0000 -0.1506440749
C   C82       1.0  0.72713  0.86260  0.61271  1.0000 -0.1506440749
C   C83       1.0  0.72713  0.63740  0.61271  1.0000 -0.1506440749
C   C84       1.0  0.27287  0.36260  0.38729  1.0000 -0.1506440749
C   C85       1.0  0.58660  0.87716  0.28121  1.0000 0.1076512046
C   C86       1.0  0.41340  0.12284  0.71879  1.0000 0.1076512046
C   C87       1.0  0.41340  0.37716  0.71879  1.0000 0.1076512046
C   C88       1.0  0.58660  0.62284  0.28121  1.0000 0.1076512046
C   C89       1.0  0.53465  0.04779  0.47280  1.0000 -0.4276030918
C   C90       1.0  0.46535  0.95221  0.52720  1.0000 -0.4276030918
C   C91       1.0  0.46535  0.54779  0.52720  1.0000 -0.4276030918
C   C92       1.0  0.53465  0.45221  0.47280  1.0000 -0.4276030918
C   C93       1.0  0.42943  0.82562  0.29796  1.0000 0.2100212614
C   C94       1.0  0.57057  0.17438  0.70204  1.0000 0.2100212614
C   C95       1.0  0.57057  0.32562  0.70204  1.0000 0.2100212614
C   C96       1.0  0.42943  0.67438  0.29796  1.0000 0.2100212614
C   C97       1.0  0.53899  0.81458  0.17283  1.0000 0.1573054867
C   C98       1.0  0.46101  0.18542  0.82717  1.0000 0.1573054867
C   C99       1.0  0.46101  0.31458  0.82717  1.0000 0.1573054867
C   C100      1.0  0.53899  0.68542  0.17283  1.0000 0.1573054867
C   C101      1.0  0.43794  0.75000  0.10804  1.0000 -0.0111510006
C   C102      1.0  0.56206  0.25000  0.89196  1.0000 -0.0111510006
C   C103      1.0  0.74517  0.07116  0.76135  1.0000 -0.0982724612
C   C104      1.0  0.25483  0.92884  0.23865  1.0000 -0.0982724612
C   C105      1.0  0.25483  0.57116  0.23865  1.0000 -0.0982724612
C   C106      1.0  0.74517  0.42884  0.76135  1.0000 -0.0982724612
C   C107      1.0  0.69844  0.87343  0.31964  1.0000 -0.1419842501
C   C108      1.0  0.30156  0.12657  0.68036  1.0000 -0.1419842501
C   C109      1.0  0.30156  0.37343  0.68036  1.0000 -0.1419842501
C   C110      1.0  0.69844  0.62657  0.31964  1.0000 -0.1419842501
C   C111      1.0  0.46242  0.16810  0.22486  1.0000 -0.4170373713
C   C112      1.0  0.53758  0.83190  0.77514  1.0000 -0.4170373713
C   C113      1.0  0.53758  0.66810  0.77514  1.0000 -0.4170373713
C   C114      1.0  0.46242  0.33190  0.22486  1.0000 -0.4170373713
C   C115      1.0  0.93536  0.05716  0.81352  1.0000 -0.0885802654
C   C116      1.0  0.06464  0.94284  0.18648  1.0000 -0.0885802654
C   C117      1.0  0.06464  0.55716  0.18648  1.0000 -0.0885802654
C   C118      1.0  0.93536  0.44284  0.81352  1.0000 -0.0885802654
C   C119      1.0  0.37385  0.83963  0.38722  1.0000 -0.4032667388
C   C120      1.0  0.62615  0.16037  0.61278  1.0000 -0.4032667388
C   C121      1.0  0.62615  0.33963  0.61278  1.0000 -0.4032667388
C   C122      1.0  0.37385  0.66037  0.38722  1.0000 -0.4032667388
C   C123      1.0  0.62328  0.81436  0.10015  1.0000 -0.4105024298
C   C124      1.0  0.37672  0.18564  0.89985  1.0000 -0.4105024298
C   C125      1.0  0.37672  0.31436  0.89985  1.0000 -0.4105024298
C   C126      1.0  0.62328  0.68564  0.10015  1.0000 -0.4105024298
C   C127      1.0  0.76172  0.90708  0.34891  1.0000 -0.0805894966
C   C128      1.0  0.23828  0.09292  0.65109  1.0000 -0.0805894966
C   C129      1.0  0.23828  0.40708  0.65109  1.0000 -0.0805894966
C   C130      1.0  0.76172  0.59292  0.34891  1.0000 -0.0805894966
C   C131      1.0  0.17847  0.06180  0.35906  1.0000 -0.0805894966
C   C132      1.0  0.82153  0.93820  0.64094  1.0000 -0.0805894966
C   C133      1.0  0.82153  0.56180  0.64094  1.0000 -0.0805894966
C   C134      1.0  0.17847  0.43820  0.35906  1.0000 -0.0805894966
C   C135      1.0  0.92282  0.06473  0.91750  1.0000 -0.1419842501
C   C136      1.0  0.07718  0.93527  0.08250  1.0000 -0.1419842501
C   C137      1.0  0.07718  0.56473  0.08250  1.0000 -0.1419842501
C   C138      1.0  0.92282  0.43527  0.91750  1.0000 -0.1419842501
C   C139      1.0  0.73183  0.07792  0.86554  1.0000 -0.1419842501
C   C140      1.0  0.26817  0.92208  0.13446  1.0000 -0.1419842501
C   C141      1.0  0.26817  0.57792  0.13446  1.0000 -0.1419842501
C   C142      1.0  0.73183  0.42208  0.86554  1.0000 -0.1419842501
C   C143      1.0  0.60585  0.94975  0.29603  1.0000 -0.0805894966
C   C144      1.0  0.39415  0.05025  0.70397  1.0000 -0.0805894966
C   C145      1.0  0.39415  0.44975  0.70397  1.0000 -0.0805894966
C   C146      1.0  0.60585  0.55025  0.29603  1.0000 -0.0805894966
C   C147      1.0  0.54237  0.91600  0.26864  1.0000 -0.1506440749
C   C148      1.0  0.45763  0.08400  0.73136  1.0000 -0.1506440749
C   C149      1.0  0.45763  0.41600  0.73136  1.0000 -0.1506440749
C   C150      1.0  0.54237  0.58400  0.26864  1.0000 -0.1506440749
N   N1        1.0  0.61978  0.12658  0.31147  1.0000 0.0439395274
N   N2        1.0  0.38022  0.87342  0.68853  1.0000 0.0439395274
N   N3        1.0  0.38022  0.62658  0.68853  1.0000 0.0439395274
N   N4        1.0  0.61978  0.37342  0.31147  1.0000 0.0439395274
N   N5        1.0  0.79868  0.07983  0.23297  1.0000 -0.28818389
N   N6        1.0  0.20132  0.92017  0.76703  1.0000 -0.28818389
N   N7        1.0  0.20132  0.57983  0.76703  1.0000 -0.28818389
N   N8        1.0  0.79868  0.42017  0.23297  1.0000 -0.28818389
N   N9        1.0  0.64349  0.09333  0.37543  1.0000 -0.28818389
N   N10       1.0  0.35651  0.90667  0.62457  1.0000 -0.28818389
N   N11       1.0  0.35651  0.59333  0.62457  1.0000 -0.28818389
N   N12       1.0  0.64349  0.40667  0.37543  1.0000 -0.28818389
N   N13       1.0  0.74954  0.11497  0.19251  1.0000 0.0528380389
N   N14       1.0  0.25046  0.88503  0.80749  1.0000 0.0528380389
N   N15       1.0  0.25046  0.61497  0.80749  1.0000 0.0528380389
N   N16       1.0  0.74954  0.38503  0.19251  1.0000 0.0528380389
N   N17       1.0  0.46081  0.78532  0.17118  1.0000 0.0180146436
N   N18       1.0  0.53919  0.21468  0.82882  1.0000 0.0180146436
N   N19       1.0  0.53919  0.28532  0.82882  1.0000 0.0180146436
N   N20       1.0  0.46081  0.71468  0.17118  1.0000 0.0180146436
N   N21       1.0  0.39341  0.79080  0.24858  1.0000 -0.2667879274
N   N22       1.0  0.60659  0.20920  0.75142  1.0000 -0.2667879274
N   N23       1.0  0.60659  0.29080  0.75142  1.0000 -0.2667879274
N   N24       1.0  0.39341  0.70920  0.24858  1.0000 -0.2667879274
Cl  Cl1       1.0  0.13761  0.75000  0.18052  1.0000 -0.4703571012
Cl  Cl2       1.0  0.86239  0.25000  0.81948  1.0000 -0.4703571012
O   O1        1.0  0.95960  0.04936  0.41029  1.0000 -0.5273342043
O   O2        1.0  0.04040  0.95064  0.58971  1.0000 -0.5273342043
O   O3        1.0  0.04040  0.54936  0.58971  1.0000 -0.5273342043
O   O4        1.0  0.95960  0.45064  0.41029  1.0000 -0.5273342043
O   O5        1.0  0.73831  0.01618  0.35959  1.0000 -0.4908725133
O   O6        1.0  0.26169  0.98382  0.64041  1.0000 -0.4908725133
O   O7        1.0  0.26169  0.51618  0.64041  1.0000 -0.4908725133
O   O8        1.0  0.73831  0.48382  0.35959  1.0000 -0.4908725133
O   O9        1.0  0.93452  0.02381  0.61346  1.0000 -0.5273342043
O   O10       1.0  0.06548  0.97619  0.38654  1.0000 -0.5273342043
O   O11       1.0  0.06548  0.52381  0.38654  1.0000 -0.5273342043
O   O12       1.0  0.93452  0.47619  0.61346  1.0000 -0.5273342043
O   O13       1.0  0.79610  0.06653  0.54650  1.0000 -0.5170524826
O   O14       1.0  0.20390  0.93347  0.45350  1.0000 -0.5170524826
O   O15       1.0  0.20390  0.56653  0.45350  1.0000 -0.5170524826
O   O16       1.0  0.79610  0.43347  0.54650  1.0000 -0.5170524826
O   O17       1.0  0.92472  0.11322  0.40556  1.0000 -0.5014861932
O   O18       1.0  0.07528  0.88678  0.59444  1.0000 -0.5014861932
O   O19       1.0  0.07528  0.61322  0.59444  1.0000 -0.5014861932
O   O20       1.0  0.92472  0.38678  0.40556  1.0000 -0.5014861932
O   O21       1.0  0.87177  0.97307  0.43681  1.0000 -0.5273342043
O   O22       1.0  0.12823  0.02693  0.56319  1.0000 -0.5273342043
O   O23       1.0  0.12823  0.47307  0.56319  1.0000 -0.5273342043
O   O24       1.0  0.87177  0.52693  0.43681  1.0000 -0.5273342043
