# DDEC6 charges by PACMAN v1.1 (https://github.com/mtap-research/PACMAN-charge/)
data_2015[Zn][nan]3[ASR]24
_chemical_formula_sum              "Zn12 H228 C356 N20 O52"
_cell_length_a       19.419
_cell_length_b       36.41
_cell_length_c       21.21
_cell_angle_alpha    90
_cell_angle_beta     94.425
_cell_angle_gamma    90

_symmetry_space_group_name_H-M    "P 1"
_symmetry_Int_Tables_number       1

loop_
  _symmetry_equiv_pos_as_xyz
  'x, y, z'

loop_
  _atom_site_type_symbol
  _atom_site_label
  _atom_site_symmetry_multiplicity
  _atom_site_fract_x
  _atom_site_fract_y
  _atom_site_fract_z
  _atom_site_occupancy
  _atom_site_charge
Zn  Zn1       1.0  0.46871  0.18027  0.20285  1.0000 0.8310354433
Zn  Zn2       1.0  0.03129  0.68027  0.79715  1.0000 0.8310354433
Zn  Zn3       1.0  0.63754  0.15330  0.25375  1.0000 0.9561527005
Zn  Zn4       1.0  0.86246  0.65330  0.74625  1.0000 0.9561527005
Zn  Zn5       1.0  0.80838  0.18660  0.31476  1.0000 0.8310354433
Zn  Zn6       1.0  0.69162  0.68660  0.68524  1.0000 0.8310354433
Zn  Zn7       1.0  0.53129  0.81973  0.79715  1.0000 0.8310354433
Zn  Zn8       1.0  0.96871  0.31973  0.20285  1.0000 0.8310354433
Zn  Zn9       1.0  0.36246  0.84670  0.74625  1.0000 0.9561527005
Zn  Zn10      1.0  0.13754  0.34670  0.25375  1.0000 0.9561527005
Zn  Zn11      1.0  0.19162  0.81340  0.68524  1.0000 0.8310354433
Zn  Zn12      1.0  0.30838  0.31340  0.31476  1.0000 0.8310354433
H   H1        1.0  0.75860  0.55510  0.79060  1.0000 0.1185324892
H   H2        1.0  0.74140  0.05510  0.20940  1.0000 0.1185324892
H   H3        1.0  0.02440  0.22110  0.21860  1.0000 0.1587369821
H   H4        1.0  0.47560  0.72110  0.78140  1.0000 0.1587369821
H   H5        1.0  0.90880  0.22130  0.23470  1.0000 0.1104406023
H   H6        1.0  0.59120  0.72130  0.76530  1.0000 0.1104406023
H   H7        1.0  0.05540  0.15800  0.37370  1.0000 0.1395156166
H   H8        1.0  0.44460  0.65800  0.62630  1.0000 0.1395156166
H   H9        1.0  0.93980  0.15850  0.38120  1.0000 0.1185324892
H   H10       1.0  0.56020  0.65850  0.61880  1.0000 0.1185324892
H   H11       1.0  0.50290  0.28310  0.08600  1.0000 0.1305905581
H   H12       1.0  0.99710  0.78310  0.91400  1.0000 0.1305905581
H   H13       1.0  0.51410  0.31780  0.99840  1.0000 0.1185324892
H   H14       1.0  0.98590  0.81780  0.00160  1.0000 0.1185324892
H   H15       1.0  0.64110  0.27600  0.48070  1.0000 0.1104406023
H   H16       1.0  0.85890  0.77600  0.51930  1.0000 0.1104406023
H   H17       1.0  0.33710  0.15760  0.13470  1.0000 0.1185324892
H   H18       1.0  0.16290  0.65760  0.86530  1.0000 0.1185324892
H   H19       1.0  0.22070  0.15830  0.14230  1.0000 0.1395156166
H   H20       1.0  0.27930  0.65830  0.85770  1.0000 0.1395156166
H   H21       1.0  0.43660  0.26350  0.46810  1.0000 0.1104406023
H   H22       1.0  0.06340  0.76350  0.53190  1.0000 0.1104406023
H   H23       1.0  0.64910  0.23840  0.39500  1.0000 0.1185324892
H   H24       1.0  0.85090  0.73840  0.60500  1.0000 0.1185324892
H   H25       1.0  0.47440  0.19340  0.97910  1.0000 0.1185324892
H   H26       1.0  0.02560  0.69340  0.02090  1.0000 0.1185324892
H   H27       1.0  0.44340  0.22470  0.38310  1.0000 0.1104406023
H   H28       1.0  0.05660  0.72470  0.61690  1.0000 0.1104406023
H   H29       1.0  0.49440  0.22790  0.88990  1.0000 0.1104406023
H   H30       1.0  0.00560  0.72790  0.11010  1.0000 0.1104406023
H   H31       1.0  0.36800  0.21530  0.28800  1.0000 0.1104406023
H   H32       1.0  0.13200  0.71530  0.71200  1.0000 0.1104406023
H   H33       1.0  0.25210  0.21830  0.29930  1.0000 0.1305905581
H   H34       1.0  0.24790  0.71830  0.70070  1.0000 0.1305905581
H   H35       1.0  0.47190  0.34640  0.90460  1.0000 0.1185324892
H   H36       1.0  0.02810  0.84640  0.09540  1.0000 0.1185324892
H   H37       1.0  0.66830  0.44780  0.79170  1.0000 0.1104406023
H   H38       1.0  0.83170  0.94780  0.20830  1.0000 0.1104406023
H   H39       1.0  0.45110  0.27380  0.57430  1.0000 0.1104406023
H   H40       1.0  0.04890  0.77380  0.42570  1.0000 0.1104406023
H   H41       1.0  0.60870  0.33180  0.52250  1.0000 0.1104406023
H   H42       1.0  0.89130  0.83180  0.47750  1.0000 0.1104406023
H   H43       1.0  0.44740  0.30840  0.66460  1.0000 0.1305905581
H   H44       1.0  0.05260  0.80840  0.33540  1.0000 0.1305905581
H   H45       1.0  0.62360  0.38890  0.78790  1.0000 0.1185324892
H   H46       1.0  0.87640  0.88890  0.21210  1.0000 0.1185324892
H   H47       1.0  0.47840  0.37900  0.81110  1.0000 0.1305905581
H   H48       1.0  0.02160  0.87900  0.18890  1.0000 0.1305905581
H   H49       1.0  0.60790  0.36730  0.61410  1.0000 0.1185324892
H   H50       1.0  0.89210  0.86730  0.38590  1.0000 0.1185324892
H   H51       1.0  0.57400  0.29330  0.73800  1.0000 0.1305905581
H   H52       1.0  0.92600  0.79330  0.26200  1.0000 0.1305905581
H   H53       1.0  0.50000  0.41550  0.63680  1.0000 0.1305905581
H   H54       1.0  0.00000  0.91550  0.36320  1.0000 0.1305905581
H   H55       1.0  0.56090  0.26000  0.82740  1.0000 0.1185324892
H   H56       1.0  0.93910  0.76000  0.17260  1.0000 0.1185324892
H   H57       1.0  0.54370  0.47370  0.64020  1.0000 0.1104406023
H   H58       1.0  0.95630  0.97370  0.35980  1.0000 0.1104406023
H   H59       1.0  0.58370  0.52600  0.64860  1.0000 0.1185324892
H   H60       1.0  0.91630  0.02600  0.35140  1.0000 0.1185324892
H   H61       1.0  0.63150  0.58320  0.65010  1.0000 0.1305905581
H   H62       1.0  0.86850  0.08320  0.34990  1.0000 0.1305905581
H   H63       1.0  0.70910  0.49800  0.79240  1.0000 0.1104406023
H   H64       1.0  0.79090  0.99800  0.20760  1.0000 0.1104406023
H   H65       1.0  0.15220  0.18720  0.31830  1.0000 0.2855296663
H   H66       1.0  0.34780  0.68720  0.68170  1.0000 0.2855296663
H   H67       1.0  0.84730  0.26820  0.70390  1.0000 0.1185324892
H   H68       1.0  0.65270  0.76820  0.29610  1.0000 0.1185324892
H   H69       1.0  0.84920  0.26300  0.04560  1.0000 0.1104406023
H   H70       1.0  0.65080  0.76300  0.95440  1.0000 0.1104406023
H   H71       1.0  0.63600  0.23890  0.11500  1.0000 0.1305905581
H   H72       1.0  0.86400  0.73890  0.88500  1.0000 0.1305905581
H   H73       1.0  0.84100  0.22720  0.13400  1.0000 0.1185324892
H   H74       1.0  0.65900  0.72720  0.86600  1.0000 0.1185324892
H   H75       1.0  0.77830  0.28550  0.43580  1.0000 0.1185324892
H   H76       1.0  0.72170  0.78550  0.56420  1.0000 0.1185324892
H   H77       1.0  0.64480  0.27870  0.03290  1.0000 0.1104406023
H   H78       1.0  0.85520  0.77870  0.96710  1.0000 0.1104406023
H   H79       1.0  0.77350  0.32070  0.52670  1.0000 0.1185324892
H   H80       1.0  0.72650  0.82070  0.47330  1.0000 0.1185324892
H   H81       1.0  0.73110  0.34110  0.61050  1.0000 0.1104406023
H   H82       1.0  0.76890  0.84110  0.38950  1.0000 0.1104406023
H   H83       1.0  0.87530  0.59020  0.85780  1.0000 0.1305905581
H   H84       1.0  0.62470  0.09020  0.14220  1.0000 0.1305905581
H   H85       1.0  0.82360  0.47320  0.90130  1.0000 0.1185324892
H   H86       1.0  0.67640  0.97320  0.09870  1.0000 0.1185324892
H   H87       1.0  0.66830  0.28630  0.92630  1.0000 0.1104406023
H   H88       1.0  0.83170  0.78630  0.07370  1.0000 0.1104406023
H   H89       1.0  0.84600  0.32260  0.00910  1.0000 0.1185324892
H   H90       1.0  0.65400  0.82260  0.99090  1.0000 0.1185324892
H   H91       1.0  0.72930  0.37680  0.70110  1.0000 0.1305905581
H   H92       1.0  0.77070  0.87680  0.29890  1.0000 0.1305905581
H   H93       1.0  0.86240  0.35870  0.92120  1.0000 0.1305905581
H   H94       1.0  0.63760  0.85870  0.07880  1.0000 0.1305905581
H   H95       1.0  0.77130  0.41650  0.89460  1.0000 0.1305905581
H   H96       1.0  0.72870  0.91650  0.10540  1.0000 0.1305905581
H   H97       1.0  0.83490  0.53240  0.87340  1.0000 0.1185324892
H   H98       1.0  0.66510  0.03240  0.12660  1.0000 0.1185324892
H   H99       1.0  0.80780  0.19540  0.54180  1.0000 0.1185324892
H   H100      1.0  0.69220  0.69540  0.45820  1.0000 0.1185324892
H   H101      1.0  0.68190  0.32250  0.83810  1.0000 0.1185324892
H   H102      1.0  0.81810  0.82250  0.16190  1.0000 0.1185324892
H   H103      1.0  0.80410  0.22900  0.63140  1.0000 0.1185324892
H   H104      1.0  0.69590  0.72900  0.36860  1.0000 0.1185324892
H   H105      1.0  0.03700  0.55310  0.78100  1.0000 0.1185324892
H   H106      1.0  0.46300  0.05310  0.21900  1.0000 0.1185324892
H   H107      1.0  0.91820  0.45180  0.74600  1.0000 0.1185324892
H   H108      1.0  0.58180  0.95180  0.25400  1.0000 0.1185324892
H   H109      1.0  0.99800  0.49270  0.78740  1.0000 0.1185324892
H   H110      1.0  0.50200  0.99270  0.21260  1.0000 0.1185324892
H   H111      1.0  0.87050  0.39380  0.74110  1.0000 0.1305905581
H   H112      1.0  0.62950  0.89380  0.25890  1.0000 0.1305905581
H   H113      1.0  0.84770  0.30270  0.79460  1.0000 0.1305905581
H   H114      1.0  0.65230  0.80270  0.20540  1.0000 0.1305905581
H   H115      1.0  0.24140  0.44490  0.20940  1.0000 0.1185324892
H   H116      1.0  0.25860  0.94490  0.79060  1.0000 0.1185324892
H   H117      1.0  0.97560  0.77890  0.78140  1.0000 0.1587369821
H   H118      1.0  0.52440  0.27890  0.21860  1.0000 0.1587369821
H   H119      1.0  0.09120  0.77870  0.76530  1.0000 0.1104406023
H   H120      1.0  0.40880  0.27870  0.23470  1.0000 0.1104406023
H   H121      1.0  0.94460  0.84200  0.62630  1.0000 0.1395156166
H   H122      1.0  0.55540  0.34200  0.37370  1.0000 0.1395156166
H   H123      1.0  0.06020  0.84150  0.61880  1.0000 0.1185324892
H   H124      1.0  0.43980  0.34150  0.38120  1.0000 0.1185324892
H   H125      1.0  0.49710  0.71690  0.91400  1.0000 0.1305905581
H   H126      1.0  0.00290  0.21690  0.08600  1.0000 0.1305905581
H   H127      1.0  0.48590  0.68220  0.00160  1.0000 0.1185324892
H   H128      1.0  0.01410  0.18220  0.99840  1.0000 0.1185324892
H   H129      1.0  0.35890  0.72400  0.51930  1.0000 0.1104406023
H   H130      1.0  0.14110  0.22400  0.48070  1.0000 0.1104406023
H   H131      1.0  0.66290  0.84240  0.86530  1.0000 0.1185324892
H   H132      1.0  0.83710  0.34240  0.13470  1.0000 0.1185324892
H   H133      1.0  0.77930  0.84170  0.85770  1.0000 0.1395156166
H   H134      1.0  0.72070  0.34170  0.14230  1.0000 0.1395156166
H   H135      1.0  0.56340  0.73650  0.53190  1.0000 0.1104406023
H   H136      1.0  0.93660  0.23650  0.46810  1.0000 0.1104406023
H   H137      1.0  0.35090  0.76160  0.60500  1.0000 0.1185324892
H   H138      1.0  0.14910  0.26160  0.39500  1.0000 0.1185324892
H   H139      1.0  0.52560  0.80660  0.02090  1.0000 0.1185324892
H   H140      1.0  0.97440  0.30660  0.97910  1.0000 0.1185324892
H   H141      1.0  0.55660  0.77530  0.61690  1.0000 0.1104406023
H   H142      1.0  0.94340  0.27530  0.38310  1.0000 0.1104406023
H   H143      1.0  0.50560  0.77210  0.11010  1.0000 0.1104406023
H   H144      1.0  0.99440  0.27210  0.88990  1.0000 0.1104406023
H   H145      1.0  0.63200  0.78470  0.71200  1.0000 0.1104406023
H   H146      1.0  0.86800  0.28470  0.28800  1.0000 0.1104406023
H   H147      1.0  0.74790  0.78170  0.70070  1.0000 0.1305905581
H   H148      1.0  0.75210  0.28170  0.29930  1.0000 0.1305905581
H   H149      1.0  0.52810  0.65360  0.09540  1.0000 0.1185324892
H   H150      1.0  0.97190  0.15360  0.90460  1.0000 0.1185324892
H   H151      1.0  0.33170  0.55220  0.20830  1.0000 0.1104406023
H   H152      1.0  0.16830  0.05220  0.79170  1.0000 0.1104406023
H   H153      1.0  0.54890  0.72620  0.42570  1.0000 0.1104406023
H   H154      1.0  0.95110  0.22620  0.57430  1.0000 0.1104406023
H   H155      1.0  0.39130  0.66820  0.47750  1.0000 0.1104406023
H   H156      1.0  0.10870  0.16820  0.52250  1.0000 0.1104406023
H   H157      1.0  0.55260  0.69160  0.33540  1.0000 0.1305905581
H   H158      1.0  0.94740  0.19160  0.66460  1.0000 0.1305905581
H   H159      1.0  0.37640  0.61110  0.21210  1.0000 0.1185324892
H   H160      1.0  0.12360  0.11110  0.78790  1.0000 0.1185324892
H   H161      1.0  0.52160  0.62100  0.18890  1.0000 0.1305905581
H   H162      1.0  0.97840  0.12100  0.81110  1.0000 0.1305905581
H   H163      1.0  0.39210  0.63270  0.38590  1.0000 0.1185324892
H   H164      1.0  0.10790  0.13270  0.61410  1.0000 0.1185324892
H   H165      1.0  0.42600  0.70670  0.26200  1.0000 0.1305905581
H   H166      1.0  0.07400  0.20670  0.73800  1.0000 0.1305905581
H   H167      1.0  0.50000  0.58450  0.36320  1.0000 0.1305905581
H   H168      1.0  0.00000  0.08450  0.63680  1.0000 0.1305905581
H   H169      1.0  0.43910  0.74000  0.17260  1.0000 0.1185324892
H   H170      1.0  0.06090  0.24000  0.82740  1.0000 0.1185324892
H   H171      1.0  0.45630  0.52630  0.35980  1.0000 0.1104406023
H   H172      1.0  0.04370  0.02630  0.64020  1.0000 0.1104406023
H   H173      1.0  0.41630  0.47400  0.35140  1.0000 0.1185324892
H   H174      1.0  0.08370  0.97400  0.64860  1.0000 0.1185324892
H   H175      1.0  0.36850  0.41680  0.34990  1.0000 0.1305905581
H   H176      1.0  0.13150  0.91680  0.65010  1.0000 0.1305905581
H   H177      1.0  0.29090  0.50200  0.20760  1.0000 0.1104406023
H   H178      1.0  0.20910  0.00200  0.79240  1.0000 0.1104406023
H   H179      1.0  0.84780  0.81280  0.68170  1.0000 0.2855296663
H   H180      1.0  0.65220  0.31280  0.31830  1.0000 0.2855296663
H   H181      1.0  0.15270  0.73180  0.29610  1.0000 0.1185324892
H   H182      1.0  0.34730  0.23180  0.70390  1.0000 0.1185324892
H   H183      1.0  0.15080  0.73700  0.95440  1.0000 0.1104406023
H   H184      1.0  0.34920  0.23700  0.04560  1.0000 0.1104406023
H   H185      1.0  0.36400  0.76110  0.88500  1.0000 0.1305905581
H   H186      1.0  0.13600  0.26110  0.11500  1.0000 0.1305905581
H   H187      1.0  0.15900  0.77280  0.86600  1.0000 0.1185324892
H   H188      1.0  0.34100  0.27280  0.13400  1.0000 0.1185324892
H   H189      1.0  0.22170  0.71450  0.56420  1.0000 0.1185324892
H   H190      1.0  0.27830  0.21450  0.43580  1.0000 0.1185324892
H   H191      1.0  0.35520  0.72130  0.96710  1.0000 0.1104406023
H   H192      1.0  0.14480  0.22130  0.03290  1.0000 0.1104406023
H   H193      1.0  0.22650  0.67930  0.47330  1.0000 0.1185324892
H   H194      1.0  0.27350  0.17930  0.52670  1.0000 0.1185324892
H   H195      1.0  0.26890  0.65890  0.38950  1.0000 0.1104406023
H   H196      1.0  0.23110  0.15890  0.61050  1.0000 0.1104406023
H   H197      1.0  0.12470  0.40980  0.14220  1.0000 0.1305905581
H   H198      1.0  0.37530  0.90980  0.85780  1.0000 0.1305905581
H   H199      1.0  0.17640  0.52680  0.09870  1.0000 0.1185324892
H   H200      1.0  0.32360  0.02680  0.90130  1.0000 0.1185324892
H   H201      1.0  0.33170  0.71370  0.07370  1.0000 0.1104406023
H   H202      1.0  0.16830  0.21370  0.92630  1.0000 0.1104406023
H   H203      1.0  0.15400  0.67740  0.99090  1.0000 0.1185324892
H   H204      1.0  0.34600  0.17740  0.00910  1.0000 0.1185324892
H   H205      1.0  0.27070  0.62320  0.29890  1.0000 0.1305905581
H   H206      1.0  0.22930  0.12320  0.70110  1.0000 0.1305905581
H   H207      1.0  0.13760  0.64130  0.07880  1.0000 0.1305905581
H   H208      1.0  0.36240  0.14130  0.92120  1.0000 0.1305905581
H   H209      1.0  0.22870  0.58350  0.10540  1.0000 0.1305905581
H   H210      1.0  0.27130  0.08350  0.89460  1.0000 0.1305905581
H   H211      1.0  0.16510  0.46760  0.12660  1.0000 0.1185324892
H   H212      1.0  0.33490  0.96760  0.87340  1.0000 0.1185324892
H   H213      1.0  0.19220  0.80460  0.45820  1.0000 0.1185324892
H   H214      1.0  0.30780  0.30460  0.54180  1.0000 0.1185324892
H   H215      1.0  0.31810  0.67750  0.16190  1.0000 0.1185324892
H   H216      1.0  0.18190  0.17750  0.83810  1.0000 0.1185324892
H   H217      1.0  0.19590  0.77100  0.36860  1.0000 0.1185324892
H   H218      1.0  0.30410  0.27100  0.63140  1.0000 0.1185324892
H   H219      1.0  0.96300  0.44690  0.21900  1.0000 0.1185324892
H   H220      1.0  0.53700  0.94690  0.78100  1.0000 0.1185324892
H   H221      1.0  0.08180  0.54820  0.25400  1.0000 0.1185324892
H   H222      1.0  0.41820  0.04820  0.74600  1.0000 0.1185324892
H   H223      1.0  0.00200  0.50730  0.21260  1.0000 0.1185324892
H   H224      1.0  0.49800  0.00730  0.78740  1.0000 0.1185324892
H   H225      1.0  0.12950  0.60620  0.25890  1.0000 0.1305905581
H   H226      1.0  0.37050  0.10620  0.74110  1.0000 0.1305905581
H   H227      1.0  0.15230  0.69730  0.20540  1.0000 0.1305905581
H   H228      1.0  0.34770  0.19730  0.79460  1.0000 0.1305905581
C   C1        1.0  0.72320  0.54920  0.76020  1.0000 -0.1064006708
C   C2        1.0  0.77680  0.04920  0.23980  1.0000 -0.1064006708
C   C3        1.0  0.00780  0.20810  0.25200  1.0000 -0.2119160876
C   C4        1.0  0.49220  0.70810  0.74800  1.0000 -0.2119160876
C   C5        1.0  0.14940  0.18650  0.22870  1.0000 0.416693241
C   C6        1.0  0.35060  0.68650  0.77130  1.0000 0.416693241
C   C7        1.0  0.93850  0.20756  0.26190  1.0000 0.0976931608
C   C8        1.0  0.56150  0.70756  0.73810  1.0000 0.0976931608
C   C9        1.0  0.02640  0.17030  0.34390  1.0000 -0.2348327407
C   C10       1.0  0.47360  0.67030  0.65610  1.0000 -0.235380865
C   C11       1.0  0.05190  0.18827  0.29420  1.0000 0.2650104395
C   C12       1.0  0.44810  0.68827  0.70580  1.0000 0.2650104395
C   C13       1.0  0.95730  0.17116  0.34790  1.0000 0.0711455863
C   C14       1.0  0.54270  0.67116  0.65210  1.0000 0.0711455863
C   C15       1.0  0.48020  0.21174  0.09860  1.0000 0.5372280112
C   C16       1.0  0.01980  0.71174  0.90140  1.0000 0.5372280112
C   C17       1.0  0.48980  0.23407  0.04220  1.0000 -0.0518776219
C   C18       1.0  0.01020  0.73407  0.95780  1.0000 -0.0518776219
C   C19       1.0  0.50060  0.27185  0.04650  1.0000 -0.0830767453
C   C20       1.0  0.99940  0.77185  0.95350  1.0000 -0.0830767453
C   C21       1.0  0.50580  0.27690  0.93380  1.0000 0.0711455863
C   C22       1.0  0.99420  0.77690  0.06620  1.0000 0.0711455863
C   C23       1.0  0.50780  0.29261  0.99410  1.0000 -0.1495684352
C   C24       1.0  0.99220  0.79261  0.00590  1.0000 -0.1495684352
C   C25       1.0  0.54750  0.22678  0.37960  1.0000 -0.0621532457
C   C26       1.0  0.95250  0.72678  0.62040  1.0000 -0.0621532457
C   C27       1.0  0.55250  0.20291  0.32500  1.0000 0.5887986353
C   C28       1.0  0.94750  0.70291  0.67500  1.0000 0.5887986353
C   C29       1.0  0.60120  0.26560  0.46130  1.0000 -0.15910304
C   C30       1.0  0.89880  0.76560  0.53870  1.0000 -0.15910304
C   C31       1.0  0.31960  0.16967  0.16860  1.0000 0.0976931608
C   C32       1.0  0.18040  0.66967  0.83140  1.0000 0.0976931608
C   C33       1.0  0.24980  0.16967  0.17320  1.0000 -0.1400564232
C   C34       1.0  0.25020  0.66967  0.82680  1.0000 -0.1400564232
C   C35       1.0  0.53450  0.29786  0.53990  1.0000 0.0597967331
C   C36       1.0  0.96550  0.79786  0.46010  1.0000 0.0597967331
C   C37       1.0  0.47960  0.25809  0.45400  1.0000 -0.1495684352
C   C38       1.0  0.02040  0.75809  0.54600  1.0000 -0.1495684352
C   C39       1.0  0.60610  0.24295  0.40980  1.0000 -0.0907065078
C   C40       1.0  0.89390  0.74295  0.59020  1.0000 -0.0907065078
C   C41       1.0  0.48470  0.21828  0.98330  1.0000 -0.1009769557
C   C42       1.0  0.01530  0.71828  0.01670  1.0000 -0.1009769557
C   C43       1.0  0.48350  0.23490  0.40250  1.0000 -0.0907065078
C   C44       1.0  0.01650  0.73490  0.59750  1.0000 -0.0907065078
C   C45       1.0  0.49500  0.23930  0.92910  1.0000 -0.15910304
C   C46       1.0  0.00500  0.73930  0.07090  1.0000 -0.15910304
C   C47       1.0  0.53750  0.27315  0.48460  1.0000 0.0816614366
C   C48       1.0  0.96250  0.77315  0.51540  1.0000 0.0816614366
C   C49       1.0  0.52950  0.34031  0.64960  1.0000 0.167282716
C   C50       1.0  0.97050  0.84031  0.35040  1.0000 0.167282716
C   C51       1.0  0.22290  0.18666  0.22400  1.0000 0.0100499062
C   C52       1.0  0.27710  0.68666  0.77600  1.0000 0.0100499062
C   C53       1.0  0.33760  0.20362  0.25840  1.0000 0.0816614366
C   C54       1.0  0.16240  0.70362  0.74160  1.0000 0.0816614366
C   C55       1.0  0.26840  0.20506  0.26610  1.0000 -0.1811134728
C   C56       1.0  0.23160  0.70506  0.73390  1.0000 -0.185868285
C   C57       1.0  0.49090  0.33511  0.87060  1.0000 -0.1293332256
C   C58       1.0  0.00910  0.83511  0.12940  1.0000 -0.1293332256
C   C59       1.0  0.63490  0.44152  0.75980  1.0000 -0.1495684352
C   C60       1.0  0.86510  0.94152  0.24020  1.0000 -0.1495684352
C   C61       1.0  0.52750  0.33918  0.76500  1.0000 0.1587369821
C   C62       1.0  0.97250  0.83918  0.23500  1.0000 0.1587369821
C   C63       1.0  0.64210  0.50485  0.71580  1.0000 0.0816614366
C   C64       1.0  0.85790  0.00485  0.28420  1.0000 0.0816614366
C   C65       1.0  0.48390  0.29213  0.58270  1.0000 -0.1293332256
C   C66       1.0  0.01610  0.79213  0.41730  1.0000 -0.1293332256
C   C67       1.0  0.51310  0.29888  0.87710  1.0000 0.044716098
C   C68       1.0  0.98690  0.79888  0.12290  1.0000 0.044716098
C   C69       1.0  0.57720  0.32614  0.55180  1.0000 -0.1400564232
C   C70       1.0  0.92280  0.82614  0.44820  1.0000 -0.1400564232
C   C71       1.0  0.55750  0.39568  0.71240  1.0000 0.1587369821
C   C72       1.0  0.94250  0.89568  0.28760  1.0000 0.1587369821
C   C73       1.0  0.48130  0.31288  0.63690  1.0000 -0.1694872839
C   C74       1.0  0.01870  0.81288  0.36310  1.0000 -0.1694872839
C   C75       1.0  0.61320  0.46694  0.71590  1.0000 0.0711455863
C   C76       1.0  0.88680  0.96694  0.28410  1.0000 0.0711455863
C   C77       1.0  0.70260  0.57407  0.71750  1.0000 -0.0154835902
C   C78       1.0  0.79740  0.07407  0.28250  1.0000 -0.0149717697
C   C79       1.0  0.60740  0.40591  0.75770  1.0000 -0.185868285
C   C80       1.0  0.89260  0.90591  0.24230  1.0000 -0.1811134728
C   C81       1.0  0.73470  0.61180  0.71940  1.0000 0.5990735522
C   C82       1.0  0.76530  0.11180  0.28060  1.0000 0.5990735522
C   C83       1.0  0.49590  0.35527  0.81480  1.0000 -0.1811134728
C   C84       1.0  0.00410  0.85527  0.18520  1.0000 -0.1811134728
C   C85       1.0  0.57680  0.34811  0.60700  1.0000 -0.1811134728
C   C86       1.0  0.92320  0.84811  0.39300  1.0000 -0.1811134728
C   C87       1.0  0.55200  0.30386  0.77100  1.0000 -0.1811134728
C   C88       1.0  0.94800  0.80386  0.22900  1.0000 -0.1811134728
C   C89       1.0  0.53420  0.42174  0.66810  1.0000 -0.1811134728
C   C90       1.0  0.96580  0.92174  0.33190  1.0000 -0.1811134728
C   C91       1.0  0.54470  0.28403  0.82500  1.0000 -0.1400564232
C   C92       1.0  0.95530  0.78403  0.17500  1.0000 -0.1400564232
C   C93       1.0  0.56070  0.45656  0.66990  1.0000 -0.1293332256
C   C94       1.0  0.93930  0.95656  0.33010  1.0000 -0.1293332256
C   C95       1.0  0.62070  0.53087  0.67790  1.0000 -0.1495684352
C   C96       1.0  0.87930  0.03087  0.32210  1.0000 -0.1495684352
C   C97       1.0  0.64990  0.56557  0.67830  1.0000 -0.1064006708
C   C98       1.0  0.85010  0.06557  0.32170  1.0000 -0.1064006708
C   C99       1.0  0.69400  0.51470  0.76120  1.0000 -0.1811134728
C   C100      1.0  0.80600  0.01470  0.23880  1.0000 -0.1811134728
C   C101      1.0  0.82320  0.29031  0.70310  1.0000 -0.1293332256
C   C102      1.0  0.67680  0.79031  0.29690  1.0000 -0.1293332256
C   C103      1.0  0.74800  0.27518  0.03000  1.0000 0.0711455863
C   C104      1.0  0.75200  0.77518  0.97000  1.0000 0.0711455863
C   C105      1.0  0.73750  0.23035  0.13390  1.0000 -0.0280129773
C   C106      1.0  0.76250  0.73035  0.86610  1.0000 -0.0280129773
C   C107      1.0  0.80610  0.25897  0.06080  1.0000 -0.1400564232
C   C108      1.0  0.69390  0.75897  0.93920  1.0000 -0.1400564232
C   C109      1.0  0.80010  0.21375  0.42180  1.0000 0.5372280112
C   C110      1.0  0.69990  0.71375  0.57820  1.0000 0.5372280112
C   C111      1.0  0.67940  0.24486  0.10220  1.0000 -0.0830767453
C   C112      1.0  0.82060  0.74486  0.89780  1.0000 -0.0830767453
C   C113      1.0  0.73120  0.20561  0.19160  1.0000 0.5887986353
C   C114      1.0  0.76880  0.70561  0.80840  1.0000 0.5887986353
C   C115      1.0  0.79460  0.23629  0.47870  1.0000 -0.0518776219
C   C116      1.0  0.70540  0.73629  0.52130  1.0000 -0.0518776219
C   C117      1.0  0.80150  0.23719  0.11300  1.0000 -0.1009769557
C   C118      1.0  0.69850  0.73719  0.88700  1.0000 -0.1009769557
C   C119      1.0  0.78390  0.27426  0.47520  1.0000 -0.1009769557
C   C120      1.0  0.71610  0.77426  0.52480  1.0000 -0.1009769557
C   C121      1.0  0.68440  0.26786  0.05220  1.0000 -0.1293332256
C   C122      1.0  0.81560  0.76786  0.94780  1.0000 -0.1293332256
C   C123      1.0  0.75510  0.29966  0.97520  1.0000 0.0597967331
C   C124      1.0  0.74490  0.79966  0.02480  1.0000 0.0597967331
C   C125      1.0  0.78970  0.30151  0.64840  1.0000 0.0597967331
C   C126      1.0  0.71030  0.80151  0.35160  1.0000 0.0597967331
C   C127      1.0  0.78150  0.29558  0.52980  1.0000 -0.1694872839
C   C128      1.0  0.71850  0.79558  0.47020  1.0000 -0.1694872839
C   C129      1.0  0.77490  0.34310  0.87160  1.0000 0.167282716
C   C130      1.0  0.72510  0.84310  0.12840  1.0000 0.167282716
C   C131      1.0  0.81660  0.39937  0.81730  1.0000 0.1756156242
C   C132      1.0  0.68340  0.89937  0.18270  1.0000 0.1756156242
C   C133      1.0  0.79110  0.27874  0.58940  1.0000 0.0816614366
C   C134      1.0  0.70890  0.77874  0.41060  1.0000 0.0816614366
C   C135      1.0  0.75460  0.33315  0.64790  1.0000 -0.1400564232
C   C136      1.0  0.74540  0.83315  0.35210  1.0000 -0.1400564232
C   C137      1.0  0.90020  0.57032  0.84400  1.0000 -0.0907065078
C   C138      1.0  0.59980  0.07032  0.15600  1.0000 -0.0907065078
C   C139      1.0  0.96000  0.57736  0.81800  1.0000 -0.0518776219
C   C140      1.0  0.54000  0.07736  0.18200  1.0000 -0.0518776219
C   C141      1.0  0.83280  0.45745  0.86860  1.0000 -0.1400564232
C   C142      1.0  0.66720  0.95745  0.13140  1.0000 -0.1400564232
C   C143      1.0  0.70780  0.30064  0.92520  1.0000 -0.1293332256
C   C144      1.0  0.79220  0.80064  0.07480  1.0000 -0.1293332256
C   C145      1.0  0.81370  0.32219  0.97440  1.0000 -0.1293332256
C   C146      1.0  0.68630  0.82219  0.02560  1.0000 -0.1293332256
C   C147      1.0  0.78440  0.34249  0.75650  1.0000 0.1587369821
C   C148      1.0  0.71560  0.84249  0.24350  1.0000 0.1587369821
C   C149      1.0  0.75260  0.35448  0.70250  1.0000 -0.1694872839
C   C150      1.0  0.74740  0.85448  0.29750  1.0000 -0.1694872839
C   C151      1.0  0.82350  0.34388  0.92200  1.0000 -0.1811134728
C   C152      1.0  0.67650  0.84388  0.07800  1.0000 -0.1811134728
C   C153      1.0  0.80190  0.42332  0.86510  1.0000 -0.1811134728
C   C154      1.0  0.69810  0.92332  0.13490  1.0000 -0.1811134728
C   C155      1.0  0.87400  0.53605  0.85150  1.0000 -0.15910304
C   C156      1.0  0.62600  0.03605  0.14850  1.0000 -0.15910304
C   C157      1.0  0.80150  0.22072  0.53850  1.0000 -0.0907065078
C   C158      1.0  0.69850  0.72072  0.46150  1.0000 -0.0907065078
C   C159      1.0  0.71530  0.32219  0.87190  1.0000 -0.1811134728
C   C160      1.0  0.78470  0.82219  0.12810  1.0000 -0.1811134728
C   C161      1.0  0.98390  0.61511  0.80700  1.0000 0.5794430605
C   C162      1.0  0.51610  0.11511  0.19300  1.0000 0.5794430605
C   C163      1.0  0.79970  0.24068  0.59240  1.0000 -0.1495684352
C   C164      1.0  0.70030  0.74068  0.40760  1.0000 -0.1495684352
C   C165      1.0  0.99500  0.54875  0.79790  1.0000 -0.0830767453
C   C166      1.0  0.50500  0.04875  0.20210  1.0000 -0.0830767453
C   C167      1.0  0.90850  0.50612  0.82480  1.0000 0.0861602297
C   C168      1.0  0.59150  0.00612  0.17520  1.0000 0.0861602297
C   C169      1.0  0.87720  0.46869  0.82420  1.0000 0.0492497661
C   C170      1.0  0.62280  0.96869  0.17580  1.0000 0.0492497661
C   C171      1.0  0.88940  0.44457  0.77680  1.0000 -0.1293332256
C   C172      1.0  0.61060  0.94457  0.22320  1.0000 -0.1293332256
C   C173      1.0  0.97170  0.51213  0.80090  1.0000 -0.15910304
C   C174      1.0  0.52830  0.01213  0.19910  1.0000 -0.15910304
C   C175      1.0  0.86040  0.40985  0.77330  1.0000 -0.1811134728
C   C176      1.0  0.63960  0.90985  0.22670  1.0000 -0.1811134728
C   C177      1.0  0.82280  0.31042  0.75770  1.0000 -0.1811134728
C   C178      1.0  0.67720  0.81042  0.24230  1.0000 -0.1811134728
C   C179      1.0  0.27680  0.45080  0.23980  1.0000 -0.1064006708
C   C180      1.0  0.22320  0.95080  0.76020  1.0000 -0.1064006708
C   C181      1.0  0.99220  0.79190  0.74800  1.0000 -0.2119160876
C   C182      1.0  0.50780  0.29190  0.25200  1.0000 -0.2119160876
C   C183      1.0  0.85060  0.81350  0.77130  1.0000 0.416693241
C   C184      1.0  0.64940  0.31350  0.22870  1.0000 0.416693241
C   C185      1.0  0.06150  0.79244  0.73810  1.0000 0.0976931608
C   C186      1.0  0.43850  0.29244  0.26190  1.0000 0.0976931608
C   C187      1.0  0.97360  0.82970  0.65610  1.0000 -0.235380865
C   C188      1.0  0.52640  0.32970  0.34390  1.0000 -0.2348327407
C   C189      1.0  0.94810  0.81173  0.70580  1.0000 0.2650104395
C   C190      1.0  0.55190  0.31173  0.29420  1.0000 0.2650104395
C   C191      1.0  0.04270  0.82884  0.65210  1.0000 0.0711455863
C   C192      1.0  0.45730  0.32884  0.34790  1.0000 0.0711455863
C   C193      1.0  0.51980  0.78826  0.90140  1.0000 0.5372280112
C   C194      1.0  0.98020  0.28826  0.09860  1.0000 0.5372280112
C   C195      1.0  0.51020  0.76593  0.95780  1.0000 -0.0518776219
C   C196      1.0  0.98980  0.26593  0.04220  1.0000 -0.0518776219
C   C197      1.0  0.49940  0.72815  0.95350  1.0000 -0.0830767453
C   C198      1.0  0.00060  0.22815  0.04650  1.0000 -0.0830767453
C   C199      1.0  0.49420  0.72310  0.06620  1.0000 0.0711455863
C   C200      1.0  0.00580  0.22310  0.93380  1.0000 0.0711455863
C   C201      1.0  0.49220  0.70739  0.00590  1.0000 -0.1495684352
C   C202      1.0  0.00780  0.20739  0.99410  1.0000 -0.1495684352
C   C203      1.0  0.45250  0.77322  0.62040  1.0000 -0.0621532457
C   C204      1.0  0.04750  0.27322  0.37960  1.0000 -0.0621532457
C   C205      1.0  0.44750  0.79709  0.67500  1.0000 0.5887986353
C   C206      1.0  0.05250  0.29709  0.32500  1.0000 0.5887986353
C   C207      1.0  0.39880  0.73440  0.53870  1.0000 -0.15910304
C   C208      1.0  0.10120  0.23440  0.46130  1.0000 -0.15910304
C   C209      1.0  0.68040  0.83033  0.83140  1.0000 0.0976931608
C   C210      1.0  0.81960  0.33033  0.16860  1.0000 0.0976931608
C   C211      1.0  0.75020  0.83033  0.82680  1.0000 -0.1400564232
C   C212      1.0  0.74980  0.33033  0.17320  1.0000 -0.1400564232
C   C213      1.0  0.46550  0.70214  0.46010  1.0000 0.0597967331
C   C214      1.0  0.03450  0.20214  0.53990  1.0000 0.0597967331
C   C215      1.0  0.52040  0.74191  0.54600  1.0000 -0.1495684352
C   C216      1.0  0.97960  0.24191  0.45400  1.0000 -0.1495684352
C   C217      1.0  0.39390  0.75705  0.59020  1.0000 -0.0907065078
C   C218      1.0  0.10610  0.25705  0.40980  1.0000 -0.0907065078
C   C219      1.0  0.51530  0.78172  0.01670  1.0000 -0.1009769557
C   C220      1.0  0.98470  0.28172  0.98330  1.0000 -0.1009769557
C   C221      1.0  0.51650  0.76510  0.59750  1.0000 -0.0907065078
C   C222      1.0  0.98350  0.26510  0.40250  1.0000 -0.0907065078
C   C223      1.0  0.50500  0.76070  0.07090  1.0000 -0.15910304
C   C224      1.0  0.99500  0.26070  0.92910  1.0000 -0.15910304
C   C225      1.0  0.46250  0.72685  0.51540  1.0000 0.0816614366
C   C226      1.0  0.03750  0.22685  0.48460  1.0000 0.0816614366
C   C227      1.0  0.47050  0.65969  0.35040  1.0000 0.167282716
C   C228      1.0  0.02950  0.15969  0.64960  1.0000 0.167282716
C   C229      1.0  0.77710  0.81334  0.77600  1.0000 0.0100499062
C   C230      1.0  0.72290  0.31334  0.22400  1.0000 0.0100499062
C   C231      1.0  0.66240  0.79638  0.74160  1.0000 0.0816614366
C   C232      1.0  0.83760  0.29638  0.25840  1.0000 0.0816614366
C   C233      1.0  0.73160  0.79494  0.73390  1.0000 -0.185868285
C   C234      1.0  0.76840  0.29494  0.26610  1.0000 -0.1811134728
C   C235      1.0  0.50910  0.66489  0.12940  1.0000 -0.1293332256
C   C236      1.0  0.99090  0.16489  0.87060  1.0000 -0.1293332256
C   C237      1.0  0.36510  0.55848  0.24020  1.0000 -0.1495684352
C   C238      1.0  0.13490  0.05848  0.75980  1.0000 -0.1400564232
C   C239      1.0  0.47250  0.66082  0.23500  1.0000 0.1587369821
C   C240      1.0  0.02750  0.16082  0.76500  1.0000 0.1587369821
C   C241      1.0  0.35790  0.49515  0.28420  1.0000 0.0816614366
C   C242      1.0  0.14210  0.99515  0.71580  1.0000 0.0816614366
C   C243      1.0  0.51610  0.70787  0.41730  1.0000 -0.1293332256
C   C244      1.0  0.98390  0.20787  0.58270  1.0000 -0.1293332256
C   C245      1.0  0.48690  0.70112  0.12290  1.0000 0.044716098
C   C246      1.0  0.01310  0.20112  0.87710  1.0000 0.044716098
C   C247      1.0  0.42280  0.67386  0.44820  1.0000 -0.1400564232
C   C248      1.0  0.07720  0.17386  0.55180  1.0000 -0.1400564232
C   C249      1.0  0.44250  0.60432  0.28760  1.0000 0.1587369821
C   C250      1.0  0.05750  0.10432  0.71240  1.0000 0.1587369821
C   C251      1.0  0.51870  0.68712  0.36310  1.0000 -0.1694872839
C   C252      1.0  0.98130  0.18712  0.63690  1.0000 -0.1694872839
C   C253      1.0  0.38680  0.53306  0.28410  1.0000 0.0711455863
C   C254      1.0  0.11320  0.03306  0.71590  1.0000 0.0711455863
C   C255      1.0  0.29740  0.42593  0.28250  1.0000 -0.0149717697
C   C256      1.0  0.20260  0.92593  0.71750  1.0000 -0.0154835902
C   C257      1.0  0.39260  0.59409  0.24230  1.0000 -0.185868285
C   C258      1.0  0.10740  0.09409  0.75770  1.0000 -0.185868285
C   C259      1.0  0.26530  0.38820  0.28060  1.0000 0.5990735522
C   C260      1.0  0.23470  0.88820  0.71940  1.0000 0.5990735522
C   C261      1.0  0.50410  0.64473  0.18520  1.0000 -0.1811134728
C   C262      1.0  0.99590  0.14473  0.81480  1.0000 -0.1811134728
C   C263      1.0  0.42320  0.65189  0.39300  1.0000 -0.1811134728
C   C264      1.0  0.07680  0.15189  0.60700  1.0000 -0.1811134728
C   C265      1.0  0.44800  0.69614  0.22900  1.0000 -0.1811134728
C   C266      1.0  0.05200  0.19614  0.77100  1.0000 -0.1811134728
C   C267      1.0  0.46580  0.57826  0.33190  1.0000 -0.1811134728
C   C268      1.0  0.03420  0.07826  0.66810  1.0000 -0.1811134728
C   C269      1.0  0.45530  0.71597  0.17500  1.0000 -0.1400564232
C   C270      1.0  0.04470  0.21597  0.82500  1.0000 -0.1400564232
C   C271      1.0  0.43930  0.54344  0.33010  1.0000 -0.1293332256
C   C272      1.0  0.06070  0.04344  0.66990  1.0000 -0.1293332256
C   C273      1.0  0.37930  0.46913  0.32210  1.0000 -0.1495684352
C   C274      1.0  0.12070  0.96913  0.67790  1.0000 -0.1495684352
C   C275      1.0  0.35010  0.43443  0.32170  1.0000 -0.1064006708
C   C276      1.0  0.14990  0.93443  0.67830  1.0000 -0.1064006708
C   C277      1.0  0.30600  0.48530  0.23880  1.0000 -0.1811134728
C   C278      1.0  0.19400  0.98530  0.76120  1.0000 -0.1811134728
C   C279      1.0  0.17680  0.70969  0.29690  1.0000 -0.1293332256
C   C280      1.0  0.32320  0.20969  0.70310  1.0000 -0.1293332256
C   C281      1.0  0.25200  0.72482  0.97000  1.0000 0.0711455863
C   C282      1.0  0.24800  0.22482  0.03000  1.0000 0.0711455863
C   C283      1.0  0.26250  0.76965  0.86610  1.0000 -0.0280129773
C   C284      1.0  0.23750  0.26965  0.13390  1.0000 -0.0280129773
C   C285      1.0  0.19390  0.74103  0.93920  1.0000 -0.1400564232
C   C286      1.0  0.30610  0.24103  0.06080  1.0000 -0.1400564232
C   C287      1.0  0.19990  0.78625  0.57820  1.0000 0.5372280112
C   C288      1.0  0.30010  0.28625  0.42180  1.0000 0.5372280112
C   C289      1.0  0.32060  0.75514  0.89780  1.0000 -0.0830767453
C   C290      1.0  0.17940  0.25514  0.10220  1.0000 -0.0830767453
C   C291      1.0  0.26880  0.79439  0.80840  1.0000 0.5887986353
C   C292      1.0  0.23120  0.29439  0.19160  1.0000 0.5887986353
C   C293      1.0  0.20540  0.76371  0.52130  1.0000 -0.0518776219
C   C294      1.0  0.29460  0.26371  0.47870  1.0000 -0.0518776219
C   C295      1.0  0.19850  0.76281  0.88700  1.0000 -0.1009769557
C   C296      1.0  0.30150  0.26281  0.11300  1.0000 -0.1009769557
C   C297      1.0  0.21610  0.72574  0.52480  1.0000 -0.1009769557
C   C298      1.0  0.28390  0.22574  0.47520  1.0000 -0.1009769557
C   C299      1.0  0.31560  0.73214  0.94780  1.0000 -0.1293332256
C   C300      1.0  0.18440  0.23214  0.05220  1.0000 -0.1293332256
C   C301      1.0  0.24490  0.70034  0.02480  1.0000 0.0597967331
C   C302      1.0  0.25510  0.20034  0.97520  1.0000 0.0597967331
C   C303      1.0  0.21030  0.69849  0.35160  1.0000 0.0597967331
C   C304      1.0  0.28970  0.19849  0.64840  1.0000 0.0597967331
C   C305      1.0  0.21850  0.70442  0.47020  1.0000 -0.1694872839
C   C306      1.0  0.28150  0.20442  0.52980  1.0000 -0.1694872839
C   C307      1.0  0.22510  0.65690  0.12840  1.0000 0.167282716
C   C308      1.0  0.27490  0.15690  0.87160  1.0000 0.167282716
C   C309      1.0  0.18340  0.60063  0.18270  1.0000 0.1756156242
C   C310      1.0  0.31660  0.10063  0.81730  1.0000 0.1756156242
C   C311      1.0  0.20890  0.72126  0.41060  1.0000 0.0816614366
C   C312      1.0  0.29110  0.22126  0.58940  1.0000 0.0861602297
C   C313      1.0  0.24540  0.66685  0.35210  1.0000 -0.1400564232
C   C314      1.0  0.25460  0.16685  0.64790  1.0000 -0.1400564232
C   C315      1.0  0.09980  0.42968  0.15600  1.0000 -0.0907065078
C   C316      1.0  0.40020  0.92968  0.84400  1.0000 -0.0907065078
C   C317      1.0  0.04000  0.42264  0.18200  1.0000 -0.0518776219
C   C318      1.0  0.46000  0.92264  0.81800  1.0000 -0.0518776219
C   C319      1.0  0.16720  0.54255  0.13140  1.0000 -0.1400564232
C   C320      1.0  0.33280  0.04255  0.86860  1.0000 -0.1400564232
C   C321      1.0  0.29220  0.69936  0.07480  1.0000 -0.1293332256
C   C322      1.0  0.20780  0.19936  0.92520  1.0000 -0.1293332256
C   C323      1.0  0.18630  0.67781  0.02560  1.0000 -0.1293332256
C   C324      1.0  0.31370  0.17781  0.97440  1.0000 -0.1293332256
C   C325      1.0  0.21560  0.65751  0.24350  1.0000 0.1587369821
C   C326      1.0  0.28440  0.15751  0.75650  1.0000 0.1587369821
C   C327      1.0  0.24740  0.64552  0.29750  1.0000 -0.1694872839
C   C328      1.0  0.25260  0.14552  0.70250  1.0000 -0.1694872839
C   C329      1.0  0.17650  0.65612  0.07800  1.0000 -0.1811134728
C   C330      1.0  0.32350  0.15612  0.92200  1.0000 -0.1811134728
C   C331      1.0  0.19810  0.57668  0.13490  1.0000 -0.1811134728
C   C332      1.0  0.30190  0.07668  0.86510  1.0000 -0.1811134728
C   C333      1.0  0.12600  0.46395  0.14850  1.0000 -0.15910304
C   C334      1.0  0.37400  0.96395  0.85150  1.0000 -0.15910304
C   C335      1.0  0.19850  0.77928  0.46150  1.0000 -0.0907065078
C   C336      1.0  0.30150  0.27928  0.53850  1.0000 -0.0907065078
C   C337      1.0  0.28470  0.67781  0.12810  1.0000 -0.1811134728
C   C338      1.0  0.21530  0.17781  0.87190  1.0000 -0.1811134728
C   C339      1.0  0.01610  0.38489  0.19300  1.0000 0.5794430605
C   C340      1.0  0.48390  0.88489  0.80700  1.0000 0.5794430605
C   C341      1.0  0.20030  0.75932  0.40760  1.0000 -0.1495684352
C   C342      1.0  0.29970  0.25932  0.59240  1.0000 -0.1495684352
C   C343      1.0  0.00500  0.45125  0.20210  1.0000 -0.0830767453
C   C344      1.0  0.49500  0.95125  0.79790  1.0000 -0.0907065078
C   C345      1.0  0.09150  0.49388  0.17520  1.0000 0.0861602297
C   C346      1.0  0.40850  0.99388  0.82480  1.0000 0.0861602297
C   C347      1.0  0.12280  0.53131  0.17580  1.0000 0.0492497661
C   C348      1.0  0.37720  0.03131  0.82420  1.0000 0.0492497661
C   C349      1.0  0.11060  0.55543  0.22320  1.0000 -0.1293332256
C   C350      1.0  0.38940  0.05543  0.77680  1.0000 -0.1293332256
C   C351      1.0  0.02830  0.48787  0.19910  1.0000 -0.15910304
C   C352      1.0  0.47170  0.98787  0.80090  1.0000 -0.15910304
C   C353      1.0  0.13960  0.59015  0.22670  1.0000 -0.1811134728
C   C354      1.0  0.36040  0.09015  0.77330  1.0000 -0.1811134728
C   C355      1.0  0.17720  0.68958  0.24230  1.0000 -0.1811134728
C   C356      1.0  0.32280  0.18958  0.75770  1.0000 -0.1811134728
N   N1        1.0  0.12370  0.18729  0.28520  1.0000 -0.3454866776
N   N2        1.0  0.37630  0.68729  0.71480  1.0000 -0.344748474
N   N3        1.0  0.91151  0.18896  0.30715  1.0000 -0.2541365543
N   N4        1.0  0.58849  0.68896  0.69285  1.0000 -0.2541365543
N   N5        1.0  0.36321  0.18612  0.21022  1.0000 -0.2119160876
N   N6        1.0  0.13679  0.68612  0.78978  1.0000 -0.2156653324
N   N7        1.0  0.53080  0.35972  0.70859  1.0000 -0.1694872839
N   N8        1.0  0.96920  0.85972  0.29141  1.0000 -0.1694872839
N   N9        1.0  0.78420  0.36425  0.81396  1.0000 -0.2119160876
N   N10       1.0  0.71580  0.86425  0.18604  1.0000 -0.2119160876
N   N11       1.0  0.87630  0.81271  0.71480  1.0000 -0.344748474
N   N12       1.0  0.62370  0.31271  0.28520  1.0000 -0.344748474
N   N13       1.0  0.08849  0.81104  0.69285  1.0000 -0.2541365543
N   N14       1.0  0.41151  0.31104  0.30715  1.0000 -0.2541365543
N   N15       1.0  0.63679  0.81388  0.78978  1.0000 -0.2156653324
N   N16       1.0  0.86321  0.31388  0.21022  1.0000 -0.2156653324
N   N17       1.0  0.46920  0.64028  0.29141  1.0000 -0.1694872839
N   N18       1.0  0.03080  0.14028  0.70859  1.0000 -0.1694872839
N   N19       1.0  0.21580  0.63575  0.18604  1.0000 -0.2119160876
N   N20       1.0  0.28420  0.13575  0.81396  1.0000 -0.2119160876
O   O1        1.0  0.45544  0.17962  0.09209  1.0000 -0.5458520421
O   O2        1.0  0.04456  0.67962  0.90791  1.0000 -0.5458520421
O   O3        1.0  0.49492  0.22491  0.15239  1.0000 -0.5191047931
O   O4        1.0  0.00508  0.72491  0.84761  1.0000 -0.5191047931
O   O5        1.0  0.10650  0.18412  0.16970  1.0000 -0.598989419
O   O6        1.0  0.39350  0.68412  0.83030  1.0000 -0.598989419
O   O7        1.0  0.60925  0.19172  0.31352  1.0000 -0.51098331
O   O8        1.0  0.89075  0.69172  0.68648  1.0000 -0.51098331
O   O9        1.0  0.49628  0.19528  0.29187  1.0000 -0.5683958152
O   O10       1.0  0.00372  0.69528  0.70813  1.0000 -0.5683958152
O   O11       1.0  0.78648  0.61660  0.75731  1.0000 -0.5392959075
O   O12       1.0  0.71352  0.11660  0.24269  1.0000 -0.5392959075
O   O13       1.0  0.70940  0.63398  0.68073  1.0000 -0.51098331
O   O14       1.0  0.79060  0.13398  0.31927  1.0000 -0.51098331
O   O15       1.0  0.78071  0.22720  0.36816  1.0000 -0.5392959075
O   O16       1.0  0.71929  0.72720  0.63184  1.0000 -0.5392959075
O   O17       1.0  0.78311  0.20162  0.22725  1.0000 -0.5392959075
O   O18       1.0  0.71689  0.70162  0.77275  1.0000 -0.5392959075
O   O19       1.0  0.82351  0.18184  0.42656  1.0000 -0.5191047931
O   O20       1.0  0.67649  0.68184  0.57344  1.0000 -0.5191047931
O   O21       1.0  0.67207  0.19160  0.19784  1.0000 -0.5392959075
O   O22       1.0  0.82793  0.69160  0.80216  1.0000 -0.5392959075
O   O23       1.0  0.04469  0.62168  0.79916  1.0000 -0.4705617645
O   O24       1.0  0.45531  0.12168  0.20084  1.0000 -0.4705617645
O   O25       1.0  0.94075  0.64196  0.80997  1.0000 -0.5683958152
O   O26       1.0  0.55925  0.14196  0.19003  1.0000 -0.5683958152
O   O27       1.0  0.54456  0.82038  0.90791  1.0000 -0.5458520421
O   O28       1.0  0.95544  0.32038  0.09209  1.0000 -0.5458520421
O   O29       1.0  0.50508  0.77509  0.84761  1.0000 -0.5191047931
O   O30       1.0  0.99492  0.27509  0.15239  1.0000 -0.5191047931
O   O31       1.0  0.89350  0.81588  0.83030  1.0000 -0.598989419
O   O32       1.0  0.60650  0.31588  0.16970  1.0000 -0.598989419
O   O33       1.0  0.39075  0.80828  0.68648  1.0000 -0.51098331
O   O34       1.0  0.10925  0.30828  0.31352  1.0000 -0.51098331
O   O35       1.0  0.50372  0.80472  0.70813  1.0000 -0.5683958152
O   O36       1.0  0.99628  0.30472  0.29187  1.0000 -0.5683958152
O   O37       1.0  0.21352  0.38340  0.24269  1.0000 -0.5392959075
O   O38       1.0  0.28648  0.88340  0.75731  1.0000 -0.5392959075
O   O39       1.0  0.29060  0.36602  0.31927  1.0000 -0.51098331
O   O40       1.0  0.20940  0.86602  0.68073  1.0000 -0.51098331
O   O41       1.0  0.21929  0.77280  0.63184  1.0000 -0.5392959075
O   O42       1.0  0.28071  0.27280  0.36816  1.0000 -0.5392959075
O   O43       1.0  0.21689  0.79838  0.77275  1.0000 -0.5392959075
O   O44       1.0  0.28311  0.29838  0.22725  1.0000 -0.5392959075
O   O45       1.0  0.17649  0.81816  0.57344  1.0000 -0.5191047931
O   O46       1.0  0.32351  0.31816  0.42656  1.0000 -0.5191047931
O   O47       1.0  0.32793  0.80840  0.80216  1.0000 -0.5392959075
O   O48       1.0  0.17207  0.30840  0.19784  1.0000 -0.5392959075
O   O49       1.0  0.95531  0.37832  0.20084  1.0000 -0.4705617645
O   O50       1.0  0.54469  0.87832  0.79916  1.0000 -0.4705617645
O   O51       1.0  0.05925  0.35804  0.19003  1.0000 -0.5683958152
O   O52       1.0  0.44075  0.85804  0.80997  1.0000 -0.5683958152
